# generated using pymatgen
data_H10C16N5
_symmetry_space_group_name_H-M   'P 1'
_cell_length_a   36.66340000
_cell_length_b   36.66340000
_cell_length_c   36.66340000
_cell_angle_alpha   90.00000000
_cell_angle_beta   90.00000000
_cell_angle_gamma   90.00000000
_symmetry_Int_Tables_number   1
_chemical_formula_structural   H10C16N5
_chemical_formula_sum   'H480 C768 N240'
_cell_volume   49283.12191453
_cell_formula_units_Z   48
loop_
 _symmetry_equiv_pos_site_id
 _symmetry_equiv_pos_as_xyz
  1  'x, y, z'
loop_
 _atom_site_type_symbol
 _atom_site_label
 _atom_site_symmetry_multiplicity
 _atom_site_fract_x
 _atom_site_fract_y
 _atom_site_fract_z
 _atom_site_occupancy
  H  7  1  0.05653400  0.03532600  0.99642900  1
  H  16  1  0.94904600  0.00018700  0.03625400  1
  H  17  1  0.02246900  0.89301200  0.10539400  1
  H  18  1  0.98188800  0.90632800  0.11798500  1
  H  19  1  0.98038600  0.09990000  0.88820600  1
  H  20  1  0.02131100  0.11299500  0.89988600  1
  H  21  1  0.94842200  0.00685500  0.97121800  1
  H  22  1  0.05659200  0.97140400  0.00905500  1
  H  27  1  0.93453900  0.97016000  0.10906100  1
  H  28  1  0.93257200  0.03667700  0.89873700  1
  H  29  1  0.07232800  0.10275600  0.96527000  1
  H  30  1  0.07334600  0.90440000  0.03964000  1
  H  37  1  0.45048200  0.97171500  0.49638600  1
  H  46  1  0.55797800  0.00682400  0.53623700  1
  H  47  1  0.48453700  0.11393400  0.60546400  1
  H  48  1  0.52512300  0.10061600  0.61803800  1
  H  49  1  0.52662300  0.90718500  0.38813100  1
  H  50  1  0.48568000  0.89410900  0.39978500  1
  H  51  1  0.55861100  0.00016000  0.47121100  1
  H  52  1  0.45043500  0.03562600  0.50904400  1
  H  57  1  0.57250200  0.03682700  0.60905100  1
  H  58  1  0.57447700  0.97036200  0.39872700  1
  H  59  1  0.43471100  0.90426100  0.46516600  1
  H  60  1  0.43372900  0.10267000  0.53969000  1
  H  67  1  0.22246200  0.80462700  0.24592900  1
  H  76  1  0.25747600  0.69648700  0.28604500  1
  H  77  1  0.36559600  0.76960600  0.35382700  1
  H  78  1  0.35259700  0.72897400  0.36650100  1
  H  79  1  0.15512600  0.72776600  0.13999100  1
  H  80  1  0.14229200  0.76867900  0.15191400  1
  H  81  1  0.24945900  0.69594100  0.22162800  1
  H  82  1  0.28500300  0.80461600  0.25986200  1
  H  87  1  0.28723400  0.68192200  0.35828600  1
  H  88  1  0.21983100  0.68042700  0.14946600  1
  H  89  1  0.15856000  0.82468800  0.21484700  1
  H  90  1  0.34896300  0.82505600  0.29058100  1
  H  97  1  0.28450400  0.20241200  0.74590900  1
  H  106  1  0.24960900  0.31056000  0.78605600  1
  H  107  1  0.14148300  0.23754600  0.85391100  1
  H  108  1  0.15448000  0.27820600  0.86652300  1
  H  109  1  0.35197200  0.27932500  0.64009300  1
  H  110  1  0.36482900  0.23843300  0.65206700  1
  H  111  1  0.25753200  0.31110600  0.72161300  1
  H  112  1  0.22196100  0.20246300  0.75988800  1
  H  117  1  0.21962000  0.32461000  0.85880400  1
  H  118  1  0.28712800  0.32653000  0.64946500  1
  H  119  1  0.34804700  0.18205100  0.71496000  1
  H  120  1  0.15785200  0.18219800  0.79072800  1
  H  127  1  0.78379700  0.19807000  0.76136100  1
  H  136  1  0.74885500  0.30663500  0.72134800  1
  H  137  1  0.64148700  0.23317500  0.65282200  1
  H  138  1  0.65418000  0.27402800  0.64045800  1
  H  139  1  0.85196900  0.27479100  0.86679800  1
  H  140  1  0.86435400  0.23367400  0.85502100  1
  H  141  1  0.75765100  0.30705800  0.78535200  1
  H  142  1  0.72195900  0.19815000  0.74675800  1
  H  147  1  0.71888200  0.32144600  0.64900600  1
  H  148  1  0.78769800  0.32267300  0.85742400  1
  H  149  1  0.84701600  0.17695000  0.79317700  1
  H  150  1  0.65876300  0.17681800  0.71501500  1
  H  157  1  0.72322200  0.80892900  0.26134900  1
  H  166  1  0.75819700  0.70034900  0.22136300  1
  H  167  1  0.86553300  0.77383900  0.15281100  1
  H  168  1  0.85285200  0.73298400  0.14045400  1
  H  169  1  0.65504500  0.73223600  0.36681000  1
  H  170  1  0.64266200  0.77334800  0.35502400  1
  H  171  1  0.74934600  0.69993700  0.28534700  1
  H  172  1  0.78505200  0.80884900  0.24675300  1
  H  177  1  0.78817800  0.68550000  0.14906600  1
  H  178  1  0.71929700  0.68428700  0.35737000  1
  H  179  1  0.65998500  0.83004800  0.29315300  1
  H  180  1  0.84826800  0.83017900  0.21501800  1
  H  187  1  0.55933400  0.53457300  0.49582900  1
  H  196  1  0.45116300  0.49994800  0.53601900  1
  H  197  1  0.52388700  0.39151500  0.60374300  1
  H  198  1  0.48342400  0.40463700  0.61663900  1
  H  199  1  0.48277300  0.60129700  0.38933600  1
  H  200  1  0.52340700  0.61444300  0.40168400  1
  H  201  1  0.45073200  0.50732300  0.47155200  1
  H  202  1  0.55929800  0.47219500  0.51021700  1
  H  207  1  0.43567900  0.47296400  0.60657200  1
  H  208  1  0.43403200  0.53391600  0.40147100  1
  H  209  1  0.57982800  0.59822500  0.46369400  1
  H  210  1  0.58010400  0.40842900  0.54203900  1
  H  217  1  0.94770200  0.47244300  0.99584200  1
  H  226  1  0.05588000  0.50704700  0.03604300  1
  H  227  1  0.98315100  0.61547200  0.10375500  1
  H  228  1  0.02364200  0.60239000  0.11662100  1
  H  229  1  0.02429800  0.40559500  0.88945300  1
  H  230  1  0.98368900  0.39242100  0.90185800  1
  H  231  1  0.05632300  0.49963700  0.97158900  1
  H  232  1  0.94774800  0.53480500  0.01023800  1
  H  237  1  0.07116200  0.53414000  0.10681200  1
  H  238  1  0.07302600  0.47304400  0.90158500  1
  H  239  1  0.92688500  0.40917300  0.96386800  1
  H  240  1  0.92711200  0.59879800  0.04216800  1
  H  251  1  0.81345400  0.81103700  0.03940400  1
  H  252  1  0.85324200  0.85158100  0.00387200  1
  H  253  1  0.91211600  0.92593300  0.15647000  1
  H  254  1  0.87353800  0.88658100  0.19107900  1
  H  267  1  0.69353300  0.19598500  0.53939600  1
  H  268  1  0.65374400  0.15544000  0.50386700  1
  H  269  1  0.59491400  0.08105800  0.65646900  1
  H  270  1  0.63349500  0.12041300  0.69107500  1
  H  283  1  0.44643100  0.55912100  0.29276600  1
  H  284  1  0.40579100  0.59771000  0.25601500  1
  H  285  1  0.33201500  0.66180400  0.40659300  1
  H  286  1  0.37135600  0.62432800  0.44238600  1
  H  299  1  0.06080400  0.44804300  0.79283900  1
  H  300  1  0.10152400  0.40956100  0.75606400  1
  H  301  1  0.17503700  0.34511200  0.90662500  1
  H  302  1  0.13562800  0.38249600  0.94243200  1
  H  315  1  0.69270100  0.80934000  0.46889200  1
  H  316  1  0.65281900  0.85002400  0.50415600  1
  H  317  1  0.59710200  0.92628800  0.35130900  1
  H  318  1  0.63578300  0.88682600  0.31696700  1
  H  331  1  0.81431800  0.19768400  0.96891600  1
  H  332  1  0.85420000  0.15700100  0.00418200  1
  H  333  1  0.90990400  0.08072300  0.85134100  1
  H  334  1  0.87122200  0.12018000  0.81699700  1
  H  347  1  0.05478300  0.56424900  0.21432300  1
  H  348  1  0.09539300  0.60275900  0.25119400  1
  H  349  1  0.17702000  0.65849000  0.10132100  1
  H  350  1  0.13764300  0.62115300  0.06544300  1
  H  363  1  0.45209900  0.44293200  0.71432200  1
  H  364  1  0.41145900  0.40446600  0.75120400  1
  H  365  1  0.32998300  0.34853300  0.60132400  1
  H  366  1  0.36939800  0.38582000  0.56543800  1
  H  379  1  0.20191200  0.18766500  0.96623500  1
  H  380  1  0.16269400  0.14599800  0.00112600  1
  H  381  1  0.08863100  0.08919900  0.84727200  1
  H  382  1  0.12721700  0.12914700  0.81358400  1
  H  395  1  0.30507800  0.81947000  0.46616500  1
  H  396  1  0.34428000  0.86115000  0.50105800  1
  H  397  1  0.41838100  0.91792500  0.34721500  1
  H  398  1  0.37981700  0.87795900  0.31352500  1
  H  411  1  0.55986600  0.44309300  0.71741500  1
  H  412  1  0.59968700  0.40282900  0.75323300  1
  H  413  1  0.67505100  0.34376800  0.60121200  1
  H  414  1  0.63643500  0.38285800  0.56633000  1
  H  427  1  0.94724900  0.56392400  0.21743000  1
  H  428  1  0.90745500  0.60421200  0.25324800  1
  H  429  1  0.83201700  0.66321400  0.10123900  1
  H  430  1  0.87059800  0.62408800  0.06635500  1
  H  443  1  0.30546000  0.18990900  0.53911500  1
  H  444  1  0.34460800  0.14827400  0.50411000  1
  H  445  1  0.41692200  0.08925900  0.65796300  1
  H  446  1  0.37846400  0.12921900  0.69173300  1
  H  459  1  0.20157600  0.81706200  0.03916400  1
  H  460  1  0.16238600  0.85864000  0.00413600  1
  H  461  1  0.09010900  0.91776200  0.15796600  1
  H  462  1  0.12861800  0.87786900  0.19176000  1
  H  475  1  0.94808600  0.44205900  0.78823500  1
  H  476  1  0.90797300  0.40183400  0.75270600  1
  H  477  1  0.83157500  0.34508000  0.90509000  1
  H  478  1  0.87046700  0.38412400  0.93968300  1
  H  491  1  0.55888700  0.56492800  0.28824400  1
  H  492  1  0.59894300  0.60521300  0.25271700  1
  H  493  1  0.67542500  0.66190200  0.40508200  1
  H  494  1  0.63659300  0.62278900  0.43967800  1
  H  503  1  0.05653400  0.03532600  0.32373100  1
  H  512  1  0.94904600  0.00018700  0.36355600  1
  H  513  1  0.02246900  0.89301200  0.43269600  1
  H  514  1  0.98188800  0.90632800  0.44528700  1
  H  515  1  0.98038600  0.09990000  0.21550800  1
  H  516  1  0.02131100  0.11299500  0.22718800  1
  H  517  1  0.94842200  0.00685500  0.29852000  1
  H  518  1  0.05659200  0.97140400  0.33635700  1
  H  523  1  0.93453900  0.97016000  0.43636300  1
  H  524  1  0.93257200  0.03667700  0.22603900  1
  H  525  1  0.07232800  0.10275600  0.29257200  1
  H  526  1  0.07334600  0.90440000  0.36694200  1
  H  533  1  0.45048200  0.97171500  0.82368800  1
  H  542  1  0.55797800  0.00682400  0.86353900  1
  H  543  1  0.48453700  0.11393400  0.93276600  1
  H  544  1  0.52512300  0.10061600  0.94534000  1
  H  545  1  0.52662300  0.90718500  0.71543300  1
  H  546  1  0.48568000  0.89410900  0.72708700  1
  H  547  1  0.55861100  0.00016000  0.79851300  1
  H  548  1  0.45043500  0.03562600  0.83634600  1
  H  553  1  0.57250200  0.03682700  0.93635300  1
  H  554  1  0.57447700  0.97036200  0.72602900  1
  H  555  1  0.43471100  0.90426100  0.79246800  1
  H  556  1  0.43372900  0.10267000  0.86699200  1
  H  563  1  0.22246200  0.80462700  0.57323100  1
  H  572  1  0.25747600  0.69648700  0.61334700  1
  H  573  1  0.36559600  0.76960600  0.68112900  1
  H  574  1  0.35259700  0.72897400  0.69380300  1
  H  575  1  0.15512600  0.72776600  0.46729300  1
  H  576  1  0.14229200  0.76867900  0.47921600  1
  H  577  1  0.24945900  0.69594100  0.54893000  1
  H  578  1  0.28500300  0.80461600  0.58716400  1
  H  583  1  0.28723400  0.68192200  0.68558800  1
  H  584  1  0.21983100  0.68042700  0.47676800  1
  H  585  1  0.15856000  0.82468800  0.54214900  1
  H  586  1  0.34896300  0.82505600  0.61788300  1
  H  593  1  0.28450400  0.20241200  0.07321090  1
  H  602  1  0.24960900  0.31056000  0.11335800  1
  H  603  1  0.14148300  0.23754600  0.18121300  1
  H  604  1  0.15448000  0.27820600  0.19382500  1
  H  605  1  0.35197200  0.27932500  0.96739500  1
  H  606  1  0.36482900  0.23843300  0.97936900  1
  H  607  1  0.25753200  0.31110600  0.04891490  1
  H  608  1  0.22196100  0.20246300  0.08718990  1
  H  613  1  0.21962000  0.32461000  0.18610600  1
  H  614  1  0.28712800  0.32653000  0.97676700  1
  H  615  1  0.34804700  0.18205100  0.04226190  1
  H  616  1  0.15785200  0.18219800  0.11803000  1
  H  623  1  0.78379700  0.19807000  0.08866290  1
  H  632  1  0.74885500  0.30663500  0.04864990  1
  H  633  1  0.64148700  0.23317500  0.98012400  1
  H  634  1  0.65418000  0.27402800  0.96776000  1
  H  635  1  0.85196900  0.27479100  0.19410000  1
  H  636  1  0.86435400  0.23367400  0.18232300  1
  H  637  1  0.75765100  0.30705800  0.11265400  1
  H  638  1  0.72195900  0.19815000  0.07405990  1
  H  643  1  0.71888200  0.32144600  0.97630800  1
  H  644  1  0.78769800  0.32267300  0.18472600  1
  H  645  1  0.84701600  0.17695000  0.12047900  1
  H  646  1  0.65876300  0.17681800  0.04231690  1
  H  653  1  0.72322200  0.80892900  0.58865100  1
  H  662  1  0.75819700  0.70034900  0.54866500  1
  H  663  1  0.86553300  0.77383900  0.48011300  1
  H  664  1  0.85285200  0.73298400  0.46775600  1
  H  665  1  0.65504500  0.73223600  0.69411200  1
  H  666  1  0.64266200  0.77334800  0.68232600  1
  H  667  1  0.74934600  0.69993700  0.61264900  1
  H  668  1  0.78505200  0.80884900  0.57405500  1
  H  673  1  0.78817800  0.68550000  0.47636800  1
  H  674  1  0.71929700  0.68428700  0.68467200  1
  H  675  1  0.65998500  0.83004800  0.62045500  1
  H  676  1  0.84826800  0.83017900  0.54232000  1
  H  683  1  0.55933400  0.53457300  0.82313100  1
  H  692  1  0.45116300  0.49994800  0.86332100  1
  H  693  1  0.52388700  0.39151500  0.93104500  1
  H  694  1  0.48342400  0.40463700  0.94394100  1
  H  695  1  0.48277300  0.60129700  0.71663800  1
  H  696  1  0.52340700  0.61444300  0.72898600  1
  H  697  1  0.45073200  0.50732300  0.79885400  1
  H  698  1  0.55929800  0.47219500  0.83751900  1
  H  703  1  0.43567900  0.47296400  0.93387400  1
  H  704  1  0.43403200  0.53391600  0.72877300  1
  H  705  1  0.57982800  0.59822500  0.79099600  1
  H  706  1  0.58010400  0.40842900  0.86934100  1
  H  713  1  0.94770200  0.47244300  0.32314400  1
  H  722  1  0.05588000  0.50704700  0.36334500  1
  H  723  1  0.98315100  0.61547200  0.43105700  1
  H  724  1  0.02364200  0.60239000  0.44392300  1
  H  725  1  0.02429800  0.40559500  0.21675500  1
  H  726  1  0.98368900  0.39242100  0.22916000  1
  H  727  1  0.05632300  0.49963700  0.29889100  1
  H  728  1  0.94774800  0.53480500  0.33754000  1
  H  733  1  0.07116200  0.53414000  0.43411400  1
  H  734  1  0.07302600  0.47304400  0.22888700  1
  H  735  1  0.92688500  0.40917300  0.29117000  1
  H  736  1  0.92711200  0.59879800  0.36947000  1
  H  747  1  0.81345400  0.81103700  0.36670600  1
  H  748  1  0.85324200  0.85158100  0.33117400  1
  H  749  1  0.91211600  0.92593300  0.48377200  1
  H  750  1  0.87353800  0.88658100  0.51838100  1
  H  763  1  0.69353300  0.19598500  0.86669800  1
  H  764  1  0.65374400  0.15544000  0.83116900  1
  H  765  1  0.59491400  0.08105800  0.98377100  1
  H  766  1  0.63349500  0.12041300  0.01837690  1
  H  779  1  0.44643100  0.55912100  0.62006800  1
  H  780  1  0.40579100  0.59771000  0.58331700  1
  H  781  1  0.33201500  0.66180400  0.73389500  1
  H  782  1  0.37135600  0.62432800  0.76968800  1
  H  795  1  0.06080400  0.44804300  0.12014100  1
  H  796  1  0.10152400  0.40956100  0.08336590  1
  H  797  1  0.17503700  0.34511200  0.23392700  1
  H  798  1  0.13562800  0.38249600  0.26973400  1
  H  811  1  0.69270100  0.80934000  0.79619400  1
  H  812  1  0.65281900  0.85002400  0.83145800  1
  H  813  1  0.59710200  0.92628800  0.67861100  1
  H  814  1  0.63578300  0.88682600  0.64426900  1
  H  827  1  0.81431800  0.19768400  0.29621800  1
  H  828  1  0.85420000  0.15700100  0.33148400  1
  H  829  1  0.90990400  0.08072300  0.17864300  1
  H  830  1  0.87122200  0.12018000  0.14429900  1
  H  843  1  0.05478300  0.56424900  0.54162500  1
  H  844  1  0.09539300  0.60275900  0.57849600  1
  H  845  1  0.17702000  0.65849000  0.42862300  1
  H  846  1  0.13764300  0.62115300  0.39274500  1
  H  859  1  0.45209900  0.44293200  0.04162390  1
  H  860  1  0.41145900  0.40446600  0.07850590  1
  H  861  1  0.32998300  0.34853300  0.92862600  1
  H  862  1  0.36939800  0.38582000  0.89274000  1
  H  875  1  0.20191200  0.18766500  0.29353700  1
  H  876  1  0.16269400  0.14599800  0.32842800  1
  H  877  1  0.08863100  0.08919900  0.17457400  1
  H  878  1  0.12721700  0.12914700  0.14088600  1
  H  891  1  0.30507800  0.81947000  0.79346700  1
  H  892  1  0.34428000  0.86115000  0.82836000  1
  H  893  1  0.41838100  0.91792500  0.67451700  1
  H  894  1  0.37981700  0.87795900  0.64082700  1
  H  907  1  0.55986600  0.44309300  0.04471690  1
  H  908  1  0.59968700  0.40282900  0.08053490  1
  H  909  1  0.67505100  0.34376800  0.92851400  1
  H  910  1  0.63643500  0.38285800  0.89363200  1
  H  923  1  0.94724900  0.56392400  0.54473200  1
  H  924  1  0.90745500  0.60421200  0.58055000  1
  H  925  1  0.83201700  0.66321400  0.42854100  1
  H  926  1  0.87059800  0.62408800  0.39365700  1
  H  939  1  0.30546000  0.18990900  0.86641700  1
  H  940  1  0.34460800  0.14827400  0.83141200  1
  H  941  1  0.41692200  0.08925900  0.98526500  1
  H  942  1  0.37846400  0.12921900  0.01903490  1
  H  955  1  0.20157600  0.81706200  0.36646600  1
  H  956  1  0.16238600  0.85864000  0.33143800  1
  H  957  1  0.09010900  0.91776200  0.48526800  1
  H  958  1  0.12861800  0.87786900  0.51906200  1
  H  971  1  0.94808600  0.44205900  0.11553700  1
  H  972  1  0.90797300  0.40183400  0.08000790  1
  H  973  1  0.83157500  0.34508000  0.23239200  1
  H  974  1  0.87046700  0.38412400  0.26698500  1
  H  987  1  0.55888700  0.56492800  0.61554600  1
  H  988  1  0.59894300  0.60521300  0.58001900  1
  H  989  1  0.67542500  0.66190200  0.73238400  1
  H  990  1  0.63659300  0.62278900  0.76698000  1
  H  999  1  0.05653400  0.03532600  0.65103300  1
  H  1008  1  0.94904600  0.00018700  0.69085800  1
  H  1009  1  0.02246900  0.89301200  0.75999800  1
  H  1010  1  0.98188800  0.90632800  0.77258900  1
  H  1011  1  0.98038600  0.09990000  0.54281000  1
  H  1012  1  0.02131100  0.11299500  0.55449000  1
  H  1013  1  0.94842200  0.00685500  0.62582200  1
  H  1014  1  0.05659200  0.97140400  0.66365900  1
  H  1019  1  0.93453900  0.97016000  0.76366500  1
  H  1020  1  0.93257200  0.03667700  0.55334100  1
  H  1021  1  0.07232800  0.10275600  0.61987400  1
  H  1022  1  0.07334600  0.90440000  0.69424400  1
  H  1029  1  0.45048200  0.97171500  0.15099000  1
  H  1038  1  0.55797800  0.00682400  0.19084100  1
  H  1039  1  0.48453700  0.11393400  0.26006800  1
  H  1040  1  0.52512300  0.10061600  0.27264200  1
  H  1041  1  0.52662300  0.90718500  0.04273480  1
  H  1042  1  0.48568000  0.89410900  0.05438880  1
  H  1043  1  0.55861100  0.00016000  0.12581500  1
  H  1044  1  0.45043500  0.03562600  0.16364800  1
  H  1049  1  0.57250200  0.03682700  0.26365500  1
  H  1050  1  0.57447700  0.97036200  0.05333080  1
  H  1051  1  0.43471100  0.90426100  0.11977000  1
  H  1052  1  0.43372900  0.10267000  0.19429400  1
  H  1059  1  0.22246200  0.80462700  0.90053300  1
  H  1068  1  0.25747600  0.69648700  0.94064900  1
  H  1069  1  0.36559600  0.76960600  0.00843077  1
  H  1070  1  0.35259700  0.72897400  0.02110480  1
  H  1071  1  0.15512600  0.72776600  0.79459500  1
  H  1072  1  0.14229200  0.76867900  0.80651800  1
  H  1073  1  0.24945900  0.69594100  0.87623200  1
  H  1074  1  0.28500300  0.80461600  0.91446600  1
  H  1079  1  0.28723400  0.68192200  0.01288980  1
  H  1080  1  0.21983100  0.68042700  0.80407000  1
  H  1081  1  0.15856000  0.82468800  0.86945100  1
  H  1082  1  0.34896300  0.82505600  0.94518500  1
  H  1089  1  0.28450400  0.20241200  0.40051300  1
  H  1098  1  0.24960900  0.31056000  0.44066000  1
  H  1099  1  0.14148300  0.23754600  0.50851500  1
  H  1100  1  0.15448000  0.27820600  0.52112700  1
  H  1101  1  0.35197200  0.27932500  0.29469700  1
  H  1102  1  0.36482900  0.23843300  0.30667100  1
  H  1103  1  0.25753200  0.31110600  0.37621700  1
  H  1104  1  0.22196100  0.20246300  0.41449200  1
  H  1109  1  0.21962000  0.32461000  0.51340800  1
  H  1110  1  0.28712800  0.32653000  0.30406900  1
  H  1111  1  0.34804700  0.18205100  0.36956400  1
  H  1112  1  0.15785200  0.18219800  0.44533200  1
  H  1119  1  0.78379700  0.19807000  0.41596500  1
  H  1128  1  0.74885500  0.30663500  0.37595200  1
  H  1129  1  0.64148700  0.23317500  0.30742600  1
  H  1130  1  0.65418000  0.27402800  0.29506200  1
  H  1131  1  0.85196900  0.27479100  0.52140200  1
  H  1132  1  0.86435400  0.23367400  0.50962500  1
  H  1133  1  0.75765100  0.30705800  0.43995600  1
  H  1134  1  0.72195900  0.19815000  0.40136200  1
  H  1139  1  0.71888200  0.32144600  0.30361000  1
  H  1140  1  0.78769800  0.32267300  0.51202800  1
  H  1141  1  0.84701600  0.17695000  0.44778100  1
  H  1142  1  0.65876300  0.17681800  0.36961900  1
  H  1149  1  0.72322200  0.80892900  0.91595300  1
  H  1158  1  0.75819700  0.70034900  0.87596700  1
  H  1159  1  0.86553300  0.77383900  0.80741500  1
  H  1160  1  0.85285200  0.73298400  0.79505800  1
  H  1161  1  0.65504500  0.73223600  0.02141380  1
  H  1162  1  0.64266200  0.77334800  0.00962777  1
  H  1163  1  0.74934600  0.69993700  0.93995100  1
  H  1164  1  0.78505200  0.80884900  0.90135700  1
  H  1169  1  0.78817800  0.68550000  0.80367000  1
  H  1170  1  0.71929700  0.68428700  0.01197380  1
  H  1171  1  0.65998500  0.83004800  0.94775700  1
  H  1172  1  0.84826800  0.83017900  0.86962200  1
  H  1179  1  0.55933400  0.53457300  0.15043300  1
  H  1188  1  0.45116300  0.49994800  0.19062300  1
  H  1189  1  0.52388700  0.39151500  0.25834700  1
  H  1190  1  0.48342400  0.40463700  0.27124300  1
  H  1191  1  0.48277300  0.60129700  0.04393980  1
  H  1192  1  0.52340700  0.61444300  0.05628780  1
  H  1193  1  0.45073200  0.50732300  0.12615600  1
  H  1194  1  0.55929800  0.47219500  0.16482100  1
  H  1199  1  0.43567900  0.47296400  0.26117600  1
  H  1200  1  0.43403200  0.53391600  0.05607480  1
  H  1201  1  0.57982800  0.59822500  0.11829800  1
  H  1202  1  0.58010400  0.40842900  0.19664300  1
  H  1209  1  0.94770200  0.47244300  0.65044600  1
  H  1218  1  0.05588000  0.50704700  0.69064700  1
  H  1219  1  0.98315100  0.61547200  0.75835900  1
  H  1220  1  0.02364200  0.60239000  0.77122500  1
  H  1221  1  0.02429800  0.40559500  0.54405700  1
  H  1222  1  0.98368900  0.39242100  0.55646200  1
  H  1223  1  0.05632300  0.49963700  0.62619300  1
  H  1224  1  0.94774800  0.53480500  0.66484200  1
  H  1229  1  0.07116200  0.53414000  0.76141600  1
  H  1230  1  0.07302600  0.47304400  0.55618900  1
  H  1231  1  0.92688500  0.40917300  0.61847200  1
  H  1232  1  0.92711200  0.59879800  0.69677200  1
  H  1243  1  0.81345400  0.81103700  0.69400800  1
  H  1244  1  0.85324200  0.85158100  0.65847600  1
  H  1245  1  0.91211600  0.92593300  0.81107400  1
  H  1246  1  0.87353800  0.88658100  0.84568300  1
  H  1259  1  0.69353300  0.19598500  0.19400000  1
  H  1260  1  0.65374400  0.15544000  0.15847100  1
  H  1261  1  0.59491400  0.08105800  0.31107300  1
  H  1262  1  0.63349500  0.12041300  0.34567900  1
  H  1275  1  0.44643100  0.55912100  0.94737000  1
  H  1276  1  0.40579100  0.59771000  0.91061900  1
  H  1277  1  0.33201500  0.66180400  0.06119680  1
  H  1278  1  0.37135600  0.62432800  0.09698980  1
  H  1291  1  0.06080400  0.44804300  0.44744300  1
  H  1292  1  0.10152400  0.40956100  0.41066800  1
  H  1293  1  0.17503700  0.34511200  0.56122900  1
  H  1294  1  0.13562800  0.38249600  0.59703600  1
  H  1307  1  0.69270100  0.80934000  0.12349600  1
  H  1308  1  0.65281900  0.85002400  0.15876000  1
  H  1309  1  0.59710200  0.92628800  0.00591277  1
  H  1310  1  0.63578300  0.88682600  0.97157100  1
  H  1323  1  0.81431800  0.19768400  0.62352000  1
  H  1324  1  0.85420000  0.15700100  0.65878600  1
  H  1325  1  0.90990400  0.08072300  0.50594500  1
  H  1326  1  0.87122200  0.12018000  0.47160100  1
  H  1339  1  0.05478300  0.56424900  0.86892700  1
  H  1340  1  0.09539300  0.60275900  0.90579800  1
  H  1341  1  0.17702000  0.65849000  0.75592500  1
  H  1342  1  0.13764300  0.62115300  0.72004700  1
  H  1355  1  0.45209900  0.44293200  0.36892600  1
  H  1356  1  0.41145900  0.40446600  0.40580800  1
  H  1357  1  0.32998300  0.34853300  0.25592800  1
  H  1358  1  0.36939800  0.38582000  0.22004200  1
  H  1371  1  0.20191200  0.18766500  0.62083900  1
  H  1372  1  0.16269400  0.14599800  0.65573000  1
  H  1373  1  0.08863100  0.08919900  0.50187600  1
  H  1374  1  0.12721700  0.12914700  0.46818800  1
  H  1387  1  0.30507800  0.81947000  0.12076900  1
  H  1388  1  0.34428000  0.86115000  0.15566200  1
  H  1389  1  0.41838100  0.91792500  0.00181877  1
  H  1390  1  0.37981700  0.87795900  0.96812900  1
  H  1403  1  0.55986600  0.44309300  0.37201900  1
  H  1404  1  0.59968700  0.40282900  0.40783700  1
  H  1405  1  0.67505100  0.34376800  0.25581600  1
  H  1406  1  0.63643500  0.38285800  0.22093400  1
  H  1419  1  0.94724900  0.56392400  0.87203400  1
  H  1420  1  0.90745500  0.60421200  0.90785200  1
  H  1421  1  0.83201700  0.66321400  0.75584300  1
  H  1422  1  0.87059800  0.62408800  0.72095900  1
  H  1435  1  0.30546000  0.18990900  0.19371900  1
  H  1436  1  0.34460800  0.14827400  0.15871400  1
  H  1437  1  0.41692200  0.08925900  0.31256700  1
  H  1438  1  0.37846400  0.12921900  0.34633700  1
  H  1451  1  0.20157600  0.81706200  0.69376800  1
  H  1452  1  0.16238600  0.85864000  0.65874000  1
  H  1453  1  0.09010900  0.91776200  0.81257000  1
  H  1454  1  0.12861800  0.87786900  0.84636400  1
  H  1467  1  0.94808600  0.44205900  0.44283900  1
  H  1468  1  0.90797300  0.40183400  0.40731000  1
  H  1469  1  0.83157500  0.34508000  0.55969400  1
  H  1470  1  0.87046700  0.38412400  0.59428700  1
  H  1483  1  0.55888700  0.56492800  0.94284800  1
  H  1484  1  0.59894300  0.60521300  0.90732100  1
  H  1485  1  0.67542500  0.66190200  0.05968580  1
  H  1486  1  0.63659300  0.62278900  0.09428180  1
  C  1  1  0.00254700  0.01667900  0.98860600  1
  C  2  1  0.03366200  0.03820300  0.98061500  1
  C  3  1  0.03415000  0.06408700  0.95194300  1
  C  4  1  0.00193600  0.07025400  0.93085700  1
  C  5  1  0.97023600  0.04892000  0.93864400  1
  C  6  1  0.97119400  0.02242300  0.96670700  1
  C  9  1  0.00278100  0.99014500  0.01781800  1
  C  10  1  0.03397500  0.96852400  0.02523100  1
  C  11  1  0.03487700  0.94253300  0.05379900  1
  C  12  1  0.00296900  0.93634200  0.07535100  1
  C  13  1  0.97126700  0.95791900  0.06828600  1
  C  14  1  0.97182700  0.98449900  0.04029600  1
  C  23  1  0.93940500  0.95345700  0.08828900  1
  C  24  1  0.93801400  0.05351700  0.91925400  1
  C  25  1  0.06585500  0.08422200  0.94665700  1
  C  26  1  0.06671600  0.92247000  0.05864600  1
  C  31  1  0.50447800  0.99035200  0.48857900  1
  C  32  1  0.47335400  0.96884300  0.48057100  1
  C  33  1  0.47286900  0.94296700  0.45189400  1
  C  34  1  0.50508400  0.93680000  0.43080800  1
  C  35  1  0.53679100  0.95811800  0.43861400  1
  C  36  1  0.53583400  0.98460200  0.46668800  1
  C  39  1  0.50424400  0.01687200  0.51780500  1
  C  40  1  0.47304600  0.03849000  0.52522900  1
  C  41  1  0.47214600  0.06446900  0.55380800  1
  C  42  1  0.50405300  0.07064500  0.57536600  1
  C  43  1  0.53575700  0.04907500  0.56829100  1
  C  44  1  0.53519500  0.02250700  0.54028800  1
  C  53  1  0.56762300  0.05353800  0.58828600  1
  C  54  1  0.56901700  0.95351100  0.41923200  1
  C  55  1  0.44116200  0.92284300  0.44659200  1
  C  56  1  0.44031600  0.08454300  0.55865700  1
  C  61  1  0.24016300  0.75020800  0.23887800  1
  C  62  1  0.21903300  0.78153100  0.23057800  1
  C  63  1  0.19298100  0.78210100  0.20205300  1
  C  64  1  0.18599800  0.74960000  0.18163500  1
  C  65  1  0.20713500  0.71777000  0.18945400  1
  C  66  1  0.23394600  0.71876800  0.21721800  1
  C  69  1  0.26706000  0.75039100  0.26782500  1
  C  70  1  0.28836400  0.78174300  0.27556300  1
  C  71  1  0.31452600  0.78263300  0.30398100  1
  C  72  1  0.32145100  0.75040700  0.32484700  1
  C  73  1  0.30003200  0.71861200  0.31770100  1
  C  74  1  0.27313000  0.71929700  0.29001900  1
  C  83  1  0.30440400  0.68684200  0.33789000  1
  C  84  1  0.20270900  0.68565600  0.16980800  1
  C  85  1  0.17456300  0.81468100  0.19542100  1
  C  86  1  0.33302900  0.81525400  0.31016700  1
  C  91  1  0.26682600  0.25684100  0.73887000  1
  C  92  1  0.28794400  0.22551200  0.73056400  1
  C  93  1  0.31400800  0.22493600  0.70204600  1
  C  94  1  0.32100400  0.25744500  0.68164100  1
  C  95  1  0.29984900  0.28926900  0.68943900  1
  C  96  1  0.27304300  0.28827600  0.71720500  1
  C  99  1  0.23995100  0.25667200  0.76783600  1
  C  100  1  0.21863400  0.22533500  0.77559600  1
  C  101  1  0.19250900  0.22446300  0.80404600  1
  C  102  1  0.18563900  0.25669000  0.82493400  1
  C  103  1  0.20707800  0.28846500  0.81776600  1
  C  104  1  0.23393000  0.28776900  0.79003800  1
  C  113  1  0.20281700  0.32023500  0.83799300  1
  C  114  1  0.30429800  0.32138600  0.66979300  1
  C  115  1  0.33240700  0.19234900  0.69539000  1
  C  116  1  0.17397300  0.19186100  0.81022700  1
  C  121  1  0.76650800  0.25267400  0.76819600  1
  C  122  1  0.78739200  0.22121100  0.77659900  1
  C  123  1  0.81336900  0.22048800  0.80517300  1
  C  124  1  0.82069200  0.25300800  0.82543800  1
  C  125  1  0.79982400  0.28498400  0.81753700  1
  C  126  1  0.77298000  0.28411700  0.78979500  1
  C  129  1  0.73958400  0.25256500  0.73925200  1
  C  130  1  0.71850100  0.22112600  0.73124100  1
  C  131  1  0.69252700  0.22020300  0.70267000  1
  C  132  1  0.68540500  0.25251800  0.68200600  1
  C  133  1  0.70653200  0.28442800  0.68945300  1
  C  134  1  0.73335500  0.28375100  0.71721900  1
  C  143  1  0.70195300  0.31635100  0.66954200  1
  C  144  1  0.80464400  0.31714700  0.83701400  1
  C  145  1  0.83107300  0.18762800  0.81230500  1
  C  146  1  0.67472100  0.18733200  0.69581300  1
  C  151  1  0.74050900  0.75432400  0.26819300  1
  C  152  1  0.71962200  0.78578800  0.27658900  1
  C  153  1  0.69363700  0.78651400  0.30515100  1
  C  154  1  0.68630500  0.75399600  0.32541700  1
  C  155  1  0.70716500  0.72201600  0.31752100  1
  C  156  1  0.73402000  0.72288100  0.28978500  1
  C  159  1  0.76743800  0.75443000  0.23925000  1
  C  160  1  0.78851900  0.78587300  0.23123800  1
  C  161  1  0.81450100  0.78679500  0.20267700  1
  C  162  1  0.82163900  0.75447700  0.18202300  1
  C  163  1  0.80052200  0.72255900  0.18947700  1
  C  164  1  0.77368900  0.72323800  0.21723100  1
  C  173  1  0.80512400  0.69063100  0.16958000  1
  C  174  1  0.70232600  0.68985100  0.33699000  1
  C  175  1  0.67593200  0.81937500  0.31228100  1
  C  176  1  0.83230300  0.81966700  0.19582000  1
  C  181  1  0.50487900  0.51692600  0.48890400  1
  C  182  1  0.53619900  0.53801800  0.48053900  1
  C  183  1  0.53675800  0.56392700  0.45189200  1
  C  184  1  0.50422200  0.57083300  0.43146300  1
  C  185  1  0.47237300  0.54971900  0.43934200  1
  C  186  1  0.47347200  0.52297900  0.46716800  1
  C  189  1  0.50499600  0.49004700  0.51784600  1
  C  190  1  0.53631600  0.46877200  0.52573600  1
  C  191  1  0.53705800  0.44267800  0.55420300  1
  C  192  1  0.50470200  0.43573100  0.57489200  1
  C  193  1  0.47293200  0.45719100  0.56765800  1
  C  194  1  0.47384800  0.48410600  0.53999300  1
  C  203  1  0.44125200  0.45376300  0.58825400  1
  C  204  1  0.44033500  0.55330600  0.41933100  1
  C  205  1  0.56953500  0.58183900  0.44473700  1
  C  206  1  0.56987600  0.42474500  0.56109000  1
  C  211  1  0.00216700  0.49006300  0.98893100  1
  C  212  1  0.97084500  0.46898000  0.98056300  1
  C  213  1  0.97028300  0.44305500  0.95193200  1
  C  214  1  0.00282500  0.43612400  0.93151900  1
  C  215  1  0.03467500  0.45724000  0.93938800  1
  C  216  1  0.03357700  0.48398900  0.96720900  1
  C  219  1  0.00205000  0.51694800  0.01786800  1
  C  220  1  0.97073000  0.53822300  0.02576300  1
  C  221  1  0.96998300  0.56430300  0.05423800  1
  C  222  1  0.00233900  0.57124800  0.07493300  1
  C  223  1  0.03410700  0.54979300  0.06769500  1
  C  224  1  0.03319700  0.52289200  0.04001300  1
  C  233  1  0.06579300  0.55319400  0.08828900  1
  C  234  1  0.06672700  0.45361000  0.91940100  1
  C  235  1  0.93749500  0.42516700  0.94474800  1
  C  236  1  0.93716800  0.58224500  0.06110400  1
  C  241  1  0.89514000  0.90761500  0.10424300  1
  C  242  1  0.87236500  0.88201800  0.08660900  1
  C  243  1  0.84933400  0.85853400  0.10725000  1
  C  244  1  0.84929900  0.85983800  0.14583200  1
  C  245  1  0.87180300  0.88585800  0.16325900  1
  C  246  1  0.89434300  0.90932600  0.14279800  1
  C  248  1  0.82924600  0.83025500  0.05193900  1
  C  249  1  0.85201200  0.85340300  0.03163900  1
  C  257  1  0.61187700  0.09938600  0.60424200  1
  C  258  1  0.63464300  0.12499100  0.58660600  1
  C  259  1  0.65767700  0.14847300  0.60724300  1
  C  260  1  0.65772100  0.14716600  0.64582600  1
  C  261  1  0.63522400  0.12114000  0.66325500  1
  C  262  1  0.61268100  0.09767000  0.64279600  1
  C  264  1  0.67774600  0.17676300  0.55193400  1
  C  265  1  0.65498000  0.15361400  0.53163600  1
  C  273  1  0.34941900  0.64229700  0.35494500  1
  C  274  1  0.37477900  0.61866300  0.33809400  1
  C  275  1  0.39814100  0.59612300  0.35947000  1
  C  276  1  0.39655000  0.59710700  0.39812700  1
  C  277  1  0.37136700  0.62106600  0.41464200  1
  C  278  1  0.34799000  0.64303300  0.39350400  1
  C  280  1  0.42698100  0.57504400  0.30477000  1
  C  281  1  0.40377300  0.59709900  0.28379000  1
  C  289  1  0.15771200  0.36471800  0.85498300  1
  C  290  1  0.13237700  0.38839200  0.83814800  1
  C  291  1  0.10897200  0.41087500  0.85953500  1
  C  292  1  0.11050500  0.40981200  0.89819500  1
  C  293  1  0.13565300  0.38580700  0.91469600  1
  C  294  1  0.15906700  0.36388800  0.89354400  1
  C  296  1  0.08023200  0.43209300  0.80483700  1
  C  297  1  0.10348800  0.41009800  0.78384100  1
  C  305  1  0.61304400  0.90733200  0.40363400  1
  C  306  1  0.63526200  0.88133000  0.42139500  1
  C  307  1  0.65834800  0.85776200  0.40090900  1
  C  308  1  0.65897500  0.85937100  0.36234200  1
  C  309  1  0.63705700  0.88581700  0.34480400  1
  C  310  1  0.61446800  0.90936400  0.36511600  1
  C  312  1  0.67730200  0.82882900  0.45627700  1
  C  313  1  0.65448000  0.85205600  0.47642600  1
  C  321  1  0.89396700  0.09968500  0.90366300  1
  C  322  1  0.87175100  0.12568700  0.92142500  1
  C  323  1  0.84866300  0.14925300  0.90093600  1
  C  324  1  0.84803600  0.14764100  0.86236900  1
  C  325  1  0.86995100  0.12119400  0.84483400  1
  C  326  1  0.89254100  0.09764900  0.86514500  1
  C  328  1  0.82971500  0.17819500  0.95630400  1
  C  329  1  0.85253600  0.15496700  0.97645200  1
  C  337  1  0.15704000  0.64157400  0.15296100  1
  C  338  1  0.13022300  0.61948600  0.16966800  1
  C  339  1  0.10685200  0.59700400  0.14824400  1
  C  340  1  0.10988500  0.59649600  0.10966300  1
  C  341  1  0.13650100  0.61893300  0.09326500  1
  C  342  1  0.15989300  0.64082100  0.11447600  1
  C  344  1  0.07523900  0.57901300  0.20251300  1
  C  345  1  0.09843100  0.60102400  0.22356100  1
  C  353  1  0.34989900  0.36552500  0.65296400  1
  C  354  1  0.37669100  0.38764500  0.66967000  1
  C  355  1  0.40008000  0.41010300  0.64824000  1
  C  356  1  0.39709000  0.41055300  0.60965600  1
  C  357  1  0.37049400  0.38809200  0.59325900  1
  C  358  1  0.34708200  0.36623100  0.61447600  1
  C  360  1  0.43165100  0.42815700  0.70251200  1
  C  361  1  0.40844200  0.40616800  0.72356800  1
  C  369  1  0.10861300  0.10311600  0.89973300  1
  C  370  1  0.13453100  0.12532600  0.91791500  1
  C  371  1  0.15762000  0.14918700  0.89766300  1
  C  372  1  0.15534000  0.15112700  0.85916900  1
  C  373  1  0.13033300  0.12790400  0.84126300  1
  C  374  1  0.10758900  0.10426500  0.86123100  1
  C  376  1  0.18386500  0.17078100  0.95338900  1
  C  377  1  0.16148100  0.14697100  0.97331600  1
  C  385  1  0.39838100  0.90402300  0.39967100  1
  C  386  1  0.37245300  0.88181900  0.41785000  1
  C  387  1  0.34937300  0.85795300  0.39759800  1
  C  388  1  0.35166400  0.85600800  0.35910400  1
  C  389  1  0.37667500  0.87922800  0.34119800  1
  C  390  1  0.39941200  0.90287000  0.36116900  1
  C  392  1  0.32312300  0.83635900  0.45331800  1
  C  393  1  0.34549700  0.86017600  0.47324800  1
  C  401  1  0.65638700  0.36074100  0.65331600  1
  C  402  1  0.63081400  0.38370400  0.67075500  1
  C  403  1  0.60777400  0.40703800  0.64995000  1
  C  404  1  0.60949300  0.40722600  0.61138000  1
  C  405  1  0.63544000  0.38449200  0.59414800  1
  C  406  1  0.65847100  0.36164400  0.61477600  1
  C  408  1  0.57907800  0.42717500  0.70502900  1
  C  409  1  0.60181200  0.40413800  0.72549100  1
  C  417  1  0.85071700  0.64627100  0.15334200  1
  C  418  1  0.87629800  0.62331600  0.17077600  1
  C  419  1  0.89932400  0.59996600  0.14997000  1
  C  420  1  0.89758400  0.59975800  0.11140100  1
  C  421  1  0.87162600  0.62248700  0.09417400  1
  C  422  1  0.84861100  0.64534900  0.11480400  1
  C  424  1  0.92803600  0.57984200  0.20504600  1
  C  425  1  0.90531600  0.60289500  0.22550700  1
  C  433  1  0.39744200  0.10382900  0.60548600  1
  C  434  1  0.37188000  0.12646200  0.58732600  1
  C  435  1  0.34884900  0.15033200  0.60763800  1
  C  436  1  0.35086500  0.15189400  0.64616400  1
  C  437  1  0.37551300  0.12825600  0.66402700  1
  C  438  1  0.39818700  0.10460300  0.64400400  1
  C  440  1  0.32324800  0.17272900  0.55193100  1
  C  441  1  0.34559500  0.14893900  0.53193900  1
  C  449  1  0.10956500  0.90314800  0.10549500  1
  C  450  1  0.13512900  0.88050700  0.08734400  1
  C  451  1  0.15818500  0.85667100  0.10766800  1
  C  452  1  0.15618400  0.85514100  0.14619800  1
  C  453  1  0.13153400  0.87878600  0.16404900  1
  C  454  1  0.10883700  0.90240600  0.14401200  1
  C  456  1  0.18378000  0.83424300  0.05197200  1
  C  457  1  0.16141000  0.85799700  0.03196500  1
  C  465  1  0.85057800  0.36130300  0.85286900  1
  C  466  1  0.87643200  0.38383200  0.83528200  1
  C  467  1  0.89965100  0.40714400  0.85592100  1
  C  468  1  0.89784000  0.40773300  0.89448500  1
  C  469  1  0.87158000  0.38546300  0.91185400  1
  C  470  1  0.84837900  0.36264500  0.89138700  1
  C  472  1  0.92868800  0.42645500  0.80072400  1
  C  473  1  0.90578500  0.40343500  0.78042900  1
  C  481  1  0.65638200  0.64571700  0.35286400  1
  C  482  1  0.63052200  0.62318800  0.33528200  1
  C  483  1  0.60733500  0.59984000  0.35592400  1
  C  484  1  0.60917900  0.59922400  0.39448600  1
  C  485  1  0.63543700  0.62149900  0.41184900  1
  C  486  1  0.65860700  0.64435000  0.39138200  1
  C  488  1  0.57828200  0.58054300  0.30073300  1
  C  489  1  0.60114900  0.60359600  0.28043700  1
  C  497  1  0.00254700  0.01667900  0.31590800  1
  C  498  1  0.03366200  0.03820300  0.30791700  1
  C  499  1  0.03415000  0.06408700  0.27924500  1
  C  500  1  0.00193600  0.07025400  0.25815900  1
  C  501  1  0.97023600  0.04892000  0.26594600  1
  C  502  1  0.97119400  0.02242300  0.29400900  1
  C  505  1  0.00278100  0.99014500  0.34512000  1
  C  506  1  0.03397500  0.96852400  0.35253300  1
  C  507  1  0.03487700  0.94253300  0.38110100  1
  C  508  1  0.00296900  0.93634200  0.40265300  1
  C  509  1  0.97126700  0.95791900  0.39558800  1
  C  510  1  0.97182700  0.98449900  0.36759800  1
  C  519  1  0.93940500  0.95345700  0.41559100  1
  C  520  1  0.93801400  0.05351700  0.24655600  1
  C  521  1  0.06585500  0.08422200  0.27395900  1
  C  522  1  0.06671600  0.92247000  0.38594800  1
  C  527  1  0.50447800  0.99035200  0.81588100  1
  C  528  1  0.47335400  0.96884300  0.80787300  1
  C  529  1  0.47286900  0.94296700  0.77919600  1
  C  530  1  0.50508400  0.93680000  0.75811000  1
  C  531  1  0.53679100  0.95811800  0.76591600  1
  C  532  1  0.53583400  0.98460200  0.79399000  1
  C  535  1  0.50424400  0.01687200  0.84510700  1
  C  536  1  0.47304600  0.03849000  0.85253100  1
  C  537  1  0.47214600  0.06446900  0.88111000  1
  C  538  1  0.50405300  0.07064500  0.90266800  1
  C  539  1  0.53575700  0.04907500  0.89559300  1
  C  540  1  0.53519500  0.02250700  0.86759000  1
  C  549  1  0.56762300  0.05353800  0.91558800  1
  C  550  1  0.56901700  0.95351100  0.74653400  1
  C  551  1  0.44116200  0.92284300  0.77389400  1
  C  552  1  0.44031600  0.08454300  0.88595900  1
  C  557  1  0.24016300  0.75020800  0.56618000  1
  C  558  1  0.21903300  0.78153100  0.55788000  1
  C  559  1  0.19298100  0.78210100  0.52935500  1
  C  560  1  0.18599800  0.74960000  0.50893700  1
  C  561  1  0.20713500  0.71777000  0.51675600  1
  C  562  1  0.23394600  0.71876800  0.54452000  1
  C  565  1  0.26706000  0.75039100  0.59512700  1
  C  566  1  0.28836400  0.78174300  0.60286500  1
  C  567  1  0.31452600  0.78263300  0.63128300  1
  C  568  1  0.32145100  0.75040700  0.65214900  1
  C  569  1  0.30003200  0.71861200  0.64500300  1
  C  570  1  0.27313000  0.71929700  0.61732100  1
  C  579  1  0.30440400  0.68684200  0.66519200  1
  C  580  1  0.20270900  0.68565600  0.49711000  1
  C  581  1  0.17456300  0.81468100  0.52272300  1
  C  582  1  0.33302900  0.81525400  0.63746900  1
  C  587  1  0.26682600  0.25684100  0.06617190  1
  C  588  1  0.28794400  0.22551200  0.05786590  1
  C  589  1  0.31400800  0.22493600  0.02934790  1
  C  590  1  0.32100400  0.25744500  0.00894289  1
  C  591  1  0.29984900  0.28926900  0.01674090  1
  C  592  1  0.27304300  0.28827600  0.04450690  1
  C  595  1  0.23995100  0.25667200  0.09513790  1
  C  596  1  0.21863400  0.22533500  0.10289800  1
  C  597  1  0.19250900  0.22446300  0.13134800  1
  C  598  1  0.18563900  0.25669000  0.15223600  1
  C  599  1  0.20707800  0.28846500  0.14506800  1
  C  600  1  0.23393000  0.28776900  0.11734000  1
  C  609  1  0.20281700  0.32023500  0.16529500  1
  C  610  1  0.30429800  0.32138600  0.99709500  1
  C  611  1  0.33240700  0.19234900  0.02269190  1
  C  612  1  0.17397300  0.19186100  0.13752900  1
  C  617  1  0.76650800  0.25267400  0.09549790  1
  C  618  1  0.78739200  0.22121100  0.10390100  1
  C  619  1  0.81336900  0.22048800  0.13247500  1
  C  620  1  0.82069200  0.25300800  0.15274000  1
  C  621  1  0.79982400  0.28498400  0.14483900  1
  C  622  1  0.77298000  0.28411700  0.11709700  1
  C  625  1  0.73958400  0.25256500  0.06655390  1
  C  626  1  0.71850100  0.22112600  0.05854290  1
  C  627  1  0.69252700  0.22020300  0.02997190  1
  C  628  1  0.68540500  0.25251800  0.00930789  1
  C  629  1  0.70653200  0.28442800  0.01675490  1
  C  630  1  0.73335500  0.28375100  0.04452090  1
  C  639  1  0.70195300  0.31635100  0.99684400  1
  C  640  1  0.80464400  0.31714700  0.16431600  1
  C  641  1  0.83107300  0.18762800  0.13960700  1
  C  642  1  0.67472100  0.18733200  0.02311490  1
  C  647  1  0.74050900  0.75432400  0.59549500  1
  C  648  1  0.71962200  0.78578800  0.60389100  1
  C  649  1  0.69363700  0.78651400  0.63245300  1
  C  650  1  0.68630500  0.75399600  0.65271900  1
  C  651  1  0.70716500  0.72201600  0.64482300  1
  C  652  1  0.73402000  0.72288100  0.61708700  1
  C  655  1  0.76743800  0.75443000  0.56655200  1
  C  656  1  0.78851900  0.78587300  0.55854000  1
  C  657  1  0.81450100  0.78679500  0.52997900  1
  C  658  1  0.82163900  0.75447700  0.50932500  1
  C  659  1  0.80052200  0.72255900  0.51677900  1
  C  660  1  0.77368900  0.72323800  0.54453300  1
  C  669  1  0.80512400  0.69063100  0.49688200  1
  C  670  1  0.70232600  0.68985100  0.66429200  1
  C  671  1  0.67593200  0.81937500  0.63958300  1
  C  672  1  0.83230300  0.81966700  0.52312200  1
  C  677  1  0.50487900  0.51692600  0.81620600  1
  C  678  1  0.53619900  0.53801800  0.80784100  1
  C  679  1  0.53675800  0.56392700  0.77919400  1
  C  680  1  0.50422200  0.57083300  0.75876500  1
  C  681  1  0.47237300  0.54971900  0.76664400  1
  C  682  1  0.47347200  0.52297900  0.79447000  1
  C  685  1  0.50499600  0.49004700  0.84514800  1
  C  686  1  0.53631600  0.46877200  0.85303800  1
  C  687  1  0.53705800  0.44267800  0.88150500  1
  C  688  1  0.50470200  0.43573100  0.90219400  1
  C  689  1  0.47293200  0.45719100  0.89496000  1
  C  690  1  0.47384800  0.48410600  0.86729500  1
  C  699  1  0.44125200  0.45376300  0.91555600  1
  C  700  1  0.44033500  0.55330600  0.74663300  1
  C  701  1  0.56953500  0.58183900  0.77203900  1
  C  702  1  0.56987600  0.42474500  0.88839200  1
  C  707  1  0.00216700  0.49006300  0.31623300  1
  C  708  1  0.97084500  0.46898000  0.30786500  1
  C  709  1  0.97028300  0.44305500  0.27923400  1
  C  710  1  0.00282500  0.43612400  0.25882100  1
  C  711  1  0.03467500  0.45724000  0.26669000  1
  C  712  1  0.03357700  0.48398900  0.29451100  1
  C  715  1  0.00205000  0.51694800  0.34517000  1
  C  716  1  0.97073000  0.53822300  0.35306500  1
  C  717  1  0.96998300  0.56430300  0.38154000  1
  C  718  1  0.00233900  0.57124800  0.40223500  1
  C  719  1  0.03410700  0.54979300  0.39499700  1
  C  720  1  0.03319700  0.52289200  0.36731500  1
  C  729  1  0.06579300  0.55319400  0.41559100  1
  C  730  1  0.06672700  0.45361000  0.24670300  1
  C  731  1  0.93749500  0.42516700  0.27205000  1
  C  732  1  0.93716800  0.58224500  0.38840600  1
  C  737  1  0.89514000  0.90761500  0.43154500  1
  C  738  1  0.87236500  0.88201800  0.41391100  1
  C  739  1  0.84933400  0.85853400  0.43455200  1
  C  740  1  0.84929900  0.85983800  0.47313400  1
  C  741  1  0.87180300  0.88585800  0.49056100  1
  C  742  1  0.89434300  0.90932600  0.47010000  1
  C  744  1  0.82924600  0.83025500  0.37924100  1
  C  745  1  0.85201200  0.85340300  0.35894100  1
  C  753  1  0.61187700  0.09938600  0.93154400  1
  C  754  1  0.63464300  0.12499100  0.91390800  1
  C  755  1  0.65767700  0.14847300  0.93454500  1
  C  756  1  0.65772100  0.14716600  0.97312800  1
  C  757  1  0.63522400  0.12114000  0.99055700  1
  C  758  1  0.61268100  0.09767000  0.97009800  1
  C  760  1  0.67774600  0.17676300  0.87923600  1
  C  761  1  0.65498000  0.15361400  0.85893800  1
  C  769  1  0.34941900  0.64229700  0.68224700  1
  C  770  1  0.37477900  0.61866300  0.66539600  1
  C  771  1  0.39814100  0.59612300  0.68677200  1
  C  772  1  0.39655000  0.59710700  0.72542900  1
  C  773  1  0.37136700  0.62106600  0.74194400  1
  C  774  1  0.34799000  0.64303300  0.72080600  1
  C  776  1  0.42698100  0.57504400  0.63207200  1
  C  777  1  0.40377300  0.59709900  0.61109200  1
  C  785  1  0.15771200  0.36471800  0.18228500  1
  C  786  1  0.13237700  0.38839200  0.16545000  1
  C  787  1  0.10897200  0.41087500  0.18683700  1
  C  788  1  0.11050500  0.40981200  0.22549700  1
  C  789  1  0.13565300  0.38580700  0.24199800  1
  C  790  1  0.15906700  0.36388800  0.22084600  1
  C  792  1  0.08023200  0.43209300  0.13213900  1
  C  793  1  0.10348800  0.41009800  0.11114300  1
  C  801  1  0.61304400  0.90733200  0.73093600  1
  C  802  1  0.63526200  0.88133000  0.74869700  1
  C  803  1  0.65834800  0.85776200  0.72821100  1
  C  804  1  0.65897500  0.85937100  0.68964400  1
  C  805  1  0.63705700  0.88581700  0.67210600  1
  C  806  1  0.61446800  0.90936400  0.69241800  1
  C  808  1  0.67730200  0.82882900  0.78357900  1
  C  809  1  0.65448000  0.85205600  0.80372800  1
  C  817  1  0.89396700  0.09968500  0.23096500  1
  C  818  1  0.87175100  0.12568700  0.24872700  1
  C  819  1  0.84866300  0.14925300  0.22823800  1
  C  820  1  0.84803600  0.14764100  0.18967100  1
  C  821  1  0.86995100  0.12119400  0.17213600  1
  C  822  1  0.89254100  0.09764900  0.19244700  1
  C  824  1  0.82971500  0.17819500  0.28360600  1
  C  825  1  0.85253600  0.15496700  0.30375400  1
  C  833  1  0.15704000  0.64157400  0.48026300  1
  C  834  1  0.13022300  0.61948600  0.49697000  1
  C  835  1  0.10685200  0.59700400  0.47554600  1
  C  836  1  0.10988500  0.59649600  0.43696500  1
  C  837  1  0.13650100  0.61893300  0.42056700  1
  C  838  1  0.15989300  0.64082100  0.44177800  1
  C  840  1  0.07523900  0.57901300  0.52981500  1
  C  841  1  0.09843100  0.60102400  0.55086300  1
  C  849  1  0.34989900  0.36552500  0.98026600  1
  C  850  1  0.37669100  0.38764500  0.99697200  1
  C  851  1  0.40008000  0.41010300  0.97554200  1
  C  852  1  0.39709000  0.41055300  0.93695800  1
  C  853  1  0.37049400  0.38809200  0.92056100  1
  C  854  1  0.34708200  0.36623100  0.94177800  1
  C  856  1  0.43165100  0.42815700  0.02981390  1
  C  857  1  0.40844200  0.40616800  0.05086990  1
  C  865  1  0.10861300  0.10311600  0.22703500  1
  C  866  1  0.13453100  0.12532600  0.24521700  1
  C  867  1  0.15762000  0.14918700  0.22496500  1
  C  868  1  0.15534000  0.15112700  0.18647100  1
  C  869  1  0.13033300  0.12790400  0.16856500  1
  C  870  1  0.10758900  0.10426500  0.18853300  1
  C  872  1  0.18386500  0.17078100  0.28069100  1
  C  873  1  0.16148100  0.14697100  0.30061800  1
  C  881  1  0.39838100  0.90402300  0.72697300  1
  C  882  1  0.37245300  0.88181900  0.74515200  1
  C  883  1  0.34937300  0.85795300  0.72490000  1
  C  884  1  0.35166400  0.85600800  0.68640600  1
  C  885  1  0.37667500  0.87922800  0.66850000  1
  C  886  1  0.39941200  0.90287000  0.68847100  1
  C  888  1  0.32312300  0.83635900  0.78062000  1
  C  889  1  0.34549700  0.86017600  0.80055000  1
  C  897  1  0.65638700  0.36074100  0.98061800  1
  C  898  1  0.63081400  0.38370400  0.99805700  1
  C  899  1  0.60777400  0.40703800  0.97725200  1
  C  900  1  0.60949300  0.40722600  0.93868200  1
  C  901  1  0.63544000  0.38449200  0.92145000  1
  C  902  1  0.65847100  0.36164400  0.94207800  1
  C  904  1  0.57907800  0.42717500  0.03233090  1
  C  905  1  0.60181200  0.40413800  0.05279290  1
  C  913  1  0.85071700  0.64627100  0.48064400  1
  C  914  1  0.87629800  0.62331600  0.49807800  1
  C  915  1  0.89932400  0.59996600  0.47727200  1
  C  916  1  0.89758400  0.59975800  0.43870300  1
  C  917  1  0.87162600  0.62248700  0.42147600  1
  C  918  1  0.84861100  0.64534900  0.44210600  1
  C  920  1  0.92803600  0.57984200  0.53234800  1
  C  921  1  0.90531600  0.60289500  0.55280900  1
  C  929  1  0.39744200  0.10382900  0.93278800  1
  C  930  1  0.37188000  0.12646200  0.91462800  1
  C  931  1  0.34884900  0.15033200  0.93494000  1
  C  932  1  0.35086500  0.15189400  0.97346600  1
  C  933  1  0.37551300  0.12825600  0.99132900  1
  C  934  1  0.39818700  0.10460300  0.97130600  1
  C  936  1  0.32324800  0.17272900  0.87923300  1
  C  937  1  0.34559500  0.14893900  0.85924100  1
  C  945  1  0.10956500  0.90314800  0.43279700  1
  C  946  1  0.13512900  0.88050700  0.41464600  1
  C  947  1  0.15818500  0.85667100  0.43497000  1
  C  948  1  0.15618400  0.85514100  0.47350000  1
  C  949  1  0.13153400  0.87878600  0.49135100  1
  C  950  1  0.10883700  0.90240600  0.47131400  1
  C  952  1  0.18378000  0.83424300  0.37927400  1
  C  953  1  0.16141000  0.85799700  0.35926700  1
  C  961  1  0.85057800  0.36130300  0.18017100  1
  C  962  1  0.87643200  0.38383200  0.16258400  1
  C  963  1  0.89965100  0.40714400  0.18322300  1
  C  964  1  0.89784000  0.40773300  0.22178700  1
  C  965  1  0.87158000  0.38546300  0.23915600  1
  C  966  1  0.84837900  0.36264500  0.21868900  1
  C  968  1  0.92868800  0.42645500  0.12802600  1
  C  969  1  0.90578500  0.40343500  0.10773100  1
  C  977  1  0.65638200  0.64571700  0.68016600  1
  C  978  1  0.63052200  0.62318800  0.66258400  1
  C  979  1  0.60733500  0.59984000  0.68322600  1
  C  980  1  0.60917900  0.59922400  0.72178800  1
  C  981  1  0.63543700  0.62149900  0.73915100  1
  C  982  1  0.65860700  0.64435000  0.71868400  1
  C  984  1  0.57828200  0.58054300  0.62803500  1
  C  985  1  0.60114900  0.60359600  0.60773900  1
  C  993  1  0.00254700  0.01667900  0.64321000  1
  C  994  1  0.03366200  0.03820300  0.63521900  1
  C  995  1  0.03415000  0.06408700  0.60654700  1
  C  996  1  0.00193600  0.07025400  0.58546100  1
  C  997  1  0.97023600  0.04892000  0.59324800  1
  C  998  1  0.97119400  0.02242300  0.62131100  1
  C  1001  1  0.00278100  0.99014500  0.67242200  1
  C  1002  1  0.03397500  0.96852400  0.67983500  1
  C  1003  1  0.03487700  0.94253300  0.70840300  1
  C  1004  1  0.00296900  0.93634200  0.72995500  1
  C  1005  1  0.97126700  0.95791900  0.72289000  1
  C  1006  1  0.97182700  0.98449900  0.69490000  1
  C  1015  1  0.93940500  0.95345700  0.74289300  1
  C  1016  1  0.93801400  0.05351700  0.57385800  1
  C  1017  1  0.06585500  0.08422200  0.60126100  1
  C  1018  1  0.06671600  0.92247000  0.71325000  1
  C  1023  1  0.50447800  0.99035200  0.14318300  1
  C  1024  1  0.47335400  0.96884300  0.13517500  1
  C  1025  1  0.47286900  0.94296700  0.10649800  1
  C  1026  1  0.50508400  0.93680000  0.08541180  1
  C  1027  1  0.53679100  0.95811800  0.09321780  1
  C  1028  1  0.53583400  0.98460200  0.12129200  1
  C  1031  1  0.50424400  0.01687200  0.17240900  1
  C  1032  1  0.47304600  0.03849000  0.17983300  1
  C  1033  1  0.47214600  0.06446900  0.20841200  1
  C  1034  1  0.50405300  0.07064500  0.22997000  1
  C  1035  1  0.53575700  0.04907500  0.22289500  1
  C  1036  1  0.53519500  0.02250700  0.19489200  1
  C  1045  1  0.56762300  0.05353800  0.24289000  1
  C  1046  1  0.56901700  0.95351100  0.07383580  1
  C  1047  1  0.44116200  0.92284300  0.10119600  1
  C  1048  1  0.44031600  0.08454300  0.21326100  1
  C  1053  1  0.24016300  0.75020800  0.89348200  1
  C  1054  1  0.21903300  0.78153100  0.88518200  1
  C  1055  1  0.19298100  0.78210100  0.85665700  1
  C  1056  1  0.18599800  0.74960000  0.83623900  1
  C  1057  1  0.20713500  0.71777000  0.84405800  1
  C  1058  1  0.23394600  0.71876800  0.87182200  1
  C  1061  1  0.26706000  0.75039100  0.92242900  1
  C  1062  1  0.28836400  0.78174300  0.93016700  1
  C  1063  1  0.31452600  0.78263300  0.95858500  1
  C  1064  1  0.32145100  0.75040700  0.97945100  1
  C  1065  1  0.30003200  0.71861200  0.97230500  1
  C  1066  1  0.27313000  0.71929700  0.94462300  1
  C  1075  1  0.30440400  0.68684200  0.99249400  1
  C  1076  1  0.20270900  0.68565600  0.82441200  1
  C  1077  1  0.17456300  0.81468100  0.85002500  1
  C  1078  1  0.33302900  0.81525400  0.96477100  1
  C  1083  1  0.26682600  0.25684100  0.39347400  1
  C  1084  1  0.28794400  0.22551200  0.38516800  1
  C  1085  1  0.31400800  0.22493600  0.35665000  1
  C  1086  1  0.32100400  0.25744500  0.33624500  1
  C  1087  1  0.29984900  0.28926900  0.34404300  1
  C  1088  1  0.27304300  0.28827600  0.37180900  1
  C  1091  1  0.23995100  0.25667200  0.42244000  1
  C  1092  1  0.21863400  0.22533500  0.43020000  1
  C  1093  1  0.19250900  0.22446300  0.45865000  1
  C  1094  1  0.18563900  0.25669000  0.47953800  1
  C  1095  1  0.20707800  0.28846500  0.47237000  1
  C  1096  1  0.23393000  0.28776900  0.44464200  1
  C  1105  1  0.20281700  0.32023500  0.49259700  1
  C  1106  1  0.30429800  0.32138600  0.32439700  1
  C  1107  1  0.33240700  0.19234900  0.34999400  1
  C  1108  1  0.17397300  0.19186100  0.46483100  1
  C  1113  1  0.76650800  0.25267400  0.42280000  1
  C  1114  1  0.78739200  0.22121100  0.43120300  1
  C  1115  1  0.81336900  0.22048800  0.45977700  1
  C  1116  1  0.82069200  0.25300800  0.48004200  1
  C  1117  1  0.79982400  0.28498400  0.47214100  1
  C  1118  1  0.77298000  0.28411700  0.44439900  1
  C  1121  1  0.73958400  0.25256500  0.39385600  1
  C  1122  1  0.71850100  0.22112600  0.38584500  1
  C  1123  1  0.69252700  0.22020300  0.35727400  1
  C  1124  1  0.68540500  0.25251800  0.33661000  1
  C  1125  1  0.70653200  0.28442800  0.34405700  1
  C  1126  1  0.73335500  0.28375100  0.37182300  1
  C  1135  1  0.70195300  0.31635100  0.32414600  1
  C  1136  1  0.80464400  0.31714700  0.49161800  1
  C  1137  1  0.83107300  0.18762800  0.46690900  1
  C  1138  1  0.67472100  0.18733200  0.35041700  1
  C  1143  1  0.74050900  0.75432400  0.92279700  1
  C  1144  1  0.71962200  0.78578800  0.93119300  1
  C  1145  1  0.69363700  0.78651400  0.95975500  1
  C  1146  1  0.68630500  0.75399600  0.98002100  1
  C  1147  1  0.70716500  0.72201600  0.97212500  1
  C  1148  1  0.73402000  0.72288100  0.94438900  1
  C  1151  1  0.76743800  0.75443000  0.89385400  1
  C  1152  1  0.78851900  0.78587300  0.88584200  1
  C  1153  1  0.81450100  0.78679500  0.85728100  1
  C  1154  1  0.82163900  0.75447700  0.83662700  1
  C  1155  1  0.80052200  0.72255900  0.84408100  1
  C  1156  1  0.77368900  0.72323800  0.87183500  1
  C  1165  1  0.80512400  0.69063100  0.82418400  1
  C  1166  1  0.70232600  0.68985100  0.99159400  1
  C  1167  1  0.67593200  0.81937500  0.96688500  1
  C  1168  1  0.83230300  0.81966700  0.85042400  1
  C  1173  1  0.50487900  0.51692600  0.14350800  1
  C  1174  1  0.53619900  0.53801800  0.13514300  1
  C  1175  1  0.53675800  0.56392700  0.10649600  1
  C  1176  1  0.50422200  0.57083300  0.08606680  1
  C  1177  1  0.47237300  0.54971900  0.09394580  1
  C  1178  1  0.47347200  0.52297900  0.12177200  1
  C  1181  1  0.50499600  0.49004700  0.17245000  1
  C  1182  1  0.53631600  0.46877200  0.18034000  1
  C  1183  1  0.53705800  0.44267800  0.20880700  1
  C  1184  1  0.50470200  0.43573100  0.22949600  1
  C  1185  1  0.47293200  0.45719100  0.22226200  1
  C  1186  1  0.47384800  0.48410600  0.19459700  1
  C  1195  1  0.44125200  0.45376300  0.24285800  1
  C  1196  1  0.44033500  0.55330600  0.07393480  1
  C  1197  1  0.56953500  0.58183900  0.09934080  1
  C  1198  1  0.56987600  0.42474500  0.21569400  1
  C  1203  1  0.00216700  0.49006300  0.64353500  1
  C  1204  1  0.97084500  0.46898000  0.63516700  1
  C  1205  1  0.97028300  0.44305500  0.60653600  1
  C  1206  1  0.00282500  0.43612400  0.58612300  1
  C  1207  1  0.03467500  0.45724000  0.59399200  1
  C  1208  1  0.03357700  0.48398900  0.62181300  1
  C  1211  1  0.00205000  0.51694800  0.67247200  1
  C  1212  1  0.97073000  0.53822300  0.68036700  1
  C  1213  1  0.96998300  0.56430300  0.70884200  1
  C  1214  1  0.00233900  0.57124800  0.72953700  1
  C  1215  1  0.03410700  0.54979300  0.72229900  1
  C  1216  1  0.03319700  0.52289200  0.69461700  1
  C  1225  1  0.06579300  0.55319400  0.74289300  1
  C  1226  1  0.06672700  0.45361000  0.57400500  1
  C  1227  1  0.93749500  0.42516700  0.59935200  1
  C  1228  1  0.93716800  0.58224500  0.71570800  1
  C  1233  1  0.89514000  0.90761500  0.75884700  1
  C  1234  1  0.87236500  0.88201800  0.74121300  1
  C  1235  1  0.84933400  0.85853400  0.76185400  1
  C  1236  1  0.84929900  0.85983800  0.80043600  1
  C  1237  1  0.87180300  0.88585800  0.81786300  1
  C  1238  1  0.89434300  0.90932600  0.79740200  1
  C  1240  1  0.82924600  0.83025500  0.70654300  1
  C  1241  1  0.85201200  0.85340300  0.68624300  1
  C  1249  1  0.61187700  0.09938600  0.25884600  1
  C  1250  1  0.63464300  0.12499100  0.24121000  1
  C  1251  1  0.65767700  0.14847300  0.26184700  1
  C  1252  1  0.65772100  0.14716600  0.30043000  1
  C  1253  1  0.63522400  0.12114000  0.31785900  1
  C  1254  1  0.61268100  0.09767000  0.29740000  1
  C  1256  1  0.67774600  0.17676300  0.20653800  1
  C  1257  1  0.65498000  0.15361400  0.18624000  1
  C  1265  1  0.34941900  0.64229700  0.00954877  1
  C  1266  1  0.37477900  0.61866300  0.99269800  1
  C  1267  1  0.39814100  0.59612300  0.01407380  1
  C  1268  1  0.39655000  0.59710700  0.05273080  1
  C  1269  1  0.37136700  0.62106600  0.06924580  1
  C  1270  1  0.34799000  0.64303300  0.04810780  1
  C  1272  1  0.42698100  0.57504400  0.95937400  1
  C  1273  1  0.40377300  0.59709900  0.93839400  1
  C  1281  1  0.15771200  0.36471800  0.50958700  1
  C  1282  1  0.13237700  0.38839200  0.49275200  1
  C  1283  1  0.10897200  0.41087500  0.51413900  1
  C  1284  1  0.11050500  0.40981200  0.55279900  1
  C  1285  1  0.13565300  0.38580700  0.56930000  1
  C  1286  1  0.15906700  0.36388800  0.54814800  1
  C  1288  1  0.08023200  0.43209300  0.45944100  1
  C  1289  1  0.10348800  0.41009800  0.43844500  1
  C  1297  1  0.61304400  0.90733200  0.05823780  1
  C  1298  1  0.63526200  0.88133000  0.07599880  1
  C  1299  1  0.65834800  0.85776200  0.05551280  1
  C  1300  1  0.65897500  0.85937100  0.01694580  1
  C  1301  1  0.63705700  0.88581700  0.99940800  1
  C  1302  1  0.61446800  0.90936400  0.01971980  1
  C  1304  1  0.67730200  0.82882900  0.11088100  1
  C  1305  1  0.65448000  0.85205600  0.13103000  1
  C  1313  1  0.89396700  0.09968500  0.55826700  1
  C  1314  1  0.87175100  0.12568700  0.57602900  1
  C  1315  1  0.84866300  0.14925300  0.55554000  1
  C  1316  1  0.84803600  0.14764100  0.51697300  1
  C  1317  1  0.86995100  0.12119400  0.49943800  1
  C  1318  1  0.89254100  0.09764900  0.51974900  1
  C  1320  1  0.82971500  0.17819500  0.61090800  1
  C  1321  1  0.85253600  0.15496700  0.63105600  1
  C  1329  1  0.15704000  0.64157400  0.80756500  1
  C  1330  1  0.13022300  0.61948600  0.82427200  1
  C  1331  1  0.10685200  0.59700400  0.80284800  1
  C  1332  1  0.10988500  0.59649600  0.76426700  1
  C  1333  1  0.13650100  0.61893300  0.74786900  1
  C  1334  1  0.15989300  0.64082100  0.76908000  1
  C  1336  1  0.07523900  0.57901300  0.85711700  1
  C  1337  1  0.09843100  0.60102400  0.87816500  1
  C  1345  1  0.34989900  0.36552500  0.30756800  1
  C  1346  1  0.37669100  0.38764500  0.32427400  1
  C  1347  1  0.40008000  0.41010300  0.30284400  1
  C  1348  1  0.39709000  0.41055300  0.26426000  1
  C  1349  1  0.37049400  0.38809200  0.24786300  1
  C  1350  1  0.34708200  0.36623100  0.26908000  1
  C  1352  1  0.43165100  0.42815700  0.35711600  1
  C  1353  1  0.40844200  0.40616800  0.37817200  1
  C  1361  1  0.10861300  0.10311600  0.55433700  1
  C  1362  1  0.13453100  0.12532600  0.57251900  1
  C  1363  1  0.15762000  0.14918700  0.55226700  1
  C  1364  1  0.15534000  0.15112700  0.51377300  1
  C  1365  1  0.13033300  0.12790400  0.49586700  1
  C  1366  1  0.10758900  0.10426500  0.51583500  1
  C  1368  1  0.18386500  0.17078100  0.60799300  1
  C  1369  1  0.16148100  0.14697100  0.62792000  1
  C  1377  1  0.39838100  0.90402300  0.05427480  1
  C  1378  1  0.37245300  0.88181900  0.07245380  1
  C  1379  1  0.34937300  0.85795300  0.05220180  1
  C  1380  1  0.35166400  0.85600800  0.01370780  1
  C  1381  1  0.37667500  0.87922800  0.99580200  1
  C  1382  1  0.39941200  0.90287000  0.01577280  1
  C  1384  1  0.32312300  0.83635900  0.10792200  1
  C  1385  1  0.34549700  0.86017600  0.12785200  1
  C  1393  1  0.65638700  0.36074100  0.30792000  1
  C  1394  1  0.63081400  0.38370400  0.32535900  1
  C  1395  1  0.60777400  0.40703800  0.30455400  1
  C  1396  1  0.60949300  0.40722600  0.26598400  1
  C  1397  1  0.63544000  0.38449200  0.24875200  1
  C  1398  1  0.65847100  0.36164400  0.26938000  1
  C  1400  1  0.57907800  0.42717500  0.35963300  1
  C  1401  1  0.60181200  0.40413800  0.38009500  1
  C  1409  1  0.85071700  0.64627100  0.80794600  1
  C  1410  1  0.87629800  0.62331600  0.82538000  1
  C  1411  1  0.89932400  0.59996600  0.80457400  1
  C  1412  1  0.89758400  0.59975800  0.76600500  1
  C  1413  1  0.87162600  0.62248700  0.74877800  1
  C  1414  1  0.84861100  0.64534900  0.76940800  1
  C  1416  1  0.92803600  0.57984200  0.85965000  1
  C  1417  1  0.90531600  0.60289500  0.88011100  1
  C  1425  1  0.39744200  0.10382900  0.26009000  1
  C  1426  1  0.37188000  0.12646200  0.24193000  1
  C  1427  1  0.34884900  0.15033200  0.26224200  1
  C  1428  1  0.35086500  0.15189400  0.30076800  1
  C  1429  1  0.37551300  0.12825600  0.31863100  1
  C  1430  1  0.39818700  0.10460300  0.29860800  1
  C  1432  1  0.32324800  0.17272900  0.20653500  1
  C  1433  1  0.34559500  0.14893900  0.18654300  1
  C  1441  1  0.10956500  0.90314800  0.76009900  1
  C  1442  1  0.13512900  0.88050700  0.74194800  1
  C  1443  1  0.15818500  0.85667100  0.76227200  1
  C  1444  1  0.15618400  0.85514100  0.80080200  1
  C  1445  1  0.13153400  0.87878600  0.81865300  1
  C  1446  1  0.10883700  0.90240600  0.79861600  1
  C  1448  1  0.18378000  0.83424300  0.70657600  1
  C  1449  1  0.16141000  0.85799700  0.68656900  1
  C  1457  1  0.85057800  0.36130300  0.50747300  1
  C  1458  1  0.87643200  0.38383200  0.48988600  1
  C  1459  1  0.89965100  0.40714400  0.51052500  1
  C  1460  1  0.89784000  0.40773300  0.54908900  1
  C  1461  1  0.87158000  0.38546300  0.56645800  1
  C  1462  1  0.84837900  0.36264500  0.54599100  1
  C  1464  1  0.92868800  0.42645500  0.45532800  1
  C  1465  1  0.90578500  0.40343500  0.43503300  1
  C  1473  1  0.65638200  0.64571700  0.00746777  1
  C  1474  1  0.63052200  0.62318800  0.98988600  1
  C  1475  1  0.60733500  0.59984000  0.01052780  1
  C  1476  1  0.60917900  0.59922400  0.04908980  1
  C  1477  1  0.63543700  0.62149900  0.06645280  1
  C  1478  1  0.65860700  0.64435000  0.04598580  1
  C  1480  1  0.57828200  0.58054300  0.95533700  1
  C  1481  1  0.60114900  0.60359600  0.93504100  1
  N  8  1  0.00126500  0.09628800  0.90401000  1
  N  15  1  0.00256800  0.91003800  0.10194000  1
  N  38  1  0.50574900  0.91078500  0.40394500  1
  N  45  1  0.50445400  0.09693200  0.60197300  1
  N  68  1  0.15938600  0.74883300  0.15536700  1
  N  75  1  0.34828400  0.74986400  0.35090000  1
  N  98  1  0.34764900  0.25822200  0.65540200  1
  N  105  1  0.15883800  0.25725400  0.85101700  1
  N  128  1  0.84736200  0.25363000  0.85165000  1
  N  135  1  0.65868400  0.25301000  0.65584100  1
  N  158  1  0.65963000  0.75337500  0.35162600  1
  N  165  1  0.84836600  0.75398300  0.15586600  1
  N  188  1  0.50362200  0.59724400  0.40499500  1
  N  195  1  0.50421400  0.40894200  0.60098000  1
  N  218  1  0.00342800  0.40969400  0.90506800  1
  N  225  1  0.00281100  0.59802100  0.10103900  1
  N  247  1  0.82897000  0.83350600  0.08877900  1
  N  250  1  0.87276100  0.87816900  0.04965200  1
  N  255  1  0.92169200  0.92335300  0.08501900  1
  N  256  1  0.83226500  0.83287600  0.16330600  1
  N  263  1  0.67803300  0.17350800  0.58877200  1
  N  266  1  0.63424000  0.12884400  0.54964800  1
  N  271  1  0.58532400  0.08364700  0.58502200  1
  N  272  1  0.67475400  0.17412500  0.66329800  1
  N  279  1  0.42344600  0.57565800  0.34156600  1
  N  282  1  0.37886000  0.61820200  0.30116700  1
  N  287  1  0.33439600  0.66884600  0.33510500  1
  N  288  1  0.42324200  0.58396100  0.41905200  1
  N  295  1  0.08369800  0.43138300  0.84163700  1
  N  298  1  0.12836900  0.38895400  0.80121200  1
  N  303  1  0.17290500  0.33833200  0.83504200  1
  N  304  1  0.08380500  0.42295000  0.91911200  1
  N  311  1  0.67816300  0.83236900  0.41947500  1
  N  314  1  0.63427200  0.87719000  0.45830900  1
  N  319  1  0.58631700  0.92317000  0.42253500  1
  N  320  1  0.67601400  0.83240400  0.34486900  1
  N  327  1  0.82885000  0.17465200  0.91950200  1
  N  330  1  0.87274400  0.12983200  0.95833900  1
  N  335  1  0.92069400  0.08384600  0.92256500  1
  N  336  1  0.83099400  0.17460800  0.84489900  1
  N  343  1  0.08017400  0.57811300  0.16588400  1
  N  346  1  0.12473900  0.62055600  0.20640600  1
  N  351  1  0.17241600  0.66814500  0.17252500  1
  N  352  1  0.08347800  0.58350500  0.08828200  1
  N  359  1  0.42674700  0.42901300  0.66587900  1
  N  362  1  0.38214900  0.38661400  0.70641500  1
  N  367  1  0.33455100  0.33894300  0.67253700  1
  N  368  1  0.42357200  0.42344900  0.58831900  1
  N  375  1  0.18104600  0.17103700  0.91652400  1
  N  378  1  0.13774900  0.12541700  0.95489100  1
  N  383  1  0.08195700  0.08386000  0.91544300  1
  N  384  1  0.17332600  0.17803400  0.84249900  1
  N  391  1  0.32594900  0.83610000  0.41645300  1
  N  394  1  0.36922900  0.88173100  0.45482600  1
  N  399  1  0.42503900  0.92326900  0.41538900  1
  N  400  1  0.33373900  0.82905800  0.34244500  1
  N  407  1  0.58273300  0.42756000  0.66823000  1
  N  410  1  0.62657800  0.38322700  0.70766700  1
  N  415  1  0.67181900  0.33405200  0.67263200  1
  N  416  1  0.58290500  0.42462500  0.59368100  1
  N  423  1  0.92436500  0.57944400  0.16824700  1
  N  426  1  0.88055000  0.62380700  0.20768700  1
  N  431  1  0.83527600  0.67296200  0.17265500  1
  N  432  1  0.92411400  0.58228000  0.09369100  1
  N  439  1  0.32577400  0.17258600  0.58881800  1
  N  442  1  0.36898300  0.12698300  0.55032800  1
  N  447  1  0.42417500  0.08462800  0.58985200  1
  N  448  1  0.33310000  0.17887400  0.66297100  1
  N  455  1  0.18126800  0.83441400  0.08886000  1
  N  458  1  0.13801300  0.87995600  0.05034500  1
  N  463  1  0.08282800  0.92233600  0.08985300  1
  N  464  1  0.17403700  0.82823100  0.16302900  1
  N  471  1  0.92494100  0.42723800  0.83751000  1
  N  474  1  0.88076600  0.38294600  0.79838700  1
  N  479  1  0.83496000  0.33452100  0.83381200  1
  N  480  1  0.92456700  0.42502000  0.91211000  1
  N  487  1  0.58205100  0.57973600  0.33751300  1
  N  490  1  0.62616300  0.62409300  0.29839300  1
  N  495  1  0.67199400  0.67250100  0.33380900  1
  N  496  1  0.58253400  0.58181700  0.41212500  1
  N  504  1  0.00126500  0.09628800  0.23131200  1
  N  511  1  0.00256800  0.91003800  0.42924200  1
  N  534  1  0.50574900  0.91078500  0.73124700  1
  N  541  1  0.50445400  0.09693200  0.92927500  1
  N  564  1  0.15938600  0.74883300  0.48266900  1
  N  571  1  0.34828400  0.74986400  0.67820200  1
  N  594  1  0.34764900  0.25822200  0.98270400  1
  N  601  1  0.15883800  0.25725400  0.17831900  1
  N  624  1  0.84736200  0.25363000  0.17895200  1
  N  631  1  0.65868400  0.25301000  0.98314300  1
  N  654  1  0.65963000  0.75337500  0.67892800  1
  N  661  1  0.84836600  0.75398300  0.48316800  1
  N  684  1  0.50362200  0.59724400  0.73229700  1
  N  691  1  0.50421400  0.40894200  0.92828200  1
  N  714  1  0.00342800  0.40969400  0.23237000  1
  N  721  1  0.00281100  0.59802100  0.42834100  1
  N  743  1  0.82897000  0.83350600  0.41608100  1
  N  746  1  0.87276100  0.87816900  0.37695400  1
  N  751  1  0.92169200  0.92335300  0.41232100  1
  N  752  1  0.83226500  0.83287600  0.49060800  1
  N  759  1  0.67803300  0.17350800  0.91607400  1
  N  762  1  0.63424000  0.12884400  0.87695000  1
  N  767  1  0.58532400  0.08364700  0.91232400  1
  N  768  1  0.67475400  0.17412500  0.99060000  1
  N  775  1  0.42344600  0.57565800  0.66886800  1
  N  778  1  0.37886000  0.61820200  0.62846900  1
  N  783  1  0.33439600  0.66884600  0.66240700  1
  N  784  1  0.42324200  0.58396100  0.74635400  1
  N  791  1  0.08369800  0.43138300  0.16893900  1
  N  794  1  0.12836900  0.38895400  0.12851400  1
  N  799  1  0.17290500  0.33833200  0.16234400  1
  N  800  1  0.08380500  0.42295000  0.24641400  1
  N  807  1  0.67816300  0.83236900  0.74677700  1
  N  810  1  0.63427200  0.87719000  0.78561100  1
  N  815  1  0.58631700  0.92317000  0.74983700  1
  N  816  1  0.67601400  0.83240400  0.67217100  1
  N  823  1  0.82885000  0.17465200  0.24680400  1
  N  826  1  0.87274400  0.12983200  0.28564100  1
  N  831  1  0.92069400  0.08384600  0.24986700  1
  N  832  1  0.83099400  0.17460800  0.17220100  1
  N  839  1  0.08017400  0.57811300  0.49318600  1
  N  842  1  0.12473900  0.62055600  0.53370800  1
  N  847  1  0.17241600  0.66814500  0.49982700  1
  N  848  1  0.08347800  0.58350500  0.41558400  1
  N  855  1  0.42674700  0.42901300  0.99318100  1
  N  858  1  0.38214900  0.38661400  0.03371690  1
  N  863  1  0.33455100  0.33894300  0.99983900  1
  N  864  1  0.42357200  0.42344900  0.91562100  1
  N  871  1  0.18104600  0.17103700  0.24382600  1
  N  874  1  0.13774900  0.12541700  0.28219300  1
  N  879  1  0.08195700  0.08386000  0.24274500  1
  N  880  1  0.17332600  0.17803400  0.16980100  1
  N  887  1  0.32594900  0.83610000  0.74375500  1
  N  890  1  0.36922900  0.88173100  0.78212800  1
  N  895  1  0.42503900  0.92326900  0.74269100  1
  N  896  1  0.33373900  0.82905800  0.66974700  1
  N  903  1  0.58273300  0.42756000  0.99553200  1
  N  906  1  0.62657800  0.38322700  0.03496890  1
  N  911  1  0.67181900  0.33405200  0.99993400  1
  N  912  1  0.58290500  0.42462500  0.92098300  1
  N  919  1  0.92436500  0.57944400  0.49554900  1
  N  922  1  0.88055000  0.62380700  0.53498900  1
  N  927  1  0.83527600  0.67296200  0.49995700  1
  N  928  1  0.92411400  0.58228000  0.42099300  1
  N  935  1  0.32577400  0.17258600  0.91612000  1
  N  938  1  0.36898300  0.12698300  0.87763000  1
  N  943  1  0.42417500  0.08462800  0.91715400  1
  N  944  1  0.33310000  0.17887400  0.99027300  1
  N  951  1  0.18126800  0.83441400  0.41616200  1
  N  954  1  0.13801300  0.87995600  0.37764700  1
  N  959  1  0.08282800  0.92233600  0.41715500  1
  N  960  1  0.17403700  0.82823100  0.49033100  1
  N  967  1  0.92494100  0.42723800  0.16481200  1
  N  970  1  0.88076600  0.38294600  0.12568900  1
  N  975  1  0.83496000  0.33452100  0.16111400  1
  N  976  1  0.92456700  0.42502000  0.23941200  1
  N  983  1  0.58205100  0.57973600  0.66481500  1
  N  986  1  0.62616300  0.62409300  0.62569500  1
  N  991  1  0.67199400  0.67250100  0.66111100  1
  N  992  1  0.58253400  0.58181700  0.73942700  1
  N  1000  1  0.00126500  0.09628800  0.55861400  1
  N  1007  1  0.00256800  0.91003800  0.75654400  1
  N  1030  1  0.50574900  0.91078500  0.05854880  1
  N  1037  1  0.50445400  0.09693200  0.25657700  1
  N  1060  1  0.15938600  0.74883300  0.80997100  1
  N  1067  1  0.34828400  0.74986400  0.00550377  1
  N  1090  1  0.34764900  0.25822200  0.31000600  1
  N  1097  1  0.15883800  0.25725400  0.50562100  1
  N  1120  1  0.84736200  0.25363000  0.50625400  1
  N  1127  1  0.65868400  0.25301000  0.31044500  1
  N  1150  1  0.65963000  0.75337500  0.00622977  1
  N  1157  1  0.84836600  0.75398300  0.81047000  1
  N  1180  1  0.50362200  0.59724400  0.05959880  1
  N  1187  1  0.50421400  0.40894200  0.25558400  1
  N  1210  1  0.00342800  0.40969400  0.55967200  1
  N  1217  1  0.00281100  0.59802100  0.75564300  1
  N  1239  1  0.82897000  0.83350600  0.74338300  1
  N  1242  1  0.87276100  0.87816900  0.70425600  1
  N  1247  1  0.92169200  0.92335300  0.73962300  1
  N  1248  1  0.83226500  0.83287600  0.81791000  1
  N  1255  1  0.67803300  0.17350800  0.24337600  1
  N  1258  1  0.63424000  0.12884400  0.20425200  1
  N  1263  1  0.58532400  0.08364700  0.23962600  1
  N  1264  1  0.67475400  0.17412500  0.31790200  1
  N  1271  1  0.42344600  0.57565800  0.99617000  1
  N  1274  1  0.37886000  0.61820200  0.95577100  1
  N  1279  1  0.33439600  0.66884600  0.98970900  1
  N  1280  1  0.42324200  0.58396100  0.07365580  1
  N  1287  1  0.08369800  0.43138300  0.49624100  1
  N  1290  1  0.12836900  0.38895400  0.45581600  1
  N  1295  1  0.17290500  0.33833200  0.48964600  1
  N  1296  1  0.08380500  0.42295000  0.57371600  1
  N  1303  1  0.67816300  0.83236900  0.07407880  1
  N  1306  1  0.63427200  0.87719000  0.11291300  1
  N  1311  1  0.58631700  0.92317000  0.07713880  1
  N  1312  1  0.67601400  0.83240400  0.99947300  1
  N  1319  1  0.82885000  0.17465200  0.57410600  1
  N  1322  1  0.87274400  0.12983200  0.61294300  1
  N  1327  1  0.92069400  0.08384600  0.57716900  1
  N  1328  1  0.83099400  0.17460800  0.49950300  1
  N  1335  1  0.08017400  0.57811300  0.82048800  1
  N  1338  1  0.12473900  0.62055600  0.86101000  1
  N  1343  1  0.17241600  0.66814500  0.82712900  1
  N  1344  1  0.08347800  0.58350500  0.74288600  1
  N  1351  1  0.42674700  0.42901300  0.32048300  1
  N  1354  1  0.38214900  0.38661400  0.36101900  1
  N  1359  1  0.33455100  0.33894300  0.32714100  1
  N  1360  1  0.42357200  0.42344900  0.24292300  1
  N  1367  1  0.18104600  0.17103700  0.57112800  1
  N  1370  1  0.13774900  0.12541700  0.60949500  1
  N  1375  1  0.08195700  0.08386000  0.57004700  1
  N  1376  1  0.17332600  0.17803400  0.49710300  1
  N  1383  1  0.32594900  0.83610000  0.07105680  1
  N  1386  1  0.36922900  0.88173100  0.10943000  1
  N  1391  1  0.42503900  0.92326900  0.06999280  1
  N  1392  1  0.33373900  0.82905800  0.99704900  1
  N  1399  1  0.58273300  0.42756000  0.32283400  1
  N  1402  1  0.62657800  0.38322700  0.36227100  1
  N  1407  1  0.67181900  0.33405200  0.32723600  1
  N  1408  1  0.58290500  0.42462500  0.24828500  1
  N  1415  1  0.92436500  0.57944400  0.82285100  1
  N  1418  1  0.88055000  0.62380700  0.86229100  1
  N  1423  1  0.83527600  0.67296200  0.82725900  1
  N  1424  1  0.92411400  0.58228000  0.74829500  1
  N  1431  1  0.32577400  0.17258600  0.24342200  1
  N  1434  1  0.36898300  0.12698300  0.20493200  1
  N  1439  1  0.42417500  0.08462800  0.24445600  1
  N  1440  1  0.33310000  0.17887400  0.31757500  1
  N  1447  1  0.18126800  0.83441400  0.74346400  1
  N  1450  1  0.13801300  0.87995600  0.70494900  1
  N  1455  1  0.08282800  0.92233600  0.74445700  1
  N  1456  1  0.17403700  0.82823100  0.81763300  1
  N  1463  1  0.92494100  0.42723800  0.49211400  1
  N  1466  1  0.88076600  0.38294600  0.45299100  1
  N  1471  1  0.83496000  0.33452100  0.48841600  1
  N  1472  1  0.92456700  0.42502000  0.56671400  1
  N  1479  1  0.58205100  0.57973600  0.99211700  1
  N  1482  1  0.62616300  0.62409300  0.95299700  1
  N  1487  1  0.67199400  0.67250100  0.98841300  1
  N  1488  1  0.58253400  0.58181700  0.06672880  1
