# generated using pymatgen
data_H32C41N8
_symmetry_space_group_name_H-M   'P 1'
_cell_length_a   53.55570000
_cell_length_b   53.55540000
_cell_length_c   53.55520000
_cell_angle_alpha   90.00050000
_cell_angle_beta   90.00030000
_cell_angle_gamma   89.99900000
_symmetry_Int_Tables_number   1
_chemical_formula_structural   H32C41N8
_chemical_formula_sum   'H768 C984 N192'
_cell_volume   153606.86050373
_cell_formula_units_Z   24
loop_
 _symmetry_equiv_pos_site_id
 _symmetry_equiv_pos_as_xyz
  1  'x, y, z'
loop_
 _atom_site_type_symbol
 _atom_site_label
 _atom_site_symmetry_multiplicity
 _atom_site_fract_x
 _atom_site_fract_y
 _atom_site_fract_z
 _atom_site_occupancy
  H  26  1  0.04708600  0.21277500  0.54872900  1
  H  27  1  0.01634600  0.24434100  0.55387200  1
  H  28  1  0.03509800  0.21419400  0.47099100  1
  H  29  1  0.00453000  0.24561000  0.47619900  1
  H  30  1  0.95625700  0.24433500  0.48397000  1
  H  31  1  0.92552500  0.21276500  0.48910900  1
  H  32  1  0.93749000  0.21419900  0.56685100  1
  H  33  1  0.96805200  0.24562000  0.56164500  1
  H  34  1  0.95117800  0.29303500  0.54864700  1
  H  35  1  0.95630500  0.32280800  0.58120400  1
  H  36  1  0.03423400  0.32065100  0.57044500  1
  H  37  1  0.02901300  0.29118600  0.53796900  1
  H  38  1  0.02141700  0.29302500  0.48918000  1
  H  39  1  0.94358100  0.29118600  0.49986200  1
  H  40  1  0.93836200  0.32064900  0.46738300  1
  H  41  1  0.01629000  0.32279500  0.45662100  1
  H  44  1  0.91205600  0.18122400  0.54829100  1
  H  45  1  0.06053600  0.18122100  0.48954700  1
  H  47  1  0.01699100  0.34246600  0.60656700  1
  H  49  1  0.95560700  0.34245800  0.43125800  1
  H  75  1  0.92550800  0.82506200  0.54873700  1
  H  76  1  0.95622900  0.79348200  0.55387000  1
  H  77  1  0.93755000  0.82370400  0.47100800  1
  H  78  1  0.96809600  0.79227100  0.47621200  1
  H  79  1  0.01636500  0.79348400  0.48397200  1
  H  80  1  0.04708000  0.82506600  0.48909900  1
  H  81  1  0.03506000  0.82370000  0.56683400  1
  H  82  1  0.00451600  0.79226400  0.56163200  1
  H  83  1  0.02142100  0.74482300  0.54866800  1
  H  84  1  0.01630000  0.71503700  0.58121000  1
  H  85  1  0.93837700  0.71713300  0.57039900  1
  H  86  1  0.94359700  0.74661400  0.53794100  1
  H  87  1  0.95118100  0.74483400  0.48915900  1
  H  88  1  0.02900600  0.74661100  0.49989000  1
  H  89  1  0.03422300  0.71713100  0.46743000  1
  H  90  1  0.95630100  0.71504600  0.45661700  1
  H  93  1  0.06051500  0.85665600  0.54826800  1
  H  94  1  0.91209300  0.85665900  0.48957000  1
  H  96  1  0.95561200  0.69532900  0.60653200  1
  H  98  1  0.01698600  0.69533900  0.43129000  1
  H  124  1  0.79244900  0.54873900  0.95812800  1
  H  125  1  0.76086000  0.55387100  0.98883800  1
  H  126  1  0.79108000  0.47100900  0.97015700  1
  H  127  1  0.75963900  0.47621200  0.00069300  1
  H  128  1  0.76086200  0.48397500  0.04896400  1
  H  129  1  0.79244800  0.48910400  0.07967700  1
  H  130  1  0.79107000  0.56683800  0.06766300  1
  H  131  1  0.75963000  0.56163600  0.03712300  1
  H  132  1  0.71219500  0.54866900  0.05402300  1
  H  133  1  0.68240900  0.58121200  0.04890000  1
  H  134  1  0.68450700  0.57040300  0.97097400  1
  H  135  1  0.71398900  0.53794300  0.97619700  1
  H  136  1  0.71219800  0.48916000  0.98378700  1
  H  137  1  0.71399300  0.49989400  0.06161300  1
  H  138  1  0.68451400  0.46743300  0.06683700  1
  H  139  1  0.68241400  0.45661800  0.98891300  1
  H  142  1  0.82402700  0.54827600  0.09311700  1
  H  143  1  0.82404300  0.48957200  0.94471200  1
  H  145  1  0.66270800  0.60653800  0.98821100  1
  H  147  1  0.66271000  0.43130000  0.04960700  1
  H  173  1  0.18027400  0.54874100  0.07983200  1
  H  174  1  0.21186000  0.55387100  0.04911800  1
  H  175  1  0.18140000  0.47104300  0.06756000  1
  H  176  1  0.21284000  0.47624600  0.03702100  1
  H  177  1  0.21186300  0.48396300  0.98873700  1
  H  178  1  0.18028300  0.48910200  0.95801400  1
  H  179  1  0.18141600  0.56680100  0.97029300  1
  H  180  1  0.21285100  0.56159300  0.00083700  1
  H  181  1  0.26027400  0.54879200  0.98379500  1
  H  182  1  0.29005800  0.58133700  0.98892600  1
  H  183  1  0.28820700  0.57029600  0.06682400  1
  H  184  1  0.25872500  0.53783400  0.06159900  1
  H  185  1  0.26028000  0.48904000  0.05405900  1
  H  186  1  0.25872400  0.50001100  0.97625900  1
  H  187  1  0.28820400  0.46754800  0.97102500  1
  H  188  1  0.29006300  0.45649600  0.04892200  1
  H  191  1  0.14857000  0.54825600  0.94471400  1
  H  192  1  0.14853900  0.48960400  0.09311500  1
  H  194  1  0.30989400  0.60652700  0.04961300  1
  H  196  1  0.30990500  0.43132200  0.98822600  1
  H  222  1  0.45647200  0.95809300  0.21282700  1
  H  223  1  0.45134800  0.98882000  0.24440600  1
  H  224  1  0.53419400  0.97018300  0.21410300  1
  H  225  1  0.52900200  0.00073900  0.24553400  1
  H  226  1  0.52126000  0.04903500  0.24441100  1
  H  227  1  0.51612700  0.07976500  0.21283700  1
  H  228  1  0.43840800  0.06764300  0.21410600  1
  H  229  1  0.44361000  0.03708800  0.24553200  1
  H  230  1  0.45647800  0.05404500  0.29296000  1
  H  231  1  0.42393200  0.04891000  0.32274000  1
  H  232  1  0.43486100  0.97099800  0.32074400  1
  H  233  1  0.46732400  0.97623000  0.29126800  1
  H  234  1  0.51610500  0.98378700  0.29296300  1
  H  235  1  0.50526400  0.06160300  0.29128100  1
  H  236  1  0.53772400  0.06683000  0.32076100  1
  H  237  1  0.54864900  0.98891800  0.32274900  1
  H  240  1  0.45697400  0.09313100  0.18118400  1
  H  241  1  0.51562300  0.94470900  0.18117800  1
  H  243  1  0.39868400  0.98821500  0.34250300  1
  H  245  1  0.57390000  0.04961200  0.34251800  1
  H  271  1  0.45648600  0.07977200  0.82499800  1
  H  272  1  0.45135700  0.04904900  0.79341700  1
  H  273  1  0.53420700  0.06765400  0.82372800  1
  H  274  1  0.52900700  0.03710300  0.79229300  1
  H  275  1  0.52125600  0.98880700  0.79341500  1
  H  276  1  0.51612100  0.95808900  0.82500000  1
  H  277  1  0.43840600  0.97023700  0.82374300  1
  H  278  1  0.44360900  0.00077900  0.79230600  1
  H  279  1  0.45647400  0.98380700  0.74488000  1
  H  280  1  0.42392700  0.98893900  0.71510000  1
  H  281  1  0.43486100  0.06685000  0.71707900  1
  H  282  1  0.46732700  0.06162100  0.74655700  1
  H  283  1  0.51610400  0.05405700  0.74487500  1
  H  284  1  0.50527600  0.97623500  0.74656100  1
  H  285  1  0.53775200  0.97101300  0.71709400  1
  H  286  1  0.54866000  0.04892700  0.71510600  1
  H  289  1  0.45695800  0.94472300  0.85664700  1
  H  290  1  0.51564900  0.09316100  0.85663600  1
  H  292  1  0.39867600  0.04963100  0.69533200  1
  H  294  1  0.57394100  0.98824300  0.69536300  1
  H  320  1  0.78877600  0.95500300  0.48931600  1
  H  321  1  0.75955700  0.98805100  0.48394200  1
  H  322  1  0.78863000  0.96789800  0.56693700  1
  H  323  1  0.75965700  0.00086100  0.56148500  1
  H  324  1  0.75955800  0.04980600  0.55390900  1
  H  325  1  0.78877800  0.08285100  0.54853200  1
  H  326  1  0.78863900  0.06994000  0.47091200  1
  H  327  1  0.75966400  0.03698200  0.47636900  1
  H  328  1  0.71275400  0.05372600  0.48780900  1
  H  329  1  0.68138600  0.04842500  0.45693300  1
  H  330  1  0.68103700  0.97101600  0.47106600  1
  H  331  1  0.71225900  0.97640600  0.50174600  1
  H  332  1  0.71275600  0.98413000  0.55001200  1
  H  333  1  0.71225900  0.06146000  0.53610500  1
  H  334  1  0.68104100  0.06683700  0.56679500  1
  H  335  1  0.68139100  0.98942200  0.58089300  1
  H  338  1  0.80647900  0.10908400  0.48855600  1
  H  339  1  0.80646600  0.92875300  0.54928200  1
  H  341  1  0.65088300  0.98826400  0.44246500  1
  H  343  1  0.65087100  0.04956900  0.59536200  1
  H  369  1  0.18374600  0.08277000  0.48929900  1
  H  370  1  0.21295800  0.04971600  0.48393300  1
  H  371  1  0.18404900  0.07003100  0.56694400  1
  H  372  1  0.21301600  0.03706200  0.56150100  1
  H  373  1  0.21296600  0.98811900  0.55390200  1
  H  374  1  0.18375300  0.95506400  0.54853200  1
  H  375  1  0.18405200  0.96781300  0.47088600  1
  H  376  1  0.21301800  0.00078200  0.47633100  1
  H  377  1  0.25990900  0.98411600  0.48789900  1
  H  378  1  0.29126500  0.98940500  0.45700500  1
  H  379  1  0.29146100  0.06685100  0.47094600  1
  H  380  1  0.26025500  0.06147600  0.50164700  1
  H  381  1  0.25991200  0.05372300  0.54993400  1
  H  382  1  0.26025300  0.97636400  0.53618200  1
  H  383  1  0.29146200  0.97098800  0.56688300  1
  H  384  1  0.29126800  0.04843300  0.58082300  1
  H  387  1  0.16615100  0.92872700  0.48856500  1
  H  388  1  0.16614200  0.10911500  0.54926500  1
  H  390  1  0.32167700  0.04958000  0.44242400  1
  H  392  1  0.32168500  0.98826000  0.59540100  1
  H  418  1  0.45669300  0.21638800  0.08280000  1
  H  419  1  0.45131500  0.24560100  0.04974600  1
  H  420  1  0.53433200  0.21665900  0.07000600  1
  H  421  1  0.52887700  0.24562300  0.03703700  1
  H  422  1  0.52128100  0.24559600  0.98810400  1
  H  423  1  0.51590300  0.21639100  0.95504500  1
  H  424  1  0.43826500  0.21666700  0.96782800  1
  H  425  1  0.44371700  0.24562800  0.00080300  1
  H  426  1  0.45526700  0.29252300  0.98412300  1
  H  427  1  0.42438200  0.32388500  0.98941500  1
  H  428  1  0.43835900  0.32410700  0.06685500  1
  H  429  1  0.46905400  0.29289400  0.06147600  1
  H  430  1  0.51733600  0.29251900  0.05372100  1
  H  431  1  0.50354800  0.29289200  0.97636900  1
  H  432  1  0.53424500  0.32410000  0.97098900  1
  H  433  1  0.54822400  0.32387900  0.04842800  1
  H  436  1  0.45592800  0.19876300  0.92873800  1
  H  437  1  0.51666600  0.19877000  0.10911000  1
  H  439  1  0.40983100  0.35431900  0.04958500  1
  H  441  1  0.56277600  0.35430900  0.98825600  1
  H  467  1  0.45669000  0.82147800  0.95504300  1
  H  468  1  0.45131300  0.79224900  0.98808200  1
  H  469  1  0.53432300  0.82121700  0.96785600  1
  H  470  1  0.52886600  0.79223600  0.00080700  1
  H  471  1  0.52126900  0.79225400  0.04972800  1
  H  472  1  0.51589300  0.82147500  0.08277300  1
  H  473  1  0.43825600  0.82120500  0.06997500  1
  H  474  1  0.44371400  0.79222900  0.03701600  1
  H  475  1  0.45527000  0.74531100  0.05370600  1
  H  476  1  0.42440700  0.71393100  0.04842500  1
  H  477  1  0.43838000  0.71370200  0.97098700  1
  H  478  1  0.46905100  0.74493500  0.97636100  1
  H  479  1  0.51731900  0.74531100  0.98411000  1
  H  480  1  0.50353400  0.74493200  0.06145400  1
  H  481  1  0.53420700  0.71370000  0.06682900  1
  H  482  1  0.54818400  0.71393000  0.98939300  1
  H  485  1  0.45591300  0.83910600  0.10907300  1
  H  486  1  0.51666900  0.83911600  0.92875600  1
  H  488  1  0.40987000  0.68347600  0.98826500  1
  H  490  1  0.56271000  0.68346500  0.04954800  1
  H  516  1  0.05015600  0.54852500  0.82148700  1
  H  517  1  0.01711500  0.55390100  0.79226100  1
  H  518  1  0.03738600  0.47088600  0.82118900  1
  H  519  1  0.00443300  0.47633900  0.79220900  1
  H  520  1  0.95551700  0.48393900  0.79226900  1
  H  521  1  0.92247300  0.48931100  0.82149100  1
  H  522  1  0.93522400  0.56695600  0.82117700  1
  H  523  1  0.96818200  0.56150300  0.79220200  1
  H  524  1  0.95151100  0.54991700  0.74527800  1
  H  525  1  0.95679100  0.58078000  0.71389700  1
  H  526  1  0.03423300  0.56685100  0.71371300  1
  H  527  1  0.02886100  0.53617700  0.74494400  1
  H  528  1  0.02111100  0.48791100  0.74528700  1
  H  529  1  0.94376100  0.50165700  0.74494400  1
  H  530  1  0.93838700  0.47098300  0.71371300  1
  H  531  1  0.01583000  0.45704600  0.71390500  1
  H  534  1  0.89614500  0.54928700  0.83909900  1
  H  535  1  0.07646800  0.48854800  0.83910700  1
  H  537  1  0.01694500  0.59531900  0.68344800  1
  H  539  1  0.95567100  0.44250200  0.68346000  1
  H  565  1  0.92232200  0.54852000  0.21647600  1
  H  566  1  0.95535600  0.55389700  0.24570700  1
  H  567  1  0.93533800  0.47091900  0.21650000  1
  H  568  1  0.96828500  0.47637700  0.24548900  1
  H  569  1  0.01722400  0.48392800  0.24571300  1
  H  570  1  0.05026800  0.48931400  0.21649100  1
  H  571  1  0.03724200  0.56691200  0.21651900  1
  H  572  1  0.00428600  0.56145000  0.24549600  1
  H  573  1  0.02108800  0.55006900  0.29240900  1
  H  574  1  0.01579200  0.58094200  0.32378400  1
  H  575  1  0.93840400  0.56671100  0.32424700  1
  H  576  1  0.94378900  0.53603200  0.29302100  1
  H  577  1  0.95148800  0.48774900  0.29240100  1
  H  578  1  0.02878400  0.50179700  0.29302100  1
  H  579  1  0.03417000  0.47112300  0.32424900  1
  H  580  1  0.95678500  0.45687800  0.32377500  1
  H  583  1  0.07643900  0.54928900  0.19874300  1
  H  584  1  0.89615200  0.48854500  0.19871100  1
  H  586  1  0.95566200  0.59532400  0.35437800  1
  H  588  1  0.01692000  0.44248900  0.35436400  1
  H  591  1  0.93713100  0.37584500  0.35641600  1
  H  592  1  0.93971200  0.40814600  0.35015100  1
  H  593  1  0.92532500  0.39798300  0.37806600  1
  H  598  1  0.02870900  0.39270800  0.43964000  1
  H  599  1  0.04533200  0.40281800  0.41290900  1
  H  600  1  0.04052000  0.37050000  0.41797500  1
  H  607  1  0.03544700  0.66198000  0.35642300  1
  H  608  1  0.03286600  0.62967700  0.35015700  1
  H  609  1  0.04725300  0.63983800  0.37807200  1
  H  614  1  0.94387500  0.64510900  0.43965100  1
  H  615  1  0.92724900  0.63500200  0.41292000  1
  H  616  1  0.93206300  0.66732000  0.41798800  1
  H  623  1  0.93714800  0.66196100  0.68139400  1
  H  624  1  0.93973200  0.62965800  0.68765900  1
  H  625  1  0.92534400  0.63982200  0.65974400  1
  H  630  1  0.02872800  0.64510400  0.59817200  1
  H  631  1  0.04535200  0.63499500  0.62490300  1
  H  632  1  0.04053500  0.66731300  0.61983700  1
  H  639  1  0.03546900  0.37586400  0.68140600  1
  H  640  1  0.03288500  0.40816500  0.68766700  1
  H  641  1  0.04727200  0.39800100  0.65975100  1
  H  646  1  0.94388600  0.39271800  0.59818300  1
  H  647  1  0.92726300  0.40282900  0.62491400  1
  H  648  1  0.93207700  0.37051100  0.61985000  1
  H  655  1  0.62933800  0.35645100  0.06810100  1
  H  656  1  0.59703800  0.35018200  0.06550600  1
  H  657  1  0.60718900  0.37810600  0.07988300  1
  H  662  1  0.61250700  0.43962200  0.97646800  1
  H  663  1  0.60241000  0.41288100  0.95985300  1
  H  664  1  0.63472500  0.41795200  0.96468000  1
  H  671  1  0.34326600  0.35644900  0.96973800  1
  H  672  1  0.37556500  0.35018200  0.97233600  1
  H  673  1  0.36541100  0.37810700  0.95796000  1
  H  678  1  0.36007400  0.43961500  0.06138100  1
  H  679  1  0.37017400  0.41287200  0.07799500  1
  H  680  1  0.33786000  0.41794200  0.07316500  1
  H  687  1  0.34326500  0.68139500  0.06808700  1
  H  688  1  0.37556600  0.68765700  0.06549600  1
  H  689  1  0.36540700  0.65973800  0.07987900  1
  H  694  1  0.36009200  0.59819500  0.97647700  1
  H  695  1  0.37019900  0.62493000  0.95985700  1
  H  696  1  0.33788100  0.61986600  0.96468000  1
  H  703  1  0.62933100  0.68139600  0.96974000  1
  H  704  1  0.59703000  0.68766100  0.97232600  1
  H  705  1  0.60719100  0.65974400  0.95793900  1
  H  710  1  0.61247800  0.59817900  0.06132900  1
  H  711  1  0.60237100  0.62491200  0.07795200  1
  H  712  1  0.63468900  0.61984400  0.07313400  1
  H  719  1  0.64876400  0.06809700  0.37588200  1
  H  720  1  0.65503000  0.06550300  0.40818300  1
  H  721  1  0.62710800  0.07988200  0.39802900  1
  H  726  1  0.56558900  0.97646800  0.39270500  1
  H  727  1  0.59232900  0.95985300  0.40280500  1
  H  728  1  0.58726000  0.96467700  0.37049100  1
  H  735  1  0.64880100  0.96976900  0.66199000  1
  H  736  1  0.65506700  0.97235100  0.62968900  1
  H  737  1  0.62715000  0.95796300  0.63985000  1
  H  742  1  0.56557700  0.06134800  0.64511600  1
  H  743  1  0.59230800  0.07797200  0.63500900  1
  H  744  1  0.58723900  0.07316100  0.66732700  1
  H  751  1  0.32381600  0.06811400  0.66195500  1
  H  752  1  0.31754700  0.06551500  0.62965500  1
  H  753  1  0.34547000  0.07989600  0.63980600  1
  H  758  1  0.40699600  0.97648600  0.64514000  1
  H  759  1  0.38025800  0.95986800  0.63504200  1
  H  760  1  0.38532900  0.96469800  0.66735700  1
  H  767  1  0.32382700  0.96972000  0.37588200  1
  H  768  1  0.31756100  0.97231900  0.40818100  1
  H  769  1  0.34548500  0.95794300  0.39803100  1
  H  774  1  0.40699300  0.06136200  0.39269200  1
  H  775  1  0.38025100  0.07797600  0.40279000  1
  H  776  1  0.38532200  0.07314600  0.37047600  1
  H  783  1  0.44547900  0.86822100  0.85018300  1
  H  784  1  0.44717800  0.89960200  0.84051600  1
  H  785  1  0.42846700  0.89148600  0.86652700  1
  H  790  1  0.51980200  0.89675400  0.94532600  1
  H  791  1  0.53843900  0.91092200  0.92202700  1
  H  792  1  0.53907300  0.87817800  0.92565700  1
  H  799  1  0.52710600  0.16966300  0.85016600  1
  H  800  1  0.52541100  0.13828100  0.84050000  1
  H  801  1  0.54412600  0.14640000  0.86650600  1
  H  806  1  0.45280600  0.14111600  0.94532200  1
  H  807  1  0.43416600  0.12694800  0.92202500  1
  H  808  1  0.43352900  0.15969100  0.92565500  1
  H  815  1  0.44545100  0.16963100  0.18764200  1
  H  816  1  0.44716000  0.13825100  0.19730900  1
  H  817  1  0.42845700  0.14635800  0.17128800  1
  H  822  1  0.51983900  0.14112700  0.09253900  1
  H  823  1  0.53847200  0.12697200  0.11585000  1
  H  824  1  0.53908800  0.15971500  0.11221800  1
  H  831  1  0.52711400  0.86820300  0.18764000  1
  H  832  1  0.52541500  0.89958400  0.19730900  1
  H  833  1  0.54412200  0.89147000  0.17129500  1
  H  838  1  0.45277600  0.89674400  0.09251000  1
  H  839  1  0.43414300  0.91090900  0.11581400  1
  H  840  1  0.43350800  0.87816600  0.11218100  1
  H  847  1  0.13700800  0.85020200  0.55975700  1
  H  848  1  0.10562900  0.84053200  0.55805100  1
  H  849  1  0.11373700  0.86654800  0.57676000  1
  H  854  1  0.10849100  0.94532400  0.48540200  1
  H  855  1  0.09433800  0.92201700  0.46676400  1
  H  856  1  0.12707900  0.92565000  0.46614500  1
  H  863  1  0.83559600  0.85020900  0.47807000  1
  H  864  1  0.86697600  0.84054200  0.47977300  1
  H  865  1  0.85886500  0.86656000  0.46106800  1
  H  870  1  0.86410400  0.94532400  0.55243800  1
  H  871  1  0.87826700  0.92201700  0.57107100  1
  H  872  1  0.84552500  0.92564400  0.57169600  1
  H  879  1  0.83556100  0.18767000  0.55974100  1
  H  880  1  0.86694000  0.19734300  0.55804300  1
  H  881  1  0.85882800  0.17133400  0.57676000  1
  H  886  1  0.86411500  0.09251800  0.48543600  1
  H  887  1  0.87828600  0.11581600  0.46679900  1
  H  888  1  0.84554400  0.11218700  0.46615900  1
  H  895  1  0.13702600  0.18764700  0.47806800  1
  H  896  1  0.10564900  0.19732600  0.47977400  1
  H  897  1  0.11375100  0.17130800  0.46106500  1
  H  902  1  0.10848600  0.09252800  0.55241500  1
  H  903  1  0.09433100  0.11583500  0.57105400  1
  H  904  1  0.12707200  0.11219800  0.57167800  1
  H  911  1  0.15503500  0.55973100  0.86821100  1
  H  912  1  0.16470400  0.55803000  0.89959200  1
  H  913  1  0.13869200  0.57674400  0.89147700  1
  H  918  1  0.05988800  0.48541900  0.89675400  1
  H  919  1  0.08318700  0.46677800  0.91091900  1
  H  920  1  0.07955500  0.46614500  0.87817700  1
  H  927  1  0.15501700  0.47807100  0.16962300  1
  H  928  1  0.16467800  0.47977900  0.13824100  1
  H  929  1  0.13866000  0.46107700  0.14635300  1
  H  934  1  0.05989700  0.55244000  0.14111800  1
  H  935  1  0.08320200  0.57107300  0.12695500  1
  H  936  1  0.07957400  0.57170200  0.15969700  1
  H  943  1  0.81756100  0.55974500  0.16961900  1
  H  944  1  0.80789600  0.55804800  0.13823700  1
  H  945  1  0.83390700  0.57675900  0.14635600  1
  H  950  1  0.91271200  0.48542900  0.14108500  1
  H  951  1  0.88941600  0.46679500  0.12690700  1
  H  952  1  0.89303800  0.46615100  0.15965000  1
  H  959  1  0.81760400  0.47808000  0.86820700  1
  H  960  1  0.80793200  0.47977600  0.89958800  1
  H  961  1  0.83394800  0.46106800  0.89147500  1
  H  966  1  0.91271300  0.55244100  0.89673700  1
  H  967  1  0.88940300  0.57107100  0.91090000  1
  H  968  1  0.89303300  0.57169800  0.87815600  1
  H  998  1  0.04708600  0.45551400  0.05288170  1
  H  999  1  0.01634600  0.48708000  0.05802470  1
  H  1000  1  0.03509800  0.45693300  0.97514400  1
  H  1001  1  0.00453000  0.48834900  0.98035200  1
  H  1002  1  0.95625700  0.48707400  0.98812300  1
  H  1003  1  0.92552500  0.45550400  0.99326200  1
  H  1004  1  0.93749000  0.45693800  0.07100370  1
  H  1005  1  0.96805200  0.48835900  0.06579770  1
  H  1006  1  0.95117800  0.53577400  0.05279970  1
  H  1007  1  0.95630500  0.56554700  0.08535670  1
  H  1008  1  0.03423400  0.56339000  0.07459770  1
  H  1009  1  0.02901300  0.53392500  0.04212170  1
  H  1010  1  0.02141700  0.53576400  0.99333300  1
  H  1011  1  0.94358100  0.53392500  0.00401472  1
  H  1012  1  0.93836200  0.56338800  0.97153600  1
  H  1013  1  0.01629000  0.56553400  0.96077400  1
  H  1016  1  0.91205600  0.42396300  0.05244370  1
  H  1017  1  0.06053600  0.42396000  0.99370000  1
  H  1019  1  0.01699100  0.58520500  0.11072000  1
  H  1021  1  0.95560700  0.58519700  0.93541100  1
  H  1047  1  0.92550800  0.06780130  0.05288970  1
  H  1048  1  0.95622900  0.03622130  0.05802270  1
  H  1049  1  0.93755000  0.06644330  0.97516100  1
  H  1050  1  0.96809600  0.03501030  0.98036500  1
  H  1051  1  0.01636500  0.03622330  0.98812500  1
  H  1052  1  0.04708000  0.06780530  0.99325200  1
  H  1053  1  0.03506000  0.06643930  0.07098670  1
  H  1054  1  0.00451600  0.03500330  0.06578470  1
  H  1055  1  0.02142100  0.98756200  0.05282070  1
  H  1056  1  0.01630000  0.95777600  0.08536270  1
  H  1057  1  0.93837700  0.95987200  0.07455170  1
  H  1058  1  0.94359700  0.98935300  0.04209370  1
  H  1059  1  0.95118100  0.98757300  0.99331200  1
  H  1060  1  0.02900600  0.98935000  0.00404272  1
  H  1061  1  0.03422300  0.95987000  0.97158300  1
  H  1062  1  0.95630100  0.95778500  0.96077000  1
  H  1065  1  0.06051500  0.09939530  0.05242070  1
  H  1066  1  0.91209300  0.09939830  0.99372300  1
  H  1068  1  0.95561200  0.93806800  0.11068500  1
  H  1070  1  0.01698600  0.93807800  0.93544300  1
  H  1096  1  0.79244900  0.79147800  0.46228100  1
  H  1097  1  0.76086000  0.79661000  0.49299100  1
  H  1098  1  0.79108000  0.71374800  0.47431000  1
  H  1099  1  0.75963900  0.71895100  0.50484600  1
  H  1100  1  0.76086200  0.72671400  0.55311700  1
  H  1101  1  0.79244800  0.73184300  0.58383000  1
  H  1102  1  0.79107000  0.80957700  0.57181600  1
  H  1103  1  0.75963000  0.80437500  0.54127600  1
  H  1104  1  0.71219500  0.79140800  0.55817600  1
  H  1105  1  0.68240900  0.82395100  0.55305300  1
  H  1106  1  0.68450700  0.81314200  0.47512700  1
  H  1107  1  0.71398900  0.78068200  0.48035000  1
  H  1108  1  0.71219800  0.73189900  0.48794000  1
  H  1109  1  0.71399300  0.74263300  0.56576600  1
  H  1110  1  0.68451400  0.71017200  0.57099000  1
  H  1111  1  0.68241400  0.69935700  0.49306600  1
  H  1114  1  0.82402700  0.79101500  0.59727000  1
  H  1115  1  0.82404300  0.73231100  0.44886500  1
  H  1117  1  0.66270800  0.84927700  0.49236400  1
  H  1119  1  0.66271000  0.67403900  0.55376000  1
  H  1145  1  0.18027400  0.79148000  0.58398500  1
  H  1146  1  0.21186000  0.79661000  0.55327100  1
  H  1147  1  0.18140000  0.71378200  0.57171300  1
  H  1148  1  0.21284000  0.71898500  0.54117400  1
  H  1149  1  0.21186300  0.72670200  0.49289000  1
  H  1150  1  0.18028300  0.73184100  0.46216700  1
  H  1151  1  0.18141600  0.80954000  0.47444600  1
  H  1152  1  0.21285100  0.80433200  0.50499000  1
  H  1153  1  0.26027400  0.79153100  0.48794800  1
  H  1154  1  0.29005800  0.82407600  0.49307900  1
  H  1155  1  0.28820700  0.81303500  0.57097700  1
  H  1156  1  0.25872500  0.78057300  0.56575200  1
  H  1157  1  0.26028000  0.73177900  0.55821200  1
  H  1158  1  0.25872400  0.74275000  0.48041200  1
  H  1159  1  0.28820400  0.71028700  0.47517800  1
  H  1160  1  0.29006300  0.69923500  0.55307500  1
  H  1163  1  0.14857000  0.79099500  0.44886700  1
  H  1164  1  0.14853900  0.73234300  0.59726800  1
  H  1166  1  0.30989400  0.84926600  0.55376600  1
  H  1168  1  0.30990500  0.67406100  0.49237900  1
  H  1194  1  0.45647200  0.20083200  0.71698000  1
  H  1195  1  0.45134800  0.23155900  0.74855900  1
  H  1196  1  0.53419400  0.21292200  0.71825600  1
  H  1197  1  0.52900200  0.24347800  0.74968700  1
  H  1198  1  0.52126000  0.29177400  0.74856400  1
  H  1199  1  0.51612700  0.32250400  0.71699000  1
  H  1200  1  0.43840800  0.31038200  0.71825900  1
  H  1201  1  0.44361000  0.27982700  0.74968500  1
  H  1202  1  0.45647800  0.29678400  0.79711300  1
  H  1203  1  0.42393200  0.29164900  0.82689300  1
  H  1204  1  0.43486100  0.21373700  0.82489700  1
  H  1205  1  0.46732400  0.21896900  0.79542100  1
  H  1206  1  0.51610500  0.22652600  0.79711600  1
  H  1207  1  0.50526400  0.30434200  0.79543400  1
  H  1208  1  0.53772400  0.30956900  0.82491400  1
  H  1209  1  0.54864900  0.23165700  0.82690200  1
  H  1212  1  0.45697400  0.33587000  0.68533700  1
  H  1213  1  0.51562300  0.18744800  0.68533100  1
  H  1215  1  0.39868400  0.23095400  0.84665600  1
  H  1217  1  0.57390000  0.29235100  0.84667100  1
  H  1243  1  0.45648600  0.32251100  0.32915100  1
  H  1244  1  0.45135700  0.29178800  0.29757000  1
  H  1245  1  0.53420700  0.31039300  0.32788100  1
  H  1246  1  0.52900700  0.27984200  0.29644600  1
  H  1247  1  0.52125600  0.23154600  0.29756800  1
  H  1248  1  0.51612100  0.20082800  0.32915300  1
  H  1249  1  0.43840600  0.21297600  0.32789600  1
  H  1250  1  0.44360900  0.24351800  0.29645900  1
  H  1251  1  0.45647400  0.22654600  0.24903300  1
  H  1252  1  0.42392700  0.23167800  0.21925300  1
  H  1253  1  0.43486100  0.30958900  0.22123200  1
  H  1254  1  0.46732700  0.30436000  0.25071000  1
  H  1255  1  0.51610400  0.29679600  0.24902800  1
  H  1256  1  0.50527600  0.21897400  0.25071400  1
  H  1257  1  0.53775200  0.21375200  0.22124700  1
  H  1258  1  0.54866000  0.29166600  0.21925900  1
  H  1261  1  0.45695800  0.18746200  0.36080000  1
  H  1262  1  0.51564900  0.33590000  0.36078900  1
  H  1264  1  0.39867600  0.29237000  0.19948500  1
  H  1266  1  0.57394100  0.23098200  0.19951600  1
  H  1292  1  0.78877600  0.19774200  0.99346900  1
  H  1293  1  0.75955700  0.23079000  0.98809500  1
  H  1294  1  0.78863000  0.21063700  0.07108970  1
  H  1295  1  0.75965700  0.24360000  0.06563770  1
  H  1296  1  0.75955800  0.29254500  0.05806170  1
  H  1297  1  0.78877800  0.32559000  0.05268470  1
  H  1298  1  0.78863900  0.31267900  0.97506500  1
  H  1299  1  0.75966400  0.27972100  0.98052200  1
  H  1300  1  0.71275400  0.29646500  0.99196200  1
  H  1301  1  0.68138600  0.29116400  0.96108600  1
  H  1302  1  0.68103700  0.21375500  0.97521900  1
  H  1303  1  0.71225900  0.21914500  0.00589872  1
  H  1304  1  0.71275600  0.22686900  0.05416470  1
  H  1305  1  0.71225900  0.30419900  0.04025770  1
  H  1306  1  0.68104100  0.30957600  0.07094770  1
  H  1307  1  0.68139100  0.23216100  0.08504570  1
  H  1310  1  0.80647900  0.35182300  0.99270900  1
  H  1311  1  0.80646600  0.17149200  0.05343470  1
  H  1313  1  0.65088300  0.23100300  0.94661800  1
  H  1315  1  0.65087100  0.29230800  0.09951470  1
  H  1341  1  0.18374600  0.32550900  0.99345200  1
  H  1342  1  0.21295800  0.29245500  0.98808600  1
  H  1343  1  0.18404900  0.31277000  0.07109670  1
  H  1344  1  0.21301600  0.27980100  0.06565370  1
  H  1345  1  0.21296600  0.23085800  0.05805470  1
  H  1346  1  0.18375300  0.19780300  0.05268470  1
  H  1347  1  0.18405200  0.21055200  0.97503900  1
  H  1348  1  0.21301800  0.24352100  0.98048400  1
  H  1349  1  0.25990900  0.22685500  0.99205200  1
  H  1350  1  0.29126500  0.23214400  0.96115800  1
  H  1351  1  0.29146100  0.30959000  0.97509900  1
  H  1352  1  0.26025500  0.30421500  0.00579972  1
  H  1353  1  0.25991200  0.29646200  0.05408670  1
  H  1354  1  0.26025300  0.21910300  0.04033470  1
  H  1355  1  0.29146200  0.21372700  0.07103570  1
  H  1356  1  0.29126800  0.29117200  0.08497570  1
  H  1359  1  0.16615100  0.17146600  0.99271800  1
  H  1360  1  0.16614200  0.35185400  0.05341770  1
  H  1362  1  0.32167700  0.29231900  0.94657700  1
  H  1364  1  0.32168500  0.23099900  0.09955370  1
  H  1390  1  0.45669300  0.45912700  0.58695300  1
  H  1391  1  0.45131500  0.48834000  0.55389900  1
  H  1392  1  0.53433200  0.45939800  0.57415900  1
  H  1393  1  0.52887700  0.48836200  0.54119000  1
  H  1394  1  0.52128100  0.48833500  0.49225700  1
  H  1395  1  0.51590300  0.45913000  0.45919800  1
  H  1396  1  0.43826500  0.45940600  0.47198100  1
  H  1397  1  0.44371700  0.48836700  0.50495600  1
  H  1398  1  0.45526700  0.53526200  0.48827600  1
  H  1399  1  0.42438200  0.56662400  0.49356800  1
  H  1400  1  0.43835900  0.56684600  0.57100800  1
  H  1401  1  0.46905400  0.53563300  0.56562900  1
  H  1402  1  0.51733600  0.53525800  0.55787400  1
  H  1403  1  0.50354800  0.53563100  0.48052200  1
  H  1404  1  0.53424500  0.56683900  0.47514200  1
  H  1405  1  0.54822400  0.56661800  0.55258100  1
  H  1408  1  0.45592800  0.44150200  0.43289100  1
  H  1409  1  0.51666600  0.44150900  0.61326300  1
  H  1411  1  0.40983100  0.59705800  0.55373800  1
  H  1413  1  0.56277600  0.59704800  0.49240900  1
  H  1439  1  0.45669000  0.06421730  0.45919600  1
  H  1440  1  0.45131300  0.03498830  0.49223500  1
  H  1441  1  0.53432300  0.06395630  0.47200900  1
  H  1442  1  0.52886600  0.03497530  0.50496000  1
  H  1443  1  0.52126900  0.03499330  0.55388100  1
  H  1444  1  0.51589300  0.06421430  0.58692600  1
  H  1445  1  0.43825600  0.06394430  0.57412800  1
  H  1446  1  0.44371400  0.03496830  0.54116900  1
  H  1447  1  0.45527000  0.98805000  0.55785900  1
  H  1448  1  0.42440700  0.95667000  0.55257800  1
  H  1449  1  0.43838000  0.95644100  0.47514000  1
  H  1450  1  0.46905100  0.98767400  0.48051400  1
  H  1451  1  0.51731900  0.98805000  0.48826300  1
  H  1452  1  0.50353400  0.98767100  0.56560700  1
  H  1453  1  0.53420700  0.95643900  0.57098200  1
  H  1454  1  0.54818400  0.95666900  0.49354600  1
  H  1457  1  0.45591300  0.08184530  0.61322600  1
  H  1458  1  0.51666900  0.08185530  0.43290900  1
  H  1460  1  0.40987000  0.92621500  0.49241800  1
  H  1462  1  0.56271000  0.92620400  0.55370100  1
  H  1488  1  0.05015600  0.79126400  0.32564000  1
  H  1489  1  0.01711500  0.79664000  0.29641400  1
  H  1490  1  0.03738600  0.71362500  0.32534200  1
  H  1491  1  0.00443300  0.71907800  0.29636200  1
  H  1492  1  0.95551700  0.72667800  0.29642200  1
  H  1493  1  0.92247300  0.73205000  0.32564400  1
  H  1494  1  0.93522400  0.80969500  0.32533000  1
  H  1495  1  0.96818200  0.80424200  0.29635500  1
  H  1496  1  0.95151100  0.79265600  0.24943100  1
  H  1497  1  0.95679100  0.82351900  0.21805000  1
  H  1498  1  0.03423300  0.80959000  0.21786600  1
  H  1499  1  0.02886100  0.77891600  0.24909700  1
  H  1500  1  0.02111100  0.73065000  0.24944000  1
  H  1501  1  0.94376100  0.74439600  0.24909700  1
  H  1502  1  0.93838700  0.71372200  0.21786600  1
  H  1503  1  0.01583000  0.69978500  0.21805800  1
  H  1506  1  0.89614500  0.79202600  0.34325200  1
  H  1507  1  0.07646800  0.73128700  0.34326000  1
  H  1509  1  0.01694500  0.83805800  0.18760100  1
  H  1511  1  0.95567100  0.68524100  0.18761300  1
  H  1537  1  0.92232200  0.79125900  0.72062900  1
  H  1538  1  0.95535600  0.79663600  0.74986000  1
  H  1539  1  0.93533800  0.71365800  0.72065300  1
  H  1540  1  0.96828500  0.71911600  0.74964200  1
  H  1541  1  0.01722400  0.72666700  0.74986600  1
  H  1542  1  0.05026800  0.73205300  0.72064400  1
  H  1543  1  0.03724200  0.80965100  0.72067200  1
  H  1544  1  0.00428600  0.80418900  0.74964900  1
  H  1545  1  0.02108800  0.79280800  0.79656200  1
  H  1546  1  0.01579200  0.82368100  0.82793700  1
  H  1547  1  0.93840400  0.80945000  0.82840000  1
  H  1548  1  0.94378900  0.77877100  0.79717400  1
  H  1549  1  0.95148800  0.73048800  0.79655400  1
  H  1550  1  0.02878400  0.74453600  0.79717400  1
  H  1551  1  0.03417000  0.71386200  0.82840200  1
  H  1552  1  0.95678500  0.69961700  0.82792800  1
  H  1555  1  0.07643900  0.79202800  0.70289600  1
  H  1556  1  0.89615200  0.73128400  0.70286400  1
  H  1558  1  0.95566200  0.83806300  0.85853100  1
  H  1560  1  0.01692000  0.68522800  0.85851700  1
  H  1563  1  0.93713100  0.61858400  0.86056900  1
  H  1564  1  0.93971200  0.65088500  0.85430400  1
  H  1565  1  0.92532500  0.64072200  0.88221900  1
  H  1570  1  0.02870900  0.63544700  0.94379300  1
  H  1571  1  0.04533200  0.64555700  0.91706200  1
  H  1572  1  0.04052000  0.61323900  0.92212800  1
  H  1579  1  0.03544700  0.90471900  0.86057600  1
  H  1580  1  0.03286600  0.87241600  0.85431000  1
  H  1581  1  0.04725300  0.88257700  0.88222500  1
  H  1586  1  0.94387500  0.88784800  0.94380400  1
  H  1587  1  0.92724900  0.87774100  0.91707300  1
  H  1588  1  0.93206300  0.91005900  0.92214100  1
  H  1595  1  0.93714800  0.90470000  0.18554700  1
  H  1596  1  0.93973200  0.87239700  0.19181200  1
  H  1597  1  0.92534400  0.88256100  0.16389700  1
  H  1602  1  0.02872800  0.88784300  0.10232500  1
  H  1603  1  0.04535200  0.87773400  0.12905600  1
  H  1604  1  0.04053500  0.91005200  0.12399000  1
  H  1611  1  0.03546900  0.61860300  0.18555900  1
  H  1612  1  0.03288500  0.65090400  0.19182000  1
  H  1613  1  0.04727200  0.64074000  0.16390400  1
  H  1618  1  0.94388600  0.63545700  0.10233600  1
  H  1619  1  0.92726300  0.64556800  0.12906700  1
  H  1620  1  0.93207700  0.61325000  0.12400300  1
  H  1627  1  0.62933800  0.59919000  0.57225400  1
  H  1628  1  0.59703800  0.59292100  0.56965900  1
  H  1629  1  0.60718900  0.62084500  0.58403600  1
  H  1634  1  0.61250700  0.68236100  0.48062100  1
  H  1635  1  0.60241000  0.65562000  0.46400600  1
  H  1636  1  0.63472500  0.66069100  0.46883300  1
  H  1643  1  0.34326600  0.59918800  0.47389100  1
  H  1644  1  0.37556500  0.59292100  0.47648900  1
  H  1645  1  0.36541100  0.62084600  0.46211300  1
  H  1650  1  0.36007400  0.68235400  0.56553400  1
  H  1651  1  0.37017400  0.65561100  0.58214800  1
  H  1652  1  0.33786000  0.66068100  0.57731800  1
  H  1659  1  0.34326500  0.92413400  0.57224000  1
  H  1660  1  0.37556600  0.93039600  0.56964900  1
  H  1661  1  0.36540700  0.90247700  0.58403200  1
  H  1666  1  0.36009200  0.84093400  0.48063000  1
  H  1667  1  0.37019900  0.86766900  0.46401000  1
  H  1668  1  0.33788100  0.86260500  0.46883300  1
  H  1675  1  0.62933100  0.92413500  0.47389300  1
  H  1676  1  0.59703000  0.93040000  0.47647900  1
  H  1677  1  0.60719100  0.90248300  0.46209200  1
  H  1682  1  0.61247800  0.84091800  0.56548200  1
  H  1683  1  0.60237100  0.86765100  0.58210500  1
  H  1684  1  0.63468900  0.86258300  0.57728700  1
  H  1691  1  0.64876400  0.31083600  0.88003500  1
  H  1692  1  0.65503000  0.30824200  0.91233600  1
  H  1693  1  0.62710800  0.32262100  0.90218200  1
  H  1698  1  0.56558900  0.21920700  0.89685800  1
  H  1699  1  0.59232900  0.20259200  0.90695800  1
  H  1700  1  0.58726000  0.20741600  0.87464400  1
  H  1707  1  0.64880100  0.21250800  0.16614300  1
  H  1708  1  0.65506700  0.21509000  0.13384200  1
  H  1709  1  0.62715000  0.20070200  0.14400300  1
  H  1714  1  0.56557700  0.30408700  0.14926900  1
  H  1715  1  0.59230800  0.32071100  0.13916200  1
  H  1716  1  0.58723900  0.31590000  0.17148000  1
  H  1723  1  0.32381600  0.31085300  0.16610800  1
  H  1724  1  0.31754700  0.30825400  0.13380800  1
  H  1725  1  0.34547000  0.32263500  0.14395900  1
  H  1730  1  0.40699600  0.21922500  0.14929300  1
  H  1731  1  0.38025800  0.20260700  0.13919500  1
  H  1732  1  0.38532900  0.20743700  0.17151000  1
  H  1739  1  0.32382700  0.21245900  0.88003500  1
  H  1740  1  0.31756100  0.21505800  0.91233400  1
  H  1741  1  0.34548500  0.20068200  0.90218400  1
  H  1746  1  0.40699300  0.30410100  0.89684500  1
  H  1747  1  0.38025100  0.32071500  0.90694300  1
  H  1748  1  0.38532200  0.31588500  0.87462900  1
  H  1755  1  0.44547900  0.11096000  0.35433600  1
  H  1756  1  0.44717800  0.14234100  0.34466900  1
  H  1757  1  0.42846700  0.13422500  0.37068000  1
  H  1762  1  0.51980200  0.13949300  0.44947900  1
  H  1763  1  0.53843900  0.15366100  0.42618000  1
  H  1764  1  0.53907300  0.12091700  0.42981000  1
  H  1771  1  0.52710600  0.41240200  0.35431900  1
  H  1772  1  0.52541100  0.38102000  0.34465300  1
  H  1773  1  0.54412600  0.38913900  0.37065900  1
  H  1778  1  0.45280600  0.38385500  0.44947500  1
  H  1779  1  0.43416600  0.36968700  0.42617800  1
  H  1780  1  0.43352900  0.40243000  0.42980800  1
  H  1787  1  0.44545100  0.41237000  0.69179500  1
  H  1788  1  0.44716000  0.38099000  0.70146200  1
  H  1789  1  0.42845700  0.38909700  0.67544100  1
  H  1794  1  0.51983900  0.38386600  0.59669200  1
  H  1795  1  0.53847200  0.36971100  0.62000300  1
  H  1796  1  0.53908800  0.40245400  0.61637100  1
  H  1803  1  0.52711400  0.11094200  0.69179300  1
  H  1804  1  0.52541500  0.14232300  0.70146200  1
  H  1805  1  0.54412200  0.13420900  0.67544800  1
  H  1810  1  0.45277600  0.13948300  0.59666300  1
  H  1811  1  0.43414300  0.15364800  0.61996700  1
  H  1812  1  0.43350800  0.12090500  0.61633400  1
  H  1819  1  0.13700800  0.09294130  0.06390970  1
  H  1820  1  0.10562900  0.08327130  0.06220370  1
  H  1821  1  0.11373700  0.10928700  0.08091270  1
  H  1826  1  0.10849100  0.18806300  0.98955500  1
  H  1827  1  0.09433800  0.16475600  0.97091700  1
  H  1828  1  0.12707900  0.16838900  0.97029800  1
  H  1835  1  0.83559600  0.09294830  0.98222300  1
  H  1836  1  0.86697600  0.08328130  0.98392600  1
  H  1837  1  0.85886500  0.10929900  0.96522100  1
  H  1842  1  0.86410400  0.18806300  0.05659070  1
  H  1843  1  0.87826700  0.16475600  0.07522370  1
  H  1844  1  0.84552500  0.16838300  0.07584870  1
  H  1851  1  0.83556100  0.43040900  0.06389370  1
  H  1852  1  0.86694000  0.44008200  0.06219570  1
  H  1853  1  0.85882800  0.41407300  0.08091270  1
  H  1858  1  0.86411500  0.33525700  0.98958900  1
  H  1859  1  0.87828600  0.35855500  0.97095200  1
  H  1860  1  0.84554400  0.35492600  0.97031200  1
  H  1867  1  0.13702600  0.43038600  0.98222100  1
  H  1868  1  0.10564900  0.44006500  0.98392700  1
  H  1869  1  0.11375100  0.41404700  0.96521800  1
  H  1874  1  0.10848600  0.33526700  0.05656770  1
  H  1875  1  0.09433100  0.35857400  0.07520670  1
  H  1876  1  0.12707200  0.35493700  0.07583070  1
  H  1883  1  0.15503500  0.80247000  0.37236400  1
  H  1884  1  0.16470400  0.80076900  0.40374500  1
  H  1885  1  0.13869200  0.81948300  0.39563000  1
  H  1890  1  0.05988800  0.72815800  0.40090700  1
  H  1891  1  0.08318700  0.70951700  0.41507200  1
  H  1892  1  0.07955500  0.70888400  0.38233000  1
  H  1899  1  0.15501700  0.72081000  0.67377600  1
  H  1900  1  0.16467800  0.72251800  0.64239400  1
  H  1901  1  0.13866000  0.70381600  0.65050600  1
  H  1906  1  0.05989700  0.79517900  0.64527100  1
  H  1907  1  0.08320200  0.81381200  0.63110800  1
  H  1908  1  0.07957400  0.81444100  0.66385000  1
  H  1915  1  0.81756100  0.80248400  0.67377200  1
  H  1916  1  0.80789600  0.80078700  0.64239000  1
  H  1917  1  0.83390700  0.81949800  0.65050900  1
  H  1922  1  0.91271200  0.72816800  0.64523800  1
  H  1923  1  0.88941600  0.70953400  0.63106000  1
  H  1924  1  0.89303800  0.70889000  0.66380300  1
  H  1931  1  0.81760400  0.72081900  0.37236000  1
  H  1932  1  0.80793200  0.72251500  0.40374100  1
  H  1933  1  0.83394800  0.70380700  0.39562800  1
  H  1938  1  0.91271300  0.79518000  0.40089000  1
  H  1939  1  0.88940300  0.81381000  0.41505300  1
  H  1940  1  0.89303300  0.81443700  0.38230900  1
  C  1  1  0.97673100  0.32460700  0.45809600  1
  C  2  1  0.95610300  0.31474100  0.47139100  1
  C  3  1  0.95921400  0.29695900  0.49057400  1
  C  4  1  0.98297000  0.28709300  0.49709100  1
  C  5  1  0.00363600  0.29813200  0.48450600  1
  C  6  1  0.00067600  0.31606800  0.46534100  1
  C  7  1  0.98629500  0.26866400  0.51891500  1
  C  8  1  0.98962300  0.28709700  0.54073600  1
  C  9  1  0.01338100  0.29696300  0.54725200  1
  C  10  1  0.01649200  0.31475100  0.56643100  1
  C  11  1  0.99586500  0.32461600  0.57972900  1
  C  12  1  0.97192000  0.31608200  0.57248300  1
  C  13  1  0.96895900  0.29814200  0.55331900  1
  C  14  1  0.96452300  0.25015600  0.52236600  1
  C  15  1  0.00807100  0.25015400  0.51548000  1
  C  16  1  0.02069100  0.23901400  0.53607500  1
  C  17  1  0.03888900  0.22010200  0.53310300  1
  C  18  1  0.04499500  0.21053800  0.50923200  1
  C  19  1  0.03195800  0.22083000  0.48864900  1
  C  20  1  0.01391300  0.23977500  0.49175300  1
  C  21  1  0.95190200  0.23901800  0.50176900  1
  C  22  1  0.93369500  0.22011600  0.50473900  1
  C  23  1  0.92760800  0.21053400  0.52860600  1
  C  24  1  0.94063300  0.22083500  0.54919300  1
  C  25  1  0.95867300  0.23978300  0.54609100  1
  C  42  1  0.06187300  0.19079700  0.50544000  1
  C  43  1  0.97267600  0.34168100  0.43857600  1
  C  46  1  0.99992100  0.34169000  0.59924700  1
  C  48  1  0.91072500  0.19079600  0.53239500  1
  C  50  1  0.99585900  0.71320700  0.45811300  1
  C  51  1  0.01648400  0.72305600  0.47142200  1
  C  52  1  0.01337300  0.74084700  0.49059900  1
  C  53  1  0.98962400  0.75075900  0.49708400  1
  C  54  1  0.96896200  0.73971000  0.48450000  1
  C  55  1  0.97191700  0.72176400  0.46534300  1
  C  56  1  0.98630100  0.76917400  0.51891500  1
  C  57  1  0.98297700  0.75075500  0.54074500  1
  C  58  1  0.95922900  0.74084600  0.54723000  1
  C  59  1  0.95611800  0.72305000  0.56640100  1
  C  60  1  0.97674200  0.71320000  0.57971200  1
  C  61  1  0.00068400  0.72175400  0.57248300  1
  C  62  1  0.00364000  0.73970300  0.55332700  1
  C  63  1  0.00808400  0.78767000  0.52236200  1
  C  64  1  0.96451900  0.78767200  0.51548100  1
  C  65  1  0.95190100  0.79882400  0.53607500  1
  C  66  1  0.93370300  0.81773700  0.53310800  1
  C  67  1  0.92762100  0.82732900  0.50924300  1
  C  68  1  0.94068300  0.81706100  0.48866600  1
  C  69  1  0.95871000  0.79810000  0.49176600  1
  C  70  1  0.02070200  0.79881700  0.50176900  1
  C  71  1  0.03889600  0.81773400  0.50473200  1
  C  72  1  0.04497200  0.82733300  0.52859500  1
  C  73  1  0.03193000  0.81705100  0.54917800  1
  C  74  1  0.01390200  0.79809300  0.54607800  1
  C  91  1  0.91074600  0.84707300  0.50545400  1
  C  92  1  0.99991200  0.69612700  0.43859800  1
  C  95  1  0.97268700  0.69612300  0.59922900  1
  C  97  1  0.06185600  0.84707100  0.53238000  1
  C  99  1  0.68058100  0.45811500  0.02847300  1
  C  100  1  0.69043600  0.47142400  0.04909600  1
  C  101  1  0.70822500  0.49060100  0.04598200  1
  C  102  1  0.71813300  0.49708700  0.02223200  1
  C  103  1  0.70708200  0.48450100  0.00156900  1
  C  104  1  0.68913400  0.46534400  0.00452900  1
  C  105  1  0.73654700  0.51891800  0.01890400  1
  C  106  1  0.71812700  0.54074600  0.01557900  1
  C  107  1  0.70821900  0.54723200  0.99182800  1
  C  108  1  0.69042300  0.56640200  0.98871700  1
  C  109  1  0.68057000  0.57971300  0.00934000  1
  C  110  1  0.68912600  0.57248400  0.03328500  1
  C  111  1  0.70707500  0.55332800  0.03624200  1
  C  112  1  0.75504400  0.52236500  0.04068500  1
  C  113  1  0.75504100  0.51548100  0.99711900  1
  C  114  1  0.76619800  0.53607500  0.98450400  1
  C  115  1  0.78510500  0.53310700  0.96630300  1
  C  116  1  0.79470300  0.50924400  0.96022800  1
  C  117  1  0.78442800  0.48866400  0.97328000  1
  C  118  1  0.76546800  0.49176500  0.99130900  1
  C  119  1  0.76619900  0.50177100  0.05329800  1
  C  120  1  0.78510400  0.50473600  0.07150500  1
  C  121  1  0.79470600  0.52859900  0.07757600  1
  C  122  1  0.78442300  0.54918200  0.06453400  1
  C  123  1  0.76546300  0.54608000  0.04650500  1
  C  140  1  0.81445500  0.50545700  0.94336200  1
  C  141  1  0.66350400  0.43860100  0.03253100  1
  C  144  1  0.66349600  0.59923200  0.00528500  1
  C  146  1  0.81444400  0.53238800  0.09445600  1
  C  148  1  0.29201900  0.45811700  0.00937400  1
  C  149  1  0.28223100  0.47149200  0.98876000  1
  C  150  1  0.26444400  0.49066900  0.99187800  1
  C  151  1  0.25447500  0.49708900  0.01562200  1
  C  152  1  0.26544500  0.48443000  0.03627900  1
  C  153  1  0.28339500  0.46527300  0.03331500  1
  C  154  1  0.23605100  0.51891900  0.01893100  1
  C  155  1  0.25447500  0.54074700  0.02223500  1
  C  156  1  0.26444800  0.54717000  0.04597600  1
  C  157  1  0.28224100  0.56634300  0.04908900  1
  C  158  1  0.29202100  0.57971700  0.02847300  1
  C  159  1  0.28339400  0.57256000  0.00453400  1
  C  160  1  0.26544500  0.55340400  0.00157500  1
  C  161  1  0.21754500  0.52234200  0.99715300  1
  C  162  1  0.21756000  0.51549000  0.04071800  1
  C  163  1  0.20647300  0.53607800  0.05339900  1
  C  164  1  0.18754700  0.53311400  0.07158400  1
  C  165  1  0.17789200  0.50926000  0.07760600  1
  C  166  1  0.18810700  0.48868800  0.06449100  1
  C  167  1  0.20706900  0.49178800  0.04646600  1
  C  168  1  0.20647400  0.50175500  0.98445800  1
  C  169  1  0.18755000  0.50472600  0.96627300  1
  C  170  1  0.17789100  0.52858000  0.96026000  1
  C  171  1  0.18810800  0.54915200  0.97337400  1
  C  172  1  0.20706400  0.54605000  0.99140600  1
  C  189  1  0.15814000  0.50547900  0.09447400  1
  C  190  1  0.30909400  0.43860200  0.00531100  1
  C  193  1  0.30909300  0.59923500  0.03253200  1
  C  195  1  0.15815600  0.53236900  0.94337300  1
  C  197  1  0.54709600  0.02847300  0.32463700  1
  C  198  1  0.53375600  0.04909200  0.31481400  1
  C  199  1  0.51458000  0.04597700  0.29702500  1
  C  200  1  0.50812300  0.02222900  0.28709300  1
  C  201  1  0.52074300  0.00156900  0.29810200  1
  C  202  1  0.53990100  0.00453000  0.31605000  1
  C  203  1  0.48629500  0.01891900  0.26866700  1
  C  204  1  0.46446500  0.01560600  0.28708700  1
  C  205  1  0.45800900  0.99185500  0.29701500  1
  C  206  1  0.43883100  0.98873900  0.31480200  1
  C  207  1  0.42549100  0.00935700  0.32463000  1
  C  208  1  0.43268400  0.03330000  0.31604400  1
  C  209  1  0.45184100  0.03626400  0.29809600  1
  C  210  1  0.48287200  0.04070200  0.25016600  1
  C  211  1  0.48974000  0.99714200  0.25016100  1
  C  212  1  0.46914100  0.98450100  0.23904900  1
  C  213  1  0.47210200  0.96630100  0.22013600  1
  C  214  1  0.49596100  0.96023400  0.21051900  1
  C  215  1  0.51654200  0.97330400  0.22076900  1
  C  216  1  0.51345200  0.99133000  0.23973200  1
  C  217  1  0.50346400  0.05335700  0.23906000  1
  C  218  1  0.50049900  0.07154400  0.22013600  1
  C  219  1  0.47663700  0.07761400  0.21052900  1
  C  220  1  0.45606100  0.06453100  0.22077200  1
  C  221  1  0.45915900  0.04649400  0.23972500  1
  C  238  1  0.49974000  0.94336300  0.19077000  1
  C  239  1  0.56660800  0.03253200  0.34171700  1
  C  242  1  0.40597500  0.00529400  0.34170400  1
  C  244  1  0.47285400  0.09448400  0.19077900  1
  C  246  1  0.54710500  0.00937300  0.71320800  1
  C  247  1  0.53376900  0.98875200  0.72303000  1
  C  248  1  0.51458900  0.99186300  0.74081500  1
  C  249  1  0.50811600  0.01561300  0.75073000  1
  C  250  1  0.52074200  0.03627700  0.73973400  1
  C  251  1  0.53990700  0.03331600  0.72179400  1
  C  252  1  0.48629600  0.01893500  0.76916400  1
  C  253  1  0.46446400  0.02224700  0.75074500  1
  C  254  1  0.45800900  0.04599500  0.74081200  1
  C  255  1  0.43883300  0.04911100  0.72302400  1
  C  256  1  0.42549000  0.02849300  0.71320300  1
  C  257  1  0.43268000  0.00455000  0.72179200  1
  C  258  1  0.45183800  0.00158700  0.73974000  1
  C  259  1  0.48287100  0.99715400  0.78766800  1
  C  260  1  0.48974600  0.04071200  0.78766600  1
  C  261  1  0.46915100  0.05337000  0.79876900  1
  C  262  1  0.47211600  0.07157100  0.81768000  1
  C  263  1  0.49597400  0.07760900  0.82731700  1
  C  264  1  0.51655400  0.06453900  0.81706400  1
  C  265  1  0.51345800  0.04651000  0.79810400  1
  C  266  1  0.50346100  0.98449800  0.79877600  1
  C  267  1  0.50049200  0.96629400  0.81768600  1
  C  268  1  0.47663300  0.96026200  0.82732100  1
  C  269  1  0.45605600  0.97334000  0.81707100  1
  C  270  1  0.45915800  0.99137200  0.79811300  1
  C  287  1  0.49975900  0.09449500  0.84705400  1
  C  288  1  0.56663200  0.00531700  0.69614400  1
  C  291  1  0.40597300  0.03255300  0.69612700  1
  C  293  1  0.47284500  0.94338000  0.84706100  1
  C  295  1  0.67821600  0.02880000  0.57776300  1
  C  296  1  0.68796700  0.04922300  0.56405800  1
  C  297  1  0.70679400  0.04603600  0.54591700  1
  C  298  1  0.71769100  0.02240800  0.54067200  1
  C  299  1  0.70708700  0.00192100  0.55391500  1
  C  300  1  0.68824300  0.00498000  0.57217600  1
  C  301  1  0.73622100  0.01892600  0.51891900  1
  C  302  1  0.71771000  0.01545500  0.49715300  1
  C  303  1  0.70679600  0.99182600  0.49192600  1
  C  304  1  0.68796700  0.98862900  0.47379000  1
  C  305  1  0.67821000  0.00904800  0.46008300  1
  C  306  1  0.68822600  0.03287000  0.46566900  1
  C  307  1  0.70708100  0.03593300  0.48391800  1
  C  308  1  0.75462100  0.04076800  0.51556200  1
  C  309  1  0.75462400  0.99708900  0.52229300  1
  C  310  1  0.76501200  0.98380100  0.50172400  1
  C  311  1  0.78265500  0.96438000  0.50479900  1
  C  312  1  0.79152100  0.95760000  0.52874600  1
  C  313  1  0.78245400  0.97164400  0.54922800  1
  C  314  1  0.76499700  0.99110800  0.54598100  1
  C  315  1  0.76501200  0.05405500  0.53612700  1
  C  316  1  0.78265100  0.07347700  0.53304800  1
  C  317  1  0.79152200  0.08024900  0.50910300  1
  C  318  1  0.78245500  0.06620200  0.48862100  1
  C  319  1  0.76499900  0.04674100  0.49187200  1
  C  336  1  0.80784600  0.93754400  0.53297400  1
  C  337  1  0.65878800  0.03275700  0.59501100  1
  C  340  1  0.65878900  0.00508200  0.44282700  1
  C  342  1  0.80784800  0.10030300  0.50487000  1
  C  344  1  0.29436600  0.00904000  0.57777100  1
  C  345  1  0.28457600  0.98861100  0.56410400  1
  C  346  1  0.26575000  0.99179700  0.54596200  1
  C  347  1  0.25490000  0.01543700  0.54067000  1
  C  348  1  0.26555800  0.03593000  0.55386200  1
  C  349  1  0.28439300  0.03287000  0.57213100  1
  C  350  1  0.23637500  0.01892200  0.51891500  1
  C  351  1  0.25490000  0.02240400  0.49716000  1
  C  352  1  0.26574800  0.04604300  0.49186500  1
  C  353  1  0.28457700  0.04922800  0.47372600  1
  C  354  1  0.29437100  0.02879600  0.46006400  1
  C  355  1  0.28439800  0.00496700  0.46570700  1
  C  356  1  0.26555200  0.00191100  0.48396400  1
  C  357  1  0.21796400  0.99708900  0.51554300  1
  C  358  1  0.21797400  0.04076100  0.52229100  1
  C  359  1  0.20754100  0.05400400  0.50171600  1
  C  360  1  0.18990000  0.07342700  0.50479000  1
  C  361  1  0.18108100  0.08025500  0.52873900  1
  C  362  1  0.19019700  0.06625500  0.54923200  1
  C  363  1  0.20764800  0.04678800  0.54598800  1
  C  364  1  0.20754200  0.98384000  0.53611800  1
  C  365  1  0.18990600  0.96441300  0.53304300  1
  C  366  1  0.18108100  0.95759200  0.50909200  1
  C  367  1  0.19019500  0.97159400  0.48859900  1
  C  368  1  0.20764400  0.99106200  0.49184400  1
  C  385  1  0.16476000  0.10031400  0.53296100  1
  C  386  1  0.31378700  0.00508200  0.59502600  1
  C  389  1  0.31378600  0.03275600  0.44280500  1
  C  391  1  0.16476200  0.93753100  0.50486800  1
  C  393  1  0.54515200  0.32698900  0.00903800  1
  C  394  1  0.53148700  0.31719700  0.98860900  1
  C  395  1  0.51333600  0.29837900  0.99180000  1
  C  396  1  0.50805600  0.28752200  0.01543700  1
  C  397  1  0.52125900  0.29816700  0.03592700  1
  C  398  1  0.53951700  0.31701500  0.03286700  1
  C  399  1  0.48630100  0.26899600  0.01892300  1
  C  400  1  0.46454600  0.28752300  0.02240800  1
  C  401  1  0.45926400  0.29838300  0.04604600  1
  C  402  1  0.44112800  0.31721300  0.04923300  1
  C  403  1  0.42745400  0.32699700  0.02880500  1
  C  404  1  0.43307400  0.31700500  0.00497900  1
  C  405  1  0.45134300  0.29817000  0.00191600  1
  C  406  1  0.48292500  0.25059000  0.99708800  1
  C  407  1  0.48967000  0.25059100  0.04075900  1
  C  408  1  0.46910100  0.24017800  0.05402300  1
  C  409  1  0.47218000  0.22254000  0.07344800  1
  C  410  1  0.49613200  0.21370800  0.08025500  1
  C  411  1  0.51661700  0.22281400  0.06624100  1
  C  412  1  0.51336800  0.24026300  0.04677300  1
  C  413  1  0.50349600  0.24017800  0.98382500  1
  C  414  1  0.50041700  0.22253600  0.96440200  1
  C  415  1  0.47646400  0.21371800  0.95758100  1
  C  416  1  0.45597700  0.22281900  0.97159800  1
  C  417  1  0.45922600  0.24026700  0.99106800  1
  C  434  1  0.50036000  0.19738700  0.10031300  1
  C  435  1  0.56240500  0.34641100  0.00507800  1
  C  438  1  0.41019900  0.34641700  0.03276500  1
  C  440  1  0.47223800  0.19738900  0.93752700  1
  C  442  1  0.54512400  0.71082400  0.02878200  1
  C  443  1  0.53146000  0.72061600  0.04921200  1
  C  444  1  0.51332900  0.73945300  0.04602400  1
  C  445  1  0.50805800  0.75033900  0.02239400  1
  C  446  1  0.52124600  0.73966700  0.00190300  1
  C  447  1  0.53949800  0.72081100  0.00495800  1
  C  448  1  0.48629400  0.76884700  0.01890900  1
  C  449  1  0.46453300  0.75033400  0.01542300  1
  C  450  1  0.45926700  0.73944300  0.99179400  1
  C  451  1  0.44114200  0.72060300  0.98860700  1
  C  452  1  0.42747000  0.71081800  0.00903600  1
  C  453  1  0.43308900  0.72081600  0.03285900  1
  C  454  1  0.45134900  0.73965900  0.03591300  1
  C  455  1  0.48291600  0.78724300  0.04075000  1
  C  456  1  0.48966400  0.78724400  0.99706500  1
  C  457  1  0.46909800  0.79767600  0.98381000  1
  C  458  1  0.47217700  0.81532100  0.96439400  1
  C  459  1  0.49612600  0.82416000  0.95759400  1
  C  460  1  0.51661100  0.81505900  0.97161300  1
  C  461  1  0.51335800  0.79759700  0.99107000  1
  C  462  1  0.50348300  0.79767900  0.05400200  1
  C  463  1  0.50040600  0.81532300  0.07342100  1
  C  464  1  0.47645400  0.82414800  0.08023500  1
  C  465  1  0.45596800  0.81504900  0.06621400  1
  C  466  1  0.45922100  0.79759200  0.04675100  1
  C  483  1  0.50035700  0.84048900  0.93754200  1
  C  484  1  0.56236200  0.69138800  0.03273700  1
  C  487  1  0.41022500  0.69138900  0.00507900  1
  C  489  1  0.47222500  0.84047900  0.10028600  1
  C  491  1  0.97643700  0.46008200  0.71082200  1
  C  492  1  0.95600500  0.47373700  0.72062300  1
  C  493  1  0.95919300  0.49186800  0.73945800  1
  C  494  1  0.98282600  0.49715200  0.75033100  1
  C  495  1  0.00331600  0.48397900  0.73964500  1
  C  496  1  0.00026300  0.46571600  0.72080200  1
  C  497  1  0.98631000  0.51891700  0.76884100  1
  C  498  1  0.98979600  0.54067800  0.75032700  1
  C  499  1  0.01342700  0.54595600  0.73944700  1
  C  500  1  0.01661200  0.56408300  0.72060600  1
  C  501  1  0.99618300  0.57774900  0.71081600  1
  C  502  1  0.97235800  0.57211000  0.72079300  1
  C  503  1  0.96930500  0.55384900  0.73963900  1
  C  504  1  0.96447000  0.52229500  0.78723700  1
  C  505  1  0.00815200  0.51554700  0.78723700  1
  C  506  1  0.02139500  0.53611600  0.79768000  1
  C  507  1  0.04080800  0.53303900  0.81533100  1
  C  508  1  0.04762500  0.50908600  0.82415400  1
  C  509  1  0.03361900  0.48859900  0.81503800  1
  C  510  1  0.01416100  0.49185000  0.79757700  1
  C  511  1  0.95123200  0.50172400  0.79768400  1
  C  512  1  0.93181400  0.50480200  0.81532900  1
  C  513  1  0.92498800  0.52875300  0.82414300  1
  C  514  1  0.93899400  0.54924200  0.81502900  1
  C  515  1  0.95845500  0.54599200  0.79757200  1
  C  532  1  0.06767900  0.50485800  0.84048100  1
  C  533  1  0.97248100  0.44284500  0.69138400  1
  C  536  1  0.00013600  0.59498000  0.69137500  1
  C  538  1  0.90493800  0.53297900  0.84047500  1
  C  540  1  0.99615100  0.46007700  0.32700700  1
  C  541  1  0.01656400  0.47381600  0.31728600  1
  C  542  1  0.01337100  0.49195200  0.29845500  1
  C  543  1  0.98975200  0.49714900  0.28750700  1
  C  544  1  0.96927700  0.48388400  0.29810200  1
  C  545  1  0.97233800  0.46563000  0.31695400  1
  C  546  1  0.98628700  0.51891400  0.26899400  1
  C  547  1  0.98282200  0.54067700  0.28750900  1
  C  548  1  0.95920300  0.54587800  0.29845500  1
  C  549  1  0.95601300  0.56400100  0.31729700  1
  C  550  1  0.97642400  0.57775100  0.32700900  1
  C  551  1  0.00023900  0.57219100  0.31695900  1
  C  552  1  0.00329900  0.55394000  0.29810800  1
  C  553  1  0.00812700  0.52227000  0.25059200  1
  C  554  1  0.96444100  0.51555300  0.25059800  1
  C  555  1  0.95112800  0.53611700  0.24023300  1
  C  556  1  0.93171500  0.53304000  0.22258200  1
  C  557  1  0.92497600  0.50909700  0.21367500  1
  C  558  1  0.93905000  0.48862300  0.22271200  1
  C  559  1  0.95851100  0.49187500  0.24016900  1
  C  560  1  0.02145000  0.50170900  0.24023600  1
  C  561  1  0.04086900  0.50479200  0.22259300  1
  C  562  1  0.04760500  0.52873500  0.21369000  1
  C  563  1  0.03352700  0.54920700  0.22272500  1
  C  564  1  0.01406700  0.54595300  0.24018000  1
  C  581  1  0.90492600  0.50486400  0.19734600  1
  C  582  1  0.00011200  0.44283300  0.34643700  1
  C  585  1  0.97246800  0.59498800  0.34644600  1
  C  587  1  0.06766100  0.53297300  0.19736800  1
  C  589  1  0.94036800  0.39409900  0.36487600  1
  C  590  1  0.96450400  0.39386400  0.37827200  1
  C  595  1  0.98796000  0.37388300  0.41138500  1
  C  596  1  0.00831300  0.38990000  0.40597000  1
  C  597  1  0.03210700  0.38896000  0.41990200  1
  C  602  1  0.98487100  0.40992700  0.37288100  1
  C  605  1  0.03221100  0.64372400  0.36488200  1
  C  606  1  0.00807600  0.64395800  0.37827900  1
  C  611  1  0.98462300  0.66393500  0.41139600  1
  C  612  1  0.96426900  0.64792100  0.40598100  1
  C  613  1  0.94047600  0.64886000  0.41991500  1
  C  618  1  0.98770800  0.62789400  0.37289000  1
  C  621  1  0.94038600  0.64370500  0.67293400  1
  C  622  1  0.96452200  0.64394200  0.65953900  1
  C  627  1  0.98797600  0.66392500  0.62642300  1
  C  628  1  0.00833100  0.64791100  0.63184000  1
  C  629  1  0.03212500  0.64885200  0.61790900  1
  C  634  1  0.98489100  0.62788100  0.66492700  1
  C  637  1  0.03223000  0.39411800  0.67294300  1
  C  638  1  0.00809400  0.39387900  0.65955000  1
  C  643  1  0.98463800  0.37389700  0.62643600  1
  C  644  1  0.96428400  0.38991100  0.63185300  1
  C  645  1  0.94049000  0.38897000  0.61792200  1
  C  650  1  0.98772400  0.40994300  0.66493900  1
  C  653  1  0.61108400  0.36490600  0.06485000  1
  C  654  1  0.61133000  0.37828900  0.04070600  1
  C  659  1  0.63131700  0.41139200  0.01724200  1
  C  660  1  0.61531400  0.40596300  0.99688200  1
  C  661  1  0.61626200  0.41988300  0.97308200  1
  C  666  1  0.59527700  0.37288500  0.02033300  1
  C  669  1  0.36151800  0.36490600  0.97299100  1
  C  670  1  0.36126800  0.37828600  0.99713600  1
  C  675  1  0.34127300  0.41138600  0.02060200  1
  C  676  1  0.35727700  0.40595800  0.04096300  1
  C  677  1  0.35632300  0.41987400  0.06476400  1
  C  682  1  0.37731700  0.37288300  0.01751200  1
  C  685  1  0.36151900  0.67293400  0.06484100  1
  C  686  1  0.36127400  0.65954600  0.04070100  1
  C  691  1  0.34128200  0.62644000  0.01724200  1
  C  692  1  0.35729100  0.63185900  0.99688400  1
  C  693  1  0.35634400  0.61793300  0.97308600  1
  C  698  1  0.37733000  0.66494000  0.02033000  1
  C  701  1  0.61107700  0.67293600  0.97298000  1
  C  702  1  0.61131400  0.65954000  0.99711700  1
  C  707  1  0.63129800  0.62642700  0.02057400  1
  C  708  1  0.61528700  0.63184700  0.04092900  1
  C  709  1  0.61623000  0.61791700  0.06472400  1
  C  714  1  0.59525500  0.66493400  0.01748800  1
  C  717  1  0.64030500  0.06484700  0.39413600  1
  C  718  1  0.62692300  0.04070400  0.39388900  1
  C  723  1  0.59382100  0.01724100  0.37389900  1
  C  724  1  0.59924700  0.99688100  0.38990300  1
  C  725  1  0.58532900  0.97308200  0.38895400  1
  C  730  1  0.63232500  0.02033200  0.40994200  1
  C  733  1  0.64034000  0.97300700  0.64373600  1
  C  734  1  0.62694500  0.99714300  0.64397000  1
  C  739  1  0.59383000  0.02060000  0.66394700  1
  C  740  1  0.59924700  0.04095300  0.64793000  1
  C  741  1  0.58531400  0.06474600  0.64886700  1
  C  746  1  0.63233700  0.01751000  0.62790600  1
  C  749  1  0.33227200  0.06486200  0.64370100  1
  C  750  1  0.34565800  0.04071900  0.64395100  1
  C  755  1  0.37876200  0.01726000  0.66394300  1
  C  756  1  0.37333600  0.99689900  0.64794100  1
  C  757  1  0.38725800  0.97309900  0.64889300  1
  C  762  1  0.34025600  0.02034400  0.62790200  1
  C  765  1  0.33228600  0.97297400  0.39413600  1
  C  766  1  0.34566600  0.99711900  0.39388500  1
  C  771  1  0.37876400  0.02058400  0.37389100  1
  C  772  1  0.37333500  0.04094400  0.38989100  1
  C  773  1  0.38725300  0.06474500  0.38893900  1
  C  778  1  0.34026100  0.01749500  0.40993400  1
  C  781  1  0.44591800  0.88749500  0.85680600  1
  C  782  1  0.46707500  0.89076000  0.87422000  1
  C  787  1  0.48695200  0.87378000  0.91110900  1
  C  788  1  0.50617300  0.89188600  0.90856600  1
  C  789  1  0.52705200  0.89457800  0.92640500  1
  C  794  1  0.48629800  0.90887800  0.87170100  1
  C  797  1  0.52667100  0.15038900  0.85678700  1
  C  798  1  0.50551900  0.14711900  0.87420700  1
  C  803  1  0.48564500  0.16409700  0.91109800  1
  C  804  1  0.46642700  0.14598700  0.90855800  1
  C  805  1  0.44555200  0.14329300  0.92640200  1
  C  810  1  0.48629800  0.12899700  0.87169200  1
  C  813  1  0.44590300  0.15035800  0.18101900  1
  C  814  1  0.46707100  0.14710100  0.16361600  1
  C  819  1  0.48695900  0.16408900  0.12673900  1
  C  820  1  0.50618800  0.14599200  0.12929200  1
  C  821  1  0.52707800  0.14331000  0.11146500  1
  C  826  1  0.48630200  0.12899200  0.16614700  1
  C  829  1  0.52667300  0.88747600  0.18102000  1
  C  830  1  0.50551200  0.89074400  0.16360800  1
  C  835  1  0.48563100  0.87376600  0.12672100  1
  C  836  1  0.46641000  0.89187100  0.12926800  1
  C  837  1  0.44552900  0.89456500  0.11143300  1
  C  842  1  0.48628700  0.90886000  0.16613300  1
  C  845  1  0.11773400  0.85682100  0.55931100  1
  C  846  1  0.11447200  0.87423100  0.53815000  1
  C  851  1  0.13145800  0.91111200  0.51826700  1
  C  852  1  0.11335700  0.90856700  0.49904200  1
  C  853  1  0.11067600  0.92639900  0.47815700  1
  C  858  1  0.09635600  0.87170900  0.51892300  1
  C  861  1  0.85486900  0.85683200  0.47851600  1
  C  862  1  0.85812900  0.87423800  0.49968100  1
  C  867  1  0.84114000  0.91111700  0.51956900  1
  C  868  1  0.85924100  0.90856800  0.53879200  1
  C  869  1  0.86192600  0.92639800  0.55968100  1
  C  874  1  0.87624200  0.87171200  0.51890800  1
  C  877  1  0.85483600  0.18105100  0.55930500  1
  C  878  1  0.85810900  0.16363200  0.53815300  1
  C  883  1  0.84113300  0.12674200  0.51827700  1
  C  884  1  0.85924300  0.12928100  0.49906100  1
  C  885  1  0.86193900  0.11144000  0.47818300  1
  C  890  1  0.87623200  0.16614800  0.51893200  1
  C  893  1  0.11775100  0.18103300  0.47851400  1
  C  894  1  0.11448500  0.16362300  0.49967500  1
  C  899  1  0.13146200  0.12673700  0.51955600  1
  C  900  1  0.11335900  0.12928400  0.53877900  1
  C  901  1  0.11067100  0.11145100  0.55966200  1
  C  906  1  0.09636800  0.16614700  0.51889900  1
  C  909  1  0.14841400  0.55929200  0.88748500  1
  C  910  1  0.13099900  0.53813500  0.89075100  1
  C  915  1  0.09410800  0.51826100  0.87377400  1
  C  916  1  0.09665000  0.49904200  0.89188200  1
  C  917  1  0.07880800  0.47816600  0.89457500  1
  C  922  1  0.13351600  0.51891400  0.90887200  1
  C  925  1  0.14839200  0.47852300  0.15035100  1
  C  926  1  0.13098800  0.49969000  0.14709700  1
  C  931  1  0.09410400  0.51957100  0.16408200  1
  C  932  1  0.09665300  0.53879800  0.14598400  1
  C  933  1  0.07882100  0.55968500  0.14329700  1
  C  938  1  0.13351400  0.51892000  0.12898700  1
  C  941  1  0.82418500  0.55930600  0.15034600  1
  C  942  1  0.84160000  0.53815000  0.14708000  1
  C  947  1  0.87848800  0.51827300  0.16406100  1
  C  948  1  0.87594900  0.49905500  0.14595000  1
  C  949  1  0.89378900  0.47817700  0.14325600  1
  C  954  1  0.83908500  0.51893000  0.12895700  1
  C  957  1  0.82422300  0.47851900  0.88748300  1
  C  958  1  0.84163400  0.49967800  0.89075200  1
  C  963  1  0.87851100  0.51956900  0.87376800  1
  C  964  1  0.87595900  0.53879400  0.89187100  1
  C  965  1  0.89378700  0.55968300  0.89455800  1
  C  970  1  0.83910200  0.51890900  0.90886500  1
  C  973  1  0.97673100  0.56734600  0.96224900  1
  C  974  1  0.95610300  0.55748000  0.97554400  1
  C  975  1  0.95921400  0.53969800  0.99472700  1
  C  976  1  0.98297000  0.52983200  0.00124372  1
  C  977  1  0.00363600  0.54087100  0.98865900  1
  C  978  1  0.00067600  0.55880700  0.96949400  1
  C  979  1  0.98629500  0.51140300  0.02306770  1
  C  980  1  0.98962300  0.52983600  0.04488870  1
  C  981  1  0.01338100  0.53970200  0.05140470  1
  C  982  1  0.01649200  0.55749000  0.07058370  1
  C  983  1  0.99586500  0.56735500  0.08388170  1
  C  984  1  0.97192000  0.55882100  0.07663570  1
  C  985  1  0.96895900  0.54088100  0.05747170  1
  C  986  1  0.96452300  0.49289500  0.02651870  1
  C  987  1  0.00807100  0.49289300  0.01963270  1
  C  988  1  0.02069100  0.48175300  0.04022770  1
  C  989  1  0.03888900  0.46284100  0.03725570  1
  C  990  1  0.04499500  0.45327700  0.01338470  1
  C  991  1  0.03195800  0.46356900  0.99280200  1
  C  992  1  0.01391300  0.48251400  0.99590600  1
  C  993  1  0.95190200  0.48175700  0.00592172  1
  C  994  1  0.93369500  0.46285500  0.00889172  1
  C  995  1  0.92760800  0.45327300  0.03275870  1
  C  996  1  0.94063300  0.46357400  0.05334570  1
  C  997  1  0.95867300  0.48252200  0.05024370  1
  C  1014  1  0.06187300  0.43353600  0.00959272  1
  C  1015  1  0.97267600  0.58442000  0.94272900  1
  C  1018  1  0.99992100  0.58442900  0.10340000  1
  C  1020  1  0.91072500  0.43353500  0.03654770  1
  C  1022  1  0.99585900  0.95594600  0.96226600  1
  C  1023  1  0.01648400  0.96579500  0.97557500  1
  C  1024  1  0.01337300  0.98358600  0.99475200  1
  C  1025  1  0.98962400  0.99349800  0.00123672  1
  C  1026  1  0.96896200  0.98244900  0.98865300  1
  C  1027  1  0.97191700  0.96450300  0.96949600  1
  C  1028  1  0.98630100  0.01191330  0.02306770  1
  C  1029  1  0.98297700  0.99349400  0.04489770  1
  C  1030  1  0.95922900  0.98358500  0.05138270  1
  C  1031  1  0.95611800  0.96578900  0.07055370  1
  C  1032  1  0.97674200  0.95593900  0.08386470  1
  C  1033  1  0.00068400  0.96449300  0.07663570  1
  C  1034  1  0.00364000  0.98244200  0.05747970  1
  C  1035  1  0.00808400  0.03040930  0.02651470  1
  C  1036  1  0.96451900  0.03041130  0.01963370  1
  C  1037  1  0.95190100  0.04156330  0.04022770  1
  C  1038  1  0.93370300  0.06047630  0.03726070  1
  C  1039  1  0.92762100  0.07006830  0.01339570  1
  C  1040  1  0.94068300  0.05980030  0.99281900  1
  C  1041  1  0.95871000  0.04083930  0.99591900  1
  C  1042  1  0.02070200  0.04155630  0.00592172  1
  C  1043  1  0.03889600  0.06047330  0.00888472  1
  C  1044  1  0.04497200  0.07007230  0.03274770  1
  C  1045  1  0.03193000  0.05979030  0.05333070  1
  C  1046  1  0.01390200  0.04083230  0.05023070  1
  C  1063  1  0.91074600  0.08981230  0.00960672  1
  C  1064  1  0.99991200  0.93886600  0.94275100  1
  C  1067  1  0.97268700  0.93886200  0.10338200  1
  C  1069  1  0.06185600  0.08981030  0.03653270  1
  C  1071  1  0.68058100  0.70085400  0.53262600  1
  C  1072  1  0.69043600  0.71416300  0.55324900  1
  C  1073  1  0.70822500  0.73334000  0.55013500  1
  C  1074  1  0.71813300  0.73982600  0.52638500  1
  C  1075  1  0.70708200  0.72724000  0.50572200  1
  C  1076  1  0.68913400  0.70808300  0.50868200  1
  C  1077  1  0.73654700  0.76165700  0.52305700  1
  C  1078  1  0.71812700  0.78348500  0.51973200  1
  C  1079  1  0.70821900  0.78997100  0.49598100  1
  C  1080  1  0.69042300  0.80914100  0.49287000  1
  C  1081  1  0.68057000  0.82245200  0.51349300  1
  C  1082  1  0.68912600  0.81522300  0.53743800  1
  C  1083  1  0.70707500  0.79606700  0.54039500  1
  C  1084  1  0.75504400  0.76510400  0.54483800  1
  C  1085  1  0.75504100  0.75822000  0.50127200  1
  C  1086  1  0.76619800  0.77881400  0.48865700  1
  C  1087  1  0.78510500  0.77584600  0.47045600  1
  C  1088  1  0.79470300  0.75198300  0.46438100  1
  C  1089  1  0.78442800  0.73140300  0.47743300  1
  C  1090  1  0.76546800  0.73450400  0.49546200  1
  C  1091  1  0.76619900  0.74451000  0.55745100  1
  C  1092  1  0.78510400  0.74747500  0.57565800  1
  C  1093  1  0.79470600  0.77133800  0.58172900  1
  C  1094  1  0.78442300  0.79192100  0.56868700  1
  C  1095  1  0.76546300  0.78881900  0.55065800  1
  C  1112  1  0.81445500  0.74819600  0.44751500  1
  C  1113  1  0.66350400  0.68134000  0.53668400  1
  C  1116  1  0.66349600  0.84197100  0.50943800  1
  C  1118  1  0.81444400  0.77512700  0.59860900  1
  C  1120  1  0.29201900  0.70085600  0.51352700  1
  C  1121  1  0.28223100  0.71423100  0.49291300  1
  C  1122  1  0.26444400  0.73340800  0.49603100  1
  C  1123  1  0.25447500  0.73982800  0.51977500  1
  C  1124  1  0.26544500  0.72716900  0.54043200  1
  C  1125  1  0.28339500  0.70801200  0.53746800  1
  C  1126  1  0.23605100  0.76165800  0.52308400  1
  C  1127  1  0.25447500  0.78348600  0.52638800  1
  C  1128  1  0.26444800  0.78990900  0.55012900  1
  C  1129  1  0.28224100  0.80908200  0.55324200  1
  C  1130  1  0.29202100  0.82245600  0.53262600  1
  C  1131  1  0.28339400  0.81529900  0.50868700  1
  C  1132  1  0.26544500  0.79614300  0.50572800  1
  C  1133  1  0.21754500  0.76508100  0.50130600  1
  C  1134  1  0.21756000  0.75822900  0.54487100  1
  C  1135  1  0.20647300  0.77881700  0.55755200  1
  C  1136  1  0.18754700  0.77585300  0.57573700  1
  C  1137  1  0.17789200  0.75199900  0.58175900  1
  C  1138  1  0.18810700  0.73142700  0.56864400  1
  C  1139  1  0.20706900  0.73452700  0.55061900  1
  C  1140  1  0.20647400  0.74449400  0.48861100  1
  C  1141  1  0.18755000  0.74746500  0.47042600  1
  C  1142  1  0.17789100  0.77131900  0.46441300  1
  C  1143  1  0.18810800  0.79189100  0.47752700  1
  C  1144  1  0.20706400  0.78878900  0.49555900  1
  C  1161  1  0.15814000  0.74821800  0.59862700  1
  C  1162  1  0.30909400  0.68134100  0.50946400  1
  C  1165  1  0.30909300  0.84197400  0.53668500  1
  C  1167  1  0.15815600  0.77510800  0.44752600  1
  C  1169  1  0.54709600  0.27121200  0.82879000  1
  C  1170  1  0.53375600  0.29183100  0.81896700  1
  C  1171  1  0.51458000  0.28871600  0.80117800  1
  C  1172  1  0.50812300  0.26496800  0.79124600  1
  C  1173  1  0.52074300  0.24430800  0.80225500  1
  C  1174  1  0.53990100  0.24726900  0.82020300  1
  C  1175  1  0.48629500  0.26165800  0.77282000  1
  C  1176  1  0.46446500  0.25834500  0.79124000  1
  C  1177  1  0.45800900  0.23459400  0.80116800  1
  C  1178  1  0.43883100  0.23147800  0.81895500  1
  C  1179  1  0.42549100  0.25209600  0.82878300  1
  C  1180  1  0.43268400  0.27603900  0.82019700  1
  C  1181  1  0.45184100  0.27900300  0.80224900  1
  C  1182  1  0.48287200  0.28344100  0.75431900  1
  C  1183  1  0.48974000  0.23988100  0.75431400  1
  C  1184  1  0.46914100  0.22724000  0.74320200  1
  C  1185  1  0.47210200  0.20904000  0.72428900  1
  C  1186  1  0.49596100  0.20297300  0.71467200  1
  C  1187  1  0.51654200  0.21604300  0.72492200  1
  C  1188  1  0.51345200  0.23406900  0.74388500  1
  C  1189  1  0.50346400  0.29609600  0.74321300  1
  C  1190  1  0.50049900  0.31428300  0.72428900  1
  C  1191  1  0.47663700  0.32035300  0.71468200  1
  C  1192  1  0.45606100  0.30727000  0.72492500  1
  C  1193  1  0.45915900  0.28923300  0.74387800  1
  C  1210  1  0.49974000  0.18610200  0.69492300  1
  C  1211  1  0.56660800  0.27527100  0.84587000  1
  C  1214  1  0.40597500  0.24803300  0.84585700  1
  C  1216  1  0.47285400  0.33722300  0.69493200  1
  C  1218  1  0.54710500  0.25211200  0.21736100  1
  C  1219  1  0.53376900  0.23149100  0.22718300  1
  C  1220  1  0.51458900  0.23460200  0.24496800  1
  C  1221  1  0.50811600  0.25835200  0.25488300  1
  C  1222  1  0.52074200  0.27901600  0.24388700  1
  C  1223  1  0.53990700  0.27605500  0.22594700  1
  C  1224  1  0.48629600  0.26167400  0.27331700  1
  C  1225  1  0.46446400  0.26498600  0.25489800  1
  C  1226  1  0.45800900  0.28873400  0.24496500  1
  C  1227  1  0.43883300  0.29185000  0.22717700  1
  C  1228  1  0.42549000  0.27123200  0.21735600  1
  C  1229  1  0.43268000  0.24728900  0.22594500  1
  C  1230  1  0.45183800  0.24432600  0.24389300  1
  C  1231  1  0.48287100  0.23989300  0.29182100  1
  C  1232  1  0.48974600  0.28345100  0.29181900  1
  C  1233  1  0.46915100  0.29610900  0.30292200  1
  C  1234  1  0.47211600  0.31431000  0.32183300  1
  C  1235  1  0.49597400  0.32034800  0.33147000  1
  C  1236  1  0.51655400  0.30727800  0.32121700  1
  C  1237  1  0.51345800  0.28924900  0.30225700  1
  C  1238  1  0.50346100  0.22723700  0.30292900  1
  C  1239  1  0.50049200  0.20903300  0.32183900  1
  C  1240  1  0.47663300  0.20300100  0.33147400  1
  C  1241  1  0.45605600  0.21607900  0.32122400  1
  C  1242  1  0.45915800  0.23411100  0.30226600  1
  C  1259  1  0.49975900  0.33723400  0.35120700  1
  C  1260  1  0.56663200  0.24805600  0.20029700  1
  C  1263  1  0.40597300  0.27529200  0.20028000  1
  C  1265  1  0.47284500  0.18611900  0.35121400  1
  C  1267  1  0.67821600  0.27153900  0.08191570  1
  C  1268  1  0.68796700  0.29196200  0.06821070  1
  C  1269  1  0.70679400  0.28877500  0.05006970  1
  C  1270  1  0.71769100  0.26514700  0.04482470  1
  C  1271  1  0.70708700  0.24466000  0.05806770  1
  C  1272  1  0.68824300  0.24771900  0.07632870  1
  C  1273  1  0.73622100  0.26166500  0.02307170  1
  C  1274  1  0.71771000  0.25819400  0.00130572  1
  C  1275  1  0.70679600  0.23456500  0.99607900  1
  C  1276  1  0.68796700  0.23136800  0.97794300  1
  C  1277  1  0.67821000  0.25178700  0.96423600  1
  C  1278  1  0.68822600  0.27560900  0.96982200  1
  C  1279  1  0.70708100  0.27867200  0.98807100  1
  C  1280  1  0.75462100  0.28350700  0.01971470  1
  C  1281  1  0.75462400  0.23982800  0.02644570  1
  C  1282  1  0.76501200  0.22654000  0.00587672  1
  C  1283  1  0.78265500  0.20711900  0.00895172  1
  C  1284  1  0.79152100  0.20033900  0.03289870  1
  C  1285  1  0.78245400  0.21438300  0.05338070  1
  C  1286  1  0.76499700  0.23384700  0.05013370  1
  C  1287  1  0.76501200  0.29679400  0.04027970  1
  C  1288  1  0.78265100  0.31621600  0.03720070  1
  C  1289  1  0.79152200  0.32298800  0.01325570  1
  C  1290  1  0.78245500  0.30894100  0.99277400  1
  C  1291  1  0.76499900  0.28948000  0.99602500  1
  C  1308  1  0.80784600  0.18028300  0.03712670  1
  C  1309  1  0.65878800  0.27549600  0.09916370  1
  C  1312  1  0.65878900  0.24782100  0.94698000  1
  C  1314  1  0.80784800  0.34304200  0.00902272  1
  C  1316  1  0.29436600  0.25177900  0.08192370  1
  C  1317  1  0.28457600  0.23135000  0.06825670  1
  C  1318  1  0.26575000  0.23453600  0.05011470  1
  C  1319  1  0.25490000  0.25817600  0.04482270  1
  C  1320  1  0.26555800  0.27866900  0.05801470  1
  C  1321  1  0.28439300  0.27560900  0.07628370  1
  C  1322  1  0.23637500  0.26166100  0.02306770  1
  C  1323  1  0.25490000  0.26514300  0.00131272  1
  C  1324  1  0.26574800  0.28878200  0.99601800  1
  C  1325  1  0.28457700  0.29196700  0.97787900  1
  C  1326  1  0.29437100  0.27153500  0.96421700  1
  C  1327  1  0.28439800  0.24770600  0.96986000  1
  C  1328  1  0.26555200  0.24465000  0.98811700  1
  C  1329  1  0.21796400  0.23982800  0.01969570  1
  C  1330  1  0.21797400  0.28350000  0.02644370  1
  C  1331  1  0.20754100  0.29674300  0.00586872  1
  C  1332  1  0.18990000  0.31616600  0.00894272  1
  C  1333  1  0.18108100  0.32299400  0.03289170  1
  C  1334  1  0.19019700  0.30899400  0.05338470  1
  C  1335  1  0.20764800  0.28952700  0.05014070  1
  C  1336  1  0.20754200  0.22657900  0.04027070  1
  C  1337  1  0.18990600  0.20715200  0.03719570  1
  C  1338  1  0.18108100  0.20033100  0.01324470  1
  C  1339  1  0.19019500  0.21433300  0.99275200  1
  C  1340  1  0.20764400  0.23380100  0.99599700  1
  C  1357  1  0.16476000  0.34305300  0.03711370  1
  C  1358  1  0.31378700  0.24782100  0.09917870  1
  C  1361  1  0.31378600  0.27549500  0.94695800  1
  C  1363  1  0.16476200  0.18027000  0.00902072  1
  C  1365  1  0.54515200  0.56972800  0.51319100  1
  C  1366  1  0.53148700  0.55993600  0.49276200  1
  C  1367  1  0.51333600  0.54111800  0.49595300  1
  C  1368  1  0.50805600  0.53026100  0.51959000  1
  C  1369  1  0.52125900  0.54090600  0.54008000  1
  C  1370  1  0.53951700  0.55975400  0.53702000  1
  C  1371  1  0.48630100  0.51173500  0.52307600  1
  C  1372  1  0.46454600  0.53026200  0.52656100  1
  C  1373  1  0.45926400  0.54112200  0.55019900  1
  C  1374  1  0.44112800  0.55995200  0.55338600  1
  C  1375  1  0.42745400  0.56973600  0.53295800  1
  C  1376  1  0.43307400  0.55974400  0.50913200  1
  C  1377  1  0.45134300  0.54090900  0.50606900  1
  C  1378  1  0.48292500  0.49332900  0.50124100  1
  C  1379  1  0.48967000  0.49333000  0.54491200  1
  C  1380  1  0.46910100  0.48291700  0.55817600  1
  C  1381  1  0.47218000  0.46527900  0.57760100  1
  C  1382  1  0.49613200  0.45644700  0.58440800  1
  C  1383  1  0.51661700  0.46555300  0.57039400  1
  C  1384  1  0.51336800  0.48300200  0.55092600  1
  C  1385  1  0.50349600  0.48291700  0.48797800  1
  C  1386  1  0.50041700  0.46527500  0.46855500  1
  C  1387  1  0.47646400  0.45645700  0.46173400  1
  C  1388  1  0.45597700  0.46555800  0.47575100  1
  C  1389  1  0.45922600  0.48300600  0.49522100  1
  C  1406  1  0.50036000  0.44012600  0.60446600  1
  C  1407  1  0.56240500  0.58915000  0.50923100  1
  C  1410  1  0.41019900  0.58915600  0.53691800  1
  C  1412  1  0.47223800  0.44012800  0.44168000  1
  C  1414  1  0.54512400  0.95356300  0.53293500  1
  C  1415  1  0.53146000  0.96335500  0.55336500  1
  C  1416  1  0.51332900  0.98219200  0.55017700  1
  C  1417  1  0.50805800  0.99307800  0.52654700  1
  C  1418  1  0.52124600  0.98240600  0.50605600  1
  C  1419  1  0.53949800  0.96355000  0.50911100  1
  C  1420  1  0.48629400  0.01158630  0.52306200  1
  C  1421  1  0.46453300  0.99307300  0.51957600  1
  C  1422  1  0.45926700  0.98218200  0.49594700  1
  C  1423  1  0.44114200  0.96334200  0.49276000  1
  C  1424  1  0.42747000  0.95355700  0.51318900  1
  C  1425  1  0.43308900  0.96355500  0.53701200  1
  C  1426  1  0.45134900  0.98239800  0.54006600  1
  C  1427  1  0.48291600  0.02998230  0.54490300  1
  C  1428  1  0.48966400  0.02998330  0.50121800  1
  C  1429  1  0.46909800  0.04041530  0.48796300  1
  C  1430  1  0.47217700  0.05806030  0.46854700  1
  C  1431  1  0.49612600  0.06689930  0.46174700  1
  C  1432  1  0.51661100  0.05779830  0.47576600  1
  C  1433  1  0.51335800  0.04033630  0.49522300  1
  C  1434  1  0.50348300  0.04041830  0.55815500  1
  C  1435  1  0.50040600  0.05806230  0.57757400  1
  C  1436  1  0.47645400  0.06688730  0.58438800  1
  C  1437  1  0.45596800  0.05778830  0.57036700  1
  C  1438  1  0.45922100  0.04033130  0.55090400  1
  C  1455  1  0.50035700  0.08322830  0.44169500  1
  C  1456  1  0.56236200  0.93412700  0.53689000  1
  C  1459  1  0.41022500  0.93412800  0.50923200  1
  C  1461  1  0.47222500  0.08321830  0.60443900  1
  C  1463  1  0.97643700  0.70282100  0.21497500  1
  C  1464  1  0.95600500  0.71647600  0.22477600  1
  C  1465  1  0.95919300  0.73460700  0.24361100  1
  C  1466  1  0.98282600  0.73989100  0.25448400  1
  C  1467  1  0.00331600  0.72671800  0.24379800  1
  C  1468  1  0.00026300  0.70845500  0.22495500  1
  C  1469  1  0.98631000  0.76165600  0.27299400  1
  C  1470  1  0.98979600  0.78341700  0.25448000  1
  C  1471  1  0.01342700  0.78869500  0.24360000  1
  C  1472  1  0.01661200  0.80682200  0.22475900  1
  C  1473  1  0.99618300  0.82048800  0.21496900  1
  C  1474  1  0.97235800  0.81484900  0.22494600  1
  C  1475  1  0.96930500  0.79658800  0.24379200  1
  C  1476  1  0.96447000  0.76503400  0.29139000  1
  C  1477  1  0.00815200  0.75828600  0.29139000  1
  C  1478  1  0.02139500  0.77885500  0.30183300  1
  C  1479  1  0.04080800  0.77577800  0.31948400  1
  C  1480  1  0.04762500  0.75182500  0.32830700  1
  C  1481  1  0.03361900  0.73133800  0.31919100  1
  C  1482  1  0.01416100  0.73458900  0.30173000  1
  C  1483  1  0.95123200  0.74446300  0.30183700  1
  C  1484  1  0.93181400  0.74754100  0.31948200  1
  C  1485  1  0.92498800  0.77149200  0.32829600  1
  C  1486  1  0.93899400  0.79198100  0.31918200  1
  C  1487  1  0.95845500  0.78873100  0.30172500  1
  C  1504  1  0.06767900  0.74759700  0.34463400  1
  C  1505  1  0.97248100  0.68558400  0.19553700  1
  C  1508  1  0.00013600  0.83771900  0.19552800  1
  C  1510  1  0.90493800  0.77571800  0.34462800  1
  C  1512  1  0.99615100  0.70281600  0.83116000  1
  C  1513  1  0.01656400  0.71655500  0.82143900  1
  C  1514  1  0.01337100  0.73469100  0.80260800  1
  C  1515  1  0.98975200  0.73988800  0.79166000  1
  C  1516  1  0.96927700  0.72662300  0.80225500  1
  C  1517  1  0.97233800  0.70836900  0.82110700  1
  C  1518  1  0.98628700  0.76165300  0.77314700  1
  C  1519  1  0.98282200  0.78341600  0.79166200  1
  C  1520  1  0.95920300  0.78861700  0.80260800  1
  C  1521  1  0.95601300  0.80674000  0.82145000  1
  C  1522  1  0.97642400  0.82049000  0.83116200  1
  C  1523  1  0.00023900  0.81493000  0.82111200  1
  C  1524  1  0.00329900  0.79667900  0.80226100  1
  C  1525  1  0.00812700  0.76500900  0.75474500  1
  C  1526  1  0.96444100  0.75829200  0.75475100  1
  C  1527  1  0.95112800  0.77885600  0.74438600  1
  C  1528  1  0.93171500  0.77577900  0.72673500  1
  C  1529  1  0.92497600  0.75183600  0.71782800  1
  C  1530  1  0.93905000  0.73136200  0.72686500  1
  C  1531  1  0.95851100  0.73461400  0.74432200  1
  C  1532  1  0.02145000  0.74444800  0.74438900  1
  C  1533  1  0.04086900  0.74753100  0.72674600  1
  C  1534  1  0.04760500  0.77147400  0.71784300  1
  C  1535  1  0.03352700  0.79194600  0.72687800  1
  C  1536  1  0.01406700  0.78869200  0.74433300  1
  C  1553  1  0.90492600  0.74760300  0.70149900  1
  C  1554  1  0.00011200  0.68557200  0.85059000  1
  C  1557  1  0.97246800  0.83772700  0.85059900  1
  C  1559  1  0.06766100  0.77571200  0.70152100  1
  C  1561  1  0.94036800  0.63683800  0.86902900  1
  C  1562  1  0.96450400  0.63660300  0.88242500  1
  C  1567  1  0.98796000  0.61662200  0.91553800  1
  C  1568  1  0.00831300  0.63263900  0.91012300  1
  C  1569  1  0.03210700  0.63169900  0.92405500  1
  C  1574  1  0.98487100  0.65266600  0.87703400  1
  C  1577  1  0.03221100  0.88646300  0.86903500  1
  C  1578  1  0.00807600  0.88669700  0.88243200  1
  C  1583  1  0.98462300  0.90667400  0.91554900  1
  C  1584  1  0.96426900  0.89066000  0.91013400  1
  C  1585  1  0.94047600  0.89159900  0.92406800  1
  C  1590  1  0.98770800  0.87063300  0.87704300  1
  C  1593  1  0.94038600  0.88644400  0.17708700  1
  C  1594  1  0.96452200  0.88668100  0.16369200  1
  C  1599  1  0.98797600  0.90666400  0.13057600  1
  C  1600  1  0.00833100  0.89065000  0.13599300  1
  C  1601  1  0.03212500  0.89159100  0.12206200  1
  C  1606  1  0.98489100  0.87062000  0.16908000  1
  C  1609  1  0.03223000  0.63685700  0.17709600  1
  C  1610  1  0.00809400  0.63661800  0.16370300  1
  C  1615  1  0.98463800  0.61663600  0.13058900  1
  C  1616  1  0.96428400  0.63265000  0.13600600  1
  C  1617  1  0.94049000  0.63170900  0.12207500  1
  C  1622  1  0.98772400  0.65268200  0.16909200  1
  C  1625  1  0.61108400  0.60764500  0.56900300  1
  C  1626  1  0.61133000  0.62102800  0.54485900  1
  C  1631  1  0.63131700  0.65413100  0.52139500  1
  C  1632  1  0.61531400  0.64870200  0.50103500  1
  C  1633  1  0.61626200  0.66262200  0.47723500  1
  C  1638  1  0.59527700  0.61562400  0.52448600  1
  C  1641  1  0.36151800  0.60764500  0.47714400  1
  C  1642  1  0.36126800  0.62102500  0.50128900  1
  C  1647  1  0.34127300  0.65412500  0.52475500  1
  C  1648  1  0.35727700  0.64869700  0.54511600  1
  C  1649  1  0.35632300  0.66261300  0.56891700  1
  C  1654  1  0.37731700  0.61562200  0.52166500  1
  C  1657  1  0.36151900  0.91567300  0.56899400  1
  C  1658  1  0.36127400  0.90228500  0.54485400  1
  C  1663  1  0.34128200  0.86917900  0.52139500  1
  C  1664  1  0.35729100  0.87459800  0.50103700  1
  C  1665  1  0.35634400  0.86067200  0.47723900  1
  C  1670  1  0.37733000  0.90767900  0.52448300  1
  C  1673  1  0.61107700  0.91567500  0.47713300  1
  C  1674  1  0.61131400  0.90227900  0.50127000  1
  C  1679  1  0.63129800  0.86916600  0.52472700  1
  C  1680  1  0.61528700  0.87458600  0.54508200  1
  C  1681  1  0.61623000  0.86065600  0.56887700  1
  C  1686  1  0.59525500  0.90767300  0.52164100  1
  C  1689  1  0.64030500  0.30758600  0.89828900  1
  C  1690  1  0.62692300  0.28344300  0.89804200  1
  C  1695  1  0.59382100  0.25998000  0.87805200  1
  C  1696  1  0.59924700  0.23962000  0.89405600  1
  C  1697  1  0.58532900  0.21582100  0.89310700  1
  C  1702  1  0.63232500  0.26307100  0.91409500  1
  C  1705  1  0.64034000  0.21574600  0.14788900  1
  C  1706  1  0.62694500  0.23988200  0.14812300  1
  C  1711  1  0.59383000  0.26333900  0.16810000  1
  C  1712  1  0.59924700  0.28369200  0.15208300  1
  C  1713  1  0.58531400  0.30748500  0.15302000  1
  C  1718  1  0.63233700  0.26024900  0.13205900  1
  C  1721  1  0.33227200  0.30760100  0.14785400  1
  C  1722  1  0.34565800  0.28345800  0.14810400  1
  C  1727  1  0.37876200  0.25999900  0.16809600  1
  C  1728  1  0.37333600  0.23963800  0.15209400  1
  C  1729  1  0.38725800  0.21583800  0.15304600  1
  C  1734  1  0.34025600  0.26308300  0.13205500  1
  C  1737  1  0.33228600  0.21571300  0.89828900  1
  C  1738  1  0.34566600  0.23985800  0.89803800  1
  C  1743  1  0.37876400  0.26332300  0.87804400  1
  C  1744  1  0.37333500  0.28368300  0.89404400  1
  C  1745  1  0.38725300  0.30748400  0.89309200  1
  C  1750  1  0.34026100  0.26023400  0.91408700  1
  C  1753  1  0.44591800  0.13023400  0.36095900  1
  C  1754  1  0.46707500  0.13349900  0.37837300  1
  C  1759  1  0.48695200  0.11651900  0.41526200  1
  C  1760  1  0.50617300  0.13462500  0.41271900  1
  C  1761  1  0.52705200  0.13731700  0.43055800  1
  C  1766  1  0.48629800  0.15161700  0.37585400  1
  C  1769  1  0.52667100  0.39312800  0.36094000  1
  C  1770  1  0.50551900  0.38985800  0.37836000  1
  C  1775  1  0.48564500  0.40683600  0.41525100  1
  C  1776  1  0.46642700  0.38872600  0.41271100  1
  C  1777  1  0.44555200  0.38603200  0.43055500  1
  C  1782  1  0.48629800  0.37173600  0.37584500  1
  C  1785  1  0.44590300  0.39309700  0.68517200  1
  C  1786  1  0.46707100  0.38984000  0.66776900  1
  C  1791  1  0.48695900  0.40682800  0.63089200  1
  C  1792  1  0.50618800  0.38873100  0.63344500  1
  C  1793  1  0.52707800  0.38604900  0.61561800  1
  C  1798  1  0.48630200  0.37173100  0.67030000  1
  C  1801  1  0.52667300  0.13021500  0.68517300  1
  C  1802  1  0.50551200  0.13348300  0.66776100  1
  C  1807  1  0.48563100  0.11650500  0.63087400  1
  C  1808  1  0.46641000  0.13461000  0.63342100  1
  C  1809  1  0.44552900  0.13730400  0.61558600  1
  C  1814  1  0.48628700  0.15159900  0.67028600  1
  C  1817  1  0.11773400  0.09956030  0.06346370  1
  C  1818  1  0.11447200  0.11697000  0.04230270  1
  C  1823  1  0.13145800  0.15385100  0.02241970  1
  C  1824  1  0.11335700  0.15130600  0.00319472  1
  C  1825  1  0.11067600  0.16913800  0.98231000  1
  C  1830  1  0.09635600  0.11444800  0.02307570  1
  C  1833  1  0.85486900  0.09957130  0.98266900  1
  C  1834  1  0.85812900  0.11697700  0.00383372  1
  C  1839  1  0.84114000  0.15385600  0.02372170  1
  C  1840  1  0.85924100  0.15130700  0.04294470  1
  C  1841  1  0.86192600  0.16913700  0.06383370  1
  C  1846  1  0.87624200  0.11445100  0.02306070  1
  C  1849  1  0.85483600  0.42379000  0.06345770  1
  C  1850  1  0.85810900  0.40637100  0.04230570  1
  C  1855  1  0.84113300  0.36948100  0.02242970  1
  C  1856  1  0.85924300  0.37202000  0.00321372  1
  C  1857  1  0.86193900  0.35417900  0.98233600  1
  C  1862  1  0.87623200  0.40888700  0.02308470  1
  C  1865  1  0.11775100  0.42377200  0.98266700  1
  C  1866  1  0.11448500  0.40636200  0.00382772  1
  C  1871  1  0.13146200  0.36947600  0.02370870  1
  C  1872  1  0.11335900  0.37202300  0.04293170  1
  C  1873  1  0.11067100  0.35419000  0.06381470  1
  C  1878  1  0.09636800  0.40888600  0.02305170  1
  C  1881  1  0.14841400  0.80203100  0.39163800  1
  C  1882  1  0.13099900  0.78087400  0.39490400  1
  C  1887  1  0.09410800  0.76100000  0.37792700  1
  C  1888  1  0.09665000  0.74178100  0.39603500  1
  C  1889  1  0.07880800  0.72090500  0.39872800  1
  C  1894  1  0.13351600  0.76165300  0.41302500  1
  C  1897  1  0.14839200  0.72126200  0.65450400  1
  C  1898  1  0.13098800  0.74242900  0.65125000  1
  C  1903  1  0.09410400  0.76231000  0.66823500  1
  C  1904  1  0.09665300  0.78153700  0.65013700  1
  C  1905  1  0.07882100  0.80242400  0.64745000  1
  C  1910  1  0.13351400  0.76165900  0.63314000  1
  C  1913  1  0.82418500  0.80204500  0.65449900  1
  C  1914  1  0.84160000  0.78088900  0.65123300  1
  C  1919  1  0.87848800  0.76101200  0.66821400  1
  C  1920  1  0.87594900  0.74179400  0.65010300  1
  C  1921  1  0.89378900  0.72091600  0.64740900  1
  C  1926  1  0.83908500  0.76166900  0.63311000  1
  C  1929  1  0.82422300  0.72125800  0.39163600  1
  C  1930  1  0.84163400  0.74241700  0.39490500  1
  C  1935  1  0.87851100  0.76230800  0.37792100  1
  C  1936  1  0.87595900  0.78153300  0.39602400  1
  C  1937  1  0.89378700  0.80242200  0.39871100  1
  C  1942  1  0.83910200  0.76164800  0.41301800  1
  N  594  1  0.96712500  0.37685500  0.39706500  1
  N  601  1  0.00571400  0.40693800  0.38720300  1
  N  603  1  0.98931400  0.35669700  0.42967700  1
  N  604  1  0.98366900  0.42724500  0.35471100  1
  N  610  1  0.00545600  0.66096300  0.39707600  1
  N  617  1  0.96686700  0.63088400  0.38721200  1
  N  619  1  0.98326900  0.68112200  0.42969000  1
  N  620  1  0.98890800  0.61057900  0.35471500  1
  N  626  1  0.96714100  0.66095000  0.64074300  1
  N  633  1  0.00573400  0.63087300  0.65060900  1
  N  635  1  0.98933000  0.68111400  0.60813500  1
  N  636  1  0.98369300  0.61056700  0.68310500  1
  N  642  1  0.00547200  0.37687000  0.64075600  1
  N  649  1  0.96688300  0.40695100  0.65062100  1
  N  651  1  0.98328300  0.35670900  0.60814700  1
  N  652  1  0.98892500  0.42726000  0.68311200  1
  N  658  1  0.62833700  0.39708400  0.03808400  1
  N  665  1  0.59827600  0.38719400  0.99948300  1
  N  667  1  0.64850200  0.42968300  0.01588600  1
  N  668  1  0.57796100  0.35471300  0.02153600  1
  N  674  1  0.34425800  0.39708000  0.99976000  1
  N  681  1  0.37431700  0.38719000  0.03836200  1
  N  683  1  0.32408500  0.42967400  0.02196000  1
  N  684  1  0.39463800  0.35471300  0.01630900  1
  N  690  1  0.34426400  0.64075200  0.03808100  1
  N  697  1  0.37433100  0.65062500  0.99948300  1
  N  699  1  0.32409400  0.60815100  0.01588600  1
  N  700  1  0.39465100  0.68310900  0.02153000  1
  N  706  1  0.62832300  0.64074600  0.99973700  1
  N  713  1  0.59824800  0.65061600  0.03833100  1
  N  715  1  0.64848600  0.60813800  0.02192800  1
  N  716  1  0.57794000  0.68310800  0.01628800  1
  N  722  1  0.60812800  0.03808200  0.37688000  1
  N  729  1  0.61801500  0.99948200  0.40694300  1
  N  731  1  0.57553000  0.01588500  0.35671300  1
  N  732  1  0.65049500  0.02153600  0.42726200  1
  N  738  1  0.60815000  0.99976300  0.66097400  1
  N  745  1  0.61801600  0.03835300  0.63089300  1
  N  747  1  0.57553700  0.02195600  0.68112900  1
  N  748  1  0.65050900  0.01630800  0.61058700  1
  N  754  1  0.36445200  0.03810100  0.66095900  1
  N  761  1  0.35456900  0.99949600  0.63090300  1
  N  763  1  0.39705400  0.01590700  0.68112900  1
  N  764  1  0.32208600  0.02154300  0.61058200  1
  N  770  1  0.36446000  0.99974000  0.37687500  1
  N  777  1  0.35456900  0.03834400  0.40693200  1
  N  779  1  0.39705600  0.02194000  0.35670300  1
  N  780  1  0.32209100  0.01629300  0.42725500  1
  N  786  1  0.46836600  0.87451000  0.89381800  1
  N  793  1  0.50481400  0.90824800  0.88906800  1
  N  795  1  0.48470900  0.85706500  0.92968200  1
  N  796  1  0.48830900  0.92604900  0.85354600  1
  N  802  1  0.50422700  0.16337100  0.89380500  1
  N  809  1  0.46778700  0.12962300  0.88906100  1
  N  811  1  0.48788600  0.18081200  0.92967100  1
  N  812  1  0.48429100  0.11182200  0.85354000  1
  N  818  1  0.46836300  0.16335200  0.14401900  1
  N  825  1  0.50482500  0.12962900  0.14879000  1
  N  827  1  0.48471800  0.18080100  0.10816200  1
  N  828  1  0.48830900  0.11182400  0.18430400  1
  N  834  1  0.50422000  0.87449400  0.14400900  1
  N  841  1  0.46777200  0.90823100  0.14876900  1
  N  843  1  0.48787200  0.85705200  0.10814600  1
  N  844  1  0.48428000  0.92602600  0.18429200  1
  N  850  1  0.13072400  0.89382900  0.53685800  1
  N  857  1  0.09699300  0.88907000  0.50040400  1
  N  859  1  0.14817200  0.92968900  0.52050800  1
  N  860  1  0.07918400  0.85355800  0.51691600  1
  N  866  1  0.84187600  0.89383500  0.50097500  1
  N  873  1  0.87560700  0.88907200  0.53742900  1
  N  875  1  0.82442500  0.92969200  0.51732800  1
  N  876  1  0.89341300  0.85355700  0.52091700  1
  N  882  1  0.84185800  0.14403400  0.53686100  1
  N  889  1  0.87560600  0.14877900  0.50042000  1
  N  891  1  0.82441900  0.10816700  0.52051900  1
  N  892  1  0.89340500  0.18430000  0.51692500  1
  N  898  1  0.13073400  0.14402300  0.50096700  1
  N  905  1  0.09699700  0.14878400  0.53741800  1
  N  907  1  0.14817300  0.10815900  0.51731700  1
  N  908  1  0.07919700  0.18430200  0.52090800  1
  N  914  1  0.11140000  0.53684500  0.87450000  1
  N  921  1  0.11614900  0.50040100  0.90824500  1
  N  923  1  0.07553500  0.52050400  0.85706000  1
  N  924  1  0.15166900  0.51690500  0.92604300  1
  N  930  1  0.11138700  0.50098100  0.16334700  1
  N  937  1  0.11615200  0.53744000  0.12962200  1
  N  939  1  0.07552800  0.51732700  0.18079500  1
  N  940  1  0.15167200  0.52092900  0.11182200  1
  N  946  1  0.86119600  0.53685800  0.16333300  1
  N  953  1  0.85645300  0.50041700  0.12958500  1
  N  955  1  0.89705900  0.52051500  0.18077900  1
  N  956  1  0.82093200  0.51692100  0.11178400  1
  N  962  1  0.86123000  0.50097600  0.87450000  1
  N  969  1  0.85645900  0.53743000  0.90823200  1
  N  971  1  0.89708500  0.51733200  0.85705300  1
  N  972  1  0.82094100  0.52091700  0.92602800  1
  N  1566  1  0.96712500  0.61959400  0.90121800  1
  N  1573  1  0.00571400  0.64967700  0.89135600  1
  N  1575  1  0.98931400  0.59943600  0.93383000  1
  N  1576  1  0.98366900  0.66998400  0.85886400  1
  N  1582  1  0.00545600  0.90370200  0.90122900  1
  N  1589  1  0.96686700  0.87362300  0.89136500  1
  N  1591  1  0.98326900  0.92386100  0.93384300  1
  N  1592  1  0.98890800  0.85331800  0.85886800  1
  N  1598  1  0.96714100  0.90368900  0.14489600  1
  N  1605  1  0.00573400  0.87361200  0.15476200  1
  N  1607  1  0.98933000  0.92385300  0.11228800  1
  N  1608  1  0.98369300  0.85330600  0.18725800  1
  N  1614  1  0.00547200  0.61960900  0.14490900  1
  N  1621  1  0.96688300  0.64969000  0.15477400  1
  N  1623  1  0.98328300  0.59944800  0.11230000  1
  N  1624  1  0.98892500  0.66999900  0.18726500  1
  N  1630  1  0.62833700  0.63982300  0.54223700  1
  N  1637  1  0.59827600  0.62993300  0.50363600  1
  N  1639  1  0.64850200  0.67242200  0.52003900  1
  N  1640  1  0.57796100  0.59745200  0.52568900  1
  N  1646  1  0.34425800  0.63981900  0.50391300  1
  N  1653  1  0.37431700  0.62992900  0.54251500  1
  N  1655  1  0.32408500  0.67241300  0.52611300  1
  N  1656  1  0.39463800  0.59745200  0.52046200  1
  N  1662  1  0.34426400  0.88349100  0.54223400  1
  N  1669  1  0.37433100  0.89336400  0.50363600  1
  N  1671  1  0.32409400  0.85089000  0.52003900  1
  N  1672  1  0.39465100  0.92584800  0.52568300  1
  N  1678  1  0.62832300  0.88348500  0.50389000  1
  N  1685  1  0.59824800  0.89335500  0.54248400  1
  N  1687  1  0.64848600  0.85087700  0.52608100  1
  N  1688  1  0.57794000  0.92584700  0.52044100  1
  N  1694  1  0.60812800  0.28082100  0.88103300  1
  N  1701  1  0.61801500  0.24222100  0.91109600  1
  N  1703  1  0.57553000  0.25862400  0.86086600  1
  N  1704  1  0.65049500  0.26427500  0.93141500  1
  N  1710  1  0.60815000  0.24250200  0.16512700  1
  N  1717  1  0.61801600  0.28109200  0.13504600  1
  N  1719  1  0.57553700  0.26469500  0.18528200  1
  N  1720  1  0.65050900  0.25904700  0.11474000  1
  N  1726  1  0.36445200  0.28084000  0.16511200  1
  N  1733  1  0.35456900  0.24223500  0.13505600  1
  N  1735  1  0.39705400  0.25864600  0.18528200  1
  N  1736  1  0.32208600  0.26428200  0.11473500  1
  N  1742  1  0.36446000  0.24247900  0.88102800  1
  N  1749  1  0.35456900  0.28108300  0.91108500  1
  N  1751  1  0.39705600  0.26467900  0.86085600  1
  N  1752  1  0.32209100  0.25903200  0.93140800  1
  N  1758  1  0.46836600  0.11724900  0.39797100  1
  N  1765  1  0.50481400  0.15098700  0.39322100  1
  N  1767  1  0.48470900  0.09980430  0.43383500  1
  N  1768  1  0.48830900  0.16878800  0.35769900  1
  N  1774  1  0.50422700  0.40611000  0.39795800  1
  N  1781  1  0.46778700  0.37236200  0.39321400  1
  N  1783  1  0.48788600  0.42355100  0.43382400  1
  N  1784  1  0.48429100  0.35456100  0.35769300  1
  N  1790  1  0.46836300  0.40609100  0.64817200  1
  N  1797  1  0.50482500  0.37236800  0.65294300  1
  N  1799  1  0.48471800  0.42354000  0.61231500  1
  N  1800  1  0.48830900  0.35456300  0.68845700  1
  N  1806  1  0.50422000  0.11723300  0.64816200  1
  N  1813  1  0.46777200  0.15097000  0.65292200  1
  N  1815  1  0.48787200  0.09979130  0.61229900  1
  N  1816  1  0.48428000  0.16876500  0.68844500  1
  N  1822  1  0.13072400  0.13656800  0.04101070  1
  N  1829  1  0.09699300  0.13180900  0.00455672  1
  N  1831  1  0.14817200  0.17242800  0.02466070  1
  N  1832  1  0.07918400  0.09629730  0.02106870  1
  N  1838  1  0.84187600  0.13657400  0.00512772  1
  N  1845  1  0.87560700  0.13181100  0.04158170  1
  N  1847  1  0.82442500  0.17243100  0.02148070  1
  N  1848  1  0.89341300  0.09629630  0.02506970  1
  N  1854  1  0.84185800  0.38677300  0.04101370  1
  N  1861  1  0.87560600  0.39151800  0.00457272  1
  N  1863  1  0.82441900  0.35090600  0.02467170  1
  N  1864  1  0.89340500  0.42703900  0.02107770  1
  N  1870  1  0.13073400  0.38676200  0.00511972  1
  N  1877  1  0.09699700  0.39152300  0.04157070  1
  N  1879  1  0.14817300  0.35089800  0.02146970  1
  N  1880  1  0.07919700  0.42704100  0.02506070  1
  N  1886  1  0.11140000  0.77958400  0.37865300  1
  N  1893  1  0.11614900  0.74314000  0.41239800  1
  N  1895  1  0.07553500  0.76324300  0.36121300  1
  N  1896  1  0.15166900  0.75964400  0.43019600  1
  N  1902  1  0.11138700  0.74372000  0.66750000  1
  N  1909  1  0.11615200  0.78017900  0.63377500  1
  N  1911  1  0.07552800  0.76006600  0.68494800  1
  N  1912  1  0.15167200  0.76366800  0.61597500  1
  N  1918  1  0.86119600  0.77959700  0.66748600  1
  N  1925  1  0.85645300  0.74315600  0.63373800  1
  N  1927  1  0.89705900  0.76325400  0.68493200  1
  N  1928  1  0.82093200  0.75966000  0.61593700  1
  N  1934  1  0.86123000  0.74371500  0.37865300  1
  N  1941  1  0.85645900  0.78016900  0.41238500  1
  N  1943  1  0.89708500  0.76007100  0.36120600  1
  N  1944  1  0.82094100  0.76365600  0.43018100  1
