# generated using pymatgen
data_H47(C13N)6
_symmetry_space_group_name_H-M   'P 1'
_cell_length_a   60.00390000
_cell_length_b   60.06100000
_cell_length_c   60.06100000
_cell_angle_alpha   90.00000000
_cell_angle_beta   90.00000000
_cell_angle_gamma   90.00000000
_symmetry_Int_Tables_number   1
_chemical_formula_structural   H47(C13N)6
_chemical_formula_sum   'H1128 C1872 N144'
_cell_volume   216453.49182251
_cell_formula_units_Z   24
loop_
 _symmetry_equiv_pos_site_id
 _symmetry_equiv_pos_as_xyz
  1  'x, y, z'
loop_
 _atom_site_type_symbol
 _atom_site_label
 _atom_site_symmetry_multiplicity
 _atom_site_fract_x
 _atom_site_fract_y
 _atom_site_fract_z
 _atom_site_occupancy
  H  3  1  0.97651000  0.64032400  0.94707700  1
  H  4  1  0.94673200  0.64010600  0.97698500  1
  H  8  1  0.94625700  0.35595800  0.97651000  1
  H  9  1  0.97615900  0.35626400  0.94651800  1
  H  11  1  0.75105600  0.64271800  0.98734100  1
  H  12  1  0.79086400  0.64250700  0.98708300  1
  H  13  1  0.75131600  0.35826100  0.98687500  1
  H  14  1  0.79113200  0.35796400  0.98671100  1
  H  24  1  0.66449000  0.92148800  0.97621900  1
  H  25  1  0.66435800  0.95131100  0.94638300  1
  H  26  1  0.69951300  0.99380400  0.93476500  1
  H  27  1  0.69964800  0.99415400  0.89499800  1
  H  28  1  0.66206400  0.76554000  0.98643400  1
  H  29  1  0.63961300  0.83744800  0.99651600  1
  H  30  1  0.66188400  0.72576400  0.98670400  1
  H  31  1  0.67660800  0.51400200  0.98899000  1
  H  32  1  0.67593100  0.55365900  0.98892300  1
  H  33  1  0.65489400  0.44157600  0.98872500  1
  H  34  1  0.65393400  0.48123600  0.98895400  1
  H  35  1  0.66785000  0.26950800  0.98720000  1
  H  36  1  0.66750300  0.22974300  0.98681100  1
  H  37  1  0.68953500  0.15767000  0.99633100  1
  H  44  1  0.66443700  0.04441500  0.94568000  1
  H  45  1  0.66444800  0.07435100  0.97560600  1
  H  46  1  0.62932100  0.00134000  0.89490800  1
  H  47  1  0.62935600  0.00159500  0.93468400  1
  H  48  1  0.57878200  0.62931000  0.98887500  1
  H  49  1  0.50661700  0.65187100  0.98923800  1
  H  50  1  0.53907200  0.62872400  0.98918400  1
  H  51  1  0.57906600  0.34478800  0.98905500  1
  H  52  1  0.50692700  0.36774400  0.98902900  1
  H  53  1  0.53936300  0.34456300  0.98911100  1
  H  60  1  0.38116200  0.95217400  0.94571500  1
  H  61  1  0.38137900  0.92225900  0.97566700  1
  H  62  1  0.41618600  0.99558300  0.89483300  1
  H  63  1  0.41622800  0.99509200  0.93460200  1
  H  64  1  0.37815900  0.76680700  0.98699600  1
  H  65  1  0.46691500  0.65165200  0.98919100  1
  H  66  1  0.37778400  0.72704800  0.98741900  1
  H  67  1  0.39100800  0.55501900  0.98884500  1
  H  68  1  0.39194100  0.51535800  0.98899300  1
  H  69  1  0.46721500  0.36719700  0.98871800  1
  H  70  1  0.38384000  0.27078000  0.98650600  1
  H  71  1  0.38369500  0.23099800  0.98627300  1
  H  72  1  0.40641200  0.15914800  0.99634700  1
  H  80  1  0.38138700  0.07512200  0.97615000  1
  H  81  1  0.38128500  0.04527900  0.94634000  1
  H  82  1  0.35639700  0.83892300  0.99659500  1
  H  83  1  0.29478800  0.63869600  0.98703700  1
  H  84  1  0.25497000  0.63894200  0.98680000  1
  H  85  1  0.36925900  0.48259300  0.98900100  1
  H  86  1  0.36996800  0.44293800  0.98885400  1
  H  87  1  0.29494600  0.35411000  0.98706300  1
  H  88  1  0.25513300  0.35439600  0.98681300  1
  H  91  1  0.34606900  0.00282900  0.93484500  1
  H  92  1  0.34585800  0.00271200  0.89507200  1
  H  103  1  0.02643500  0.67573100  0.89554600  1
  H  104  1  0.02665800  0.67565000  0.93531700  1
  H  105  1  0.06970700  0.64076900  0.94621500  1
  H  106  1  0.09969900  0.64097500  0.97611400  1
  H  109  1  0.02300700  0.60545300  0.89554200  1
  H  110  1  0.02262500  0.60553800  0.93531400  1
  H  111  1  0.02710000  0.39158200  0.93549800  1
  H  112  1  0.02717000  0.39166700  0.89572400  1
  H  124  1  0.09922000  0.35692500  0.97693200  1
  H  125  1  0.06936200  0.35665600  0.94711600  1
  H  126  1  0.02236000  0.32151600  0.93545800  1
  H  127  1  0.02303200  0.32142800  0.89569500  1
  H  129  1  0.98726900  0.63739500  0.75115600  1
  H  130  1  0.98692700  0.63767200  0.79092900  1
  H  131  1  0.98804700  0.35339100  0.75123000  1
  H  132  1  0.98760600  0.35369400  0.79099200  1
  H  135  1  0.68957900  0.97150000  0.86242500  1
  H  138  1  0.66801200  0.96202700  0.75056400  1
  H  139  1  0.66765200  0.96166800  0.79033000  1
  H  141  1  0.69018500  0.97225200  0.82291300  1
  H  144  1  0.63953500  0.02430200  0.86258800  1
  H  148  1  0.66184900  0.03537700  0.75102000  1
  H  149  1  0.66203500  0.03519800  0.79079900  1
  H  151  1  0.63924500  0.02412900  0.82306200  1
  H  153  1  0.40594400  0.97279600  0.86242000  1
  H  156  1  0.38366000  0.96233100  0.75085000  1
  H  157  1  0.38340700  0.96231100  0.79062500  1
  H  159  1  0.40622200  0.97322400  0.82290300  1
  H  165  1  0.37747700  0.03568200  0.75073500  1
  H  166  1  0.37777000  0.03584000  0.79051000  1
  H  168  1  0.35587000  0.02556900  0.86259700  1
  H  170  1  0.35525200  0.02507000  0.82307300  1
  H  174  1  0.04954000  0.66569800  0.86327400  1
  H  180  1  0.06065800  0.64385400  0.75159800  1
  H  181  1  0.06049600  0.64358700  0.79137000  1
  H  185  1  0.04935000  0.66615900  0.82375400  1
  H  187  1  0.00032800  0.61546400  0.86291800  1
  H  188  1  0.00106300  0.61503800  0.82339800  1
  H  189  1  0.05022200  0.38143200  0.86346600  1
  H  190  1  0.05015300  0.38182200  0.82394100  1
  H  194  1  0.00057300  0.33163000  0.86304500  1
  H  195  1  0.06147400  0.35940800  0.75183700  1
  H  196  1  0.06121100  0.35915700  0.79161700  1
  H  205  1  0.00143500  0.33111200  0.82353900  1
  H  214  1  0.89530100  0.99475600  0.62940300  1
  H  215  1  0.93511800  0.99463200  0.62946500  1
  H  216  1  0.94684000  0.95203100  0.66460100  1
  H  217  1  0.97676200  0.92226800  0.66460300  1
  H  218  1  0.98745600  0.76632900  0.66796400  1
  H  219  1  0.98782300  0.72656100  0.66827600  1
  H  220  1  0.98975700  0.51478500  0.65389500  1
  H  221  1  0.98946800  0.55445100  0.65472300  1
  H  222  1  0.98982700  0.48211800  0.67671000  1
  H  223  1  0.98980000  0.44245900  0.67619100  1
  H  224  1  0.98749900  0.27051200  0.66244000  1
  H  225  1  0.98709400  0.23074000  0.66260600  1
  H  234  1  0.89532700  0.00156700  0.69968900  1
  H  235  1  0.93513500  0.00205000  0.69958500  1
  H  236  1  0.94589500  0.04511600  0.66451300  1
  H  237  1  0.97574600  0.07516000  0.66462400  1
  H  240  1  0.86285900  0.97177000  0.63953800  1
  H  243  1  0.75105600  0.96159100  0.66166700  1
  H  244  1  0.79087500  0.96143700  0.66194000  1
  H  246  1  0.82329000  0.97225500  0.63912900  1
  H  250  1  0.86292800  0.02454500  0.68957400  1
  H  253  1  0.75117800  0.03497400  0.66756300  1
  H  254  1  0.79098900  0.03499600  0.66728700  1
  H  256  1  0.82337100  0.02410400  0.69005800  1
  H  262  1  0.70968400  0.00031500  0.73913700  1
  H  268  1  0.73952400  0.00003200  0.70930200  1
  H  274  1  0.65132300  0.00056300  0.65092300  1
  H  275  1  0.67885300  0.00037100  0.67851900  1
  H  277  1  0.57886400  0.96381600  0.67547700  1
  H  279  1  0.53917000  0.96392500  0.67609900  1
  H  281  1  0.50645400  0.96389300  0.65333700  1
  H  282  1  0.61993500  0.00165300  0.73980100  1
  H  289  1  0.59002000  0.00205100  0.70993800  1
  H  290  1  0.57885400  0.03412200  0.65415500  1
  H  294  1  0.53915200  0.03391600  0.65329600  1
  H  297  1  0.50648400  0.03388900  0.67612800  1
  H  298  1  0.42559900  0.99623100  0.73986600  1
  H  300  1  0.46675500  0.96369500  0.65425000  1
  H  301  1  0.45555700  0.99583000  0.71004300  1
  H  312  1  0.46678600  0.03400500  0.67555800  1
  H  316  1  0.39432800  0.00064900  0.65094500  1
  H  318  1  0.29462100  0.96259400  0.66719000  1
  H  320  1  0.25481000  0.96241500  0.66694000  1
  H  322  1  0.33584800  0.00076800  0.73907700  1
  H  332  1  0.36676900  0.00090200  0.67850000  1
  H  333  1  0.29445800  0.03602500  0.66186200  1
  H  334  1  0.30605300  0.00097900  0.70919700  1
  H  337  1  0.25463700  0.03601700  0.66217000  1
  H  340  1  0.15039700  0.99530500  0.69971900  1
  H  341  1  0.18285300  0.97243900  0.68940400  1
  H  342  1  0.22241200  0.97301800  0.68985000  1
  H  349  1  0.15034700  0.00248900  0.62944800  1
  H  350  1  0.22226200  0.02523900  0.63927300  1
  H  351  1  0.18269300  0.02557600  0.63972500  1
  H  366  1  0.01082100  0.98296700  0.66453900  1
  H  367  1  0.06996000  0.92183600  0.66470900  1
  H  368  1  0.09980500  0.95187900  0.66462800  1
  H  369  1  0.11058800  0.99476600  0.69965000  1
  H  370  1  0.02276000  0.91081800  0.69974400  1
  H  371  1  0.02710300  0.91063200  0.62965200  1
  H  373  1  0.02324000  0.87105000  0.69994500  1
  H  374  1  0.02698000  0.87085700  0.62968300  1
  H  378  1  0.06105600  0.76681900  0.66242200  1
  H  385  1  0.05008200  0.83862100  0.63992600  1
  H  386  1  0.04996200  0.79909300  0.63964600  1
  H  387  1  0.00143000  0.79889100  0.69053600  1
  H  388  1  0.00062800  0.83840300  0.68992500  1
  H  392  1  0.02578800  0.68531300  0.73974000  1
  H  396  1  0.02610300  0.71514300  0.70992700  1
  H  397  1  0.06124600  0.72703800  0.66219000  1
  H  404  1  0.02633800  0.62699100  0.65154800  1
  H  405  1  0.02624700  0.65453600  0.67911800  1
  H  409  1  0.02490000  0.59565100  0.74039200  1
  H  423  1  0.05978600  0.51495500  0.67673500  1
  H  424  1  0.05980300  0.55461400  0.67611900  1
  H  425  1  0.02479200  0.56574100  0.71054600  1
  H  428  1  0.02765800  0.40135700  0.74056700  1
  H  435  1  0.05990900  0.48221100  0.65402300  1
  H  436  1  0.06018400  0.44254800  0.65495100  1
  H  437  1  0.02801800  0.43127700  0.71073100  1
  H  448  1  0.02642200  0.31170000  0.73988600  1
  H  455  1  0.02663300  0.37004200  0.65171200  1
  H  456  1  0.02652500  0.34248700  0.67926900  1
  H  461  1  0.02612700  0.28187300  0.71006300  1
  H  462  1  0.06094300  0.26994100  0.66826200  1
  H  466  1  0.06071600  0.23017100  0.66786300  1
  H  473  1  0.00006500  0.15883700  0.64008800  1
  H  474  1  0.00088500  0.19834800  0.63981100  1
  H  475  1  0.04993200  0.15816600  0.68967100  1
  H  476  1  0.04981800  0.19768100  0.69031200  1
  H  478  1  0.02692800  0.12591700  0.69988500  1
  H  479  1  0.02240200  0.12617000  0.62967000  1
  H  495  1  0.03826400  0.01402200  0.66463100  1
  H  496  1  0.02687000  0.08614900  0.69967900  1
  H  497  1  0.02173900  0.08640200  0.62964000  1
  H  498  1  0.06895100  0.07471200  0.66450600  1
  H  499  1  0.09885900  0.04495100  0.66459300  1
  H  500  1  0.11053100  0.00254600  0.62954800  1
  H  501  1  0.98962900  0.65148100  0.57909800  1
  H  502  1  0.98974200  0.65213000  0.53944200  1
  H  503  1  0.98977800  0.62944500  0.50669500  1
  H  504  1  0.98958400  0.36677700  0.57926800  1
  H  505  1  0.98977600  0.36765000  0.53960500  1
  H  506  1  0.98981700  0.34491600  0.50689300  1
  H  508  1  0.74023200  0.99574000  0.61966300  1
  H  510  1  0.65454700  0.96365500  0.57835700  1
  H  512  1  0.71040000  0.99561400  0.58971000  1
  H  514  1  0.65377400  0.96395000  0.53869100  1
  H  515  1  0.67667100  0.96403200  0.50607200  1
  H  521  1  0.67592600  0.03394000  0.57856200  1
  H  525  1  0.67660300  0.03392900  0.53890500  1
  H  527  1  0.65393200  0.03404400  0.50612200  1
  H  528  1  0.62042500  0.00079900  0.59034600  1
  H  529  1  0.59069500  0.00028500  0.62007000  1
  H  531  1  0.39227600  0.96383800  0.50618900  1
  H  533  1  0.45499700  0.00095900  0.62017400  1
  H  539  1  0.39123500  0.03420900  0.57842400  1
  H  540  1  0.42531400  0.00044500  0.59041300  1
  H  543  1  0.39222000  0.03392900  0.53876400  1
  H  545  1  0.36986600  0.96391900  0.57849000  1
  H  546  1  0.36939800  0.96394600  0.53882700  1
  H  550  1  0.33533500  0.00216300  0.58964600  1
  H  551  1  0.30546300  0.00197800  0.61956500  1
  H  552  1  0.36954100  0.03384900  0.50600200  1
  H  553  1  0.02743500  0.71585900  0.62027400  1
  H  560  1  0.02782800  0.68603900  0.59034300  1
  H  561  1  0.06004900  0.63035200  0.57908500  1
  H  568  1  0.05977900  0.65236800  0.50674800  1
  H  569  1  0.05986300  0.62955500  0.53941800  1
  H  572  1  0.02628200  0.59615200  0.59096400  1
  H  573  1  0.02677700  0.56643100  0.62067100  1
  H  574  1  0.02635500  0.43061100  0.62084500  1
  H  577  1  0.02685700  0.40089600  0.59113700  1
  H  584  1  0.02505000  0.31102000  0.59048100  1
  H  585  1  0.05996600  0.34552700  0.57924900  1
  H  586  1  0.02519000  0.28118700  0.62040600  1
  H  587  1  0.05986300  0.36771300  0.50688600  1
  H  591  1  0.05985600  0.34495400  0.53958800  1
  H  598  1  0.97657800  0.92181100  0.38036200  1
  H  599  1  0.94658100  0.95170700  0.38044800  1
  H  601  1  0.98736300  0.76660200  0.38349500  1
  H  602  1  0.98958600  0.63037100  0.46703200  1
  H  603  1  0.98764100  0.72682800  0.38392000  1
  H  604  1  0.98986200  0.48242600  0.39246600  1
  H  605  1  0.98957900  0.44276200  0.39163200  1
  H  606  1  0.98969600  0.34552900  0.46723500  1
  H  607  1  0.98777900  0.27069300  0.37805700  1
  H  608  1  0.98737200  0.23092700  0.37825000  1
  H  617  1  0.97687200  0.07470200  0.38065100  1
  H  618  1  0.94709500  0.04479800  0.38048500  1
  H  619  1  0.93561200  0.00245100  0.41550900  1
  H  620  1  0.89579800  0.00225900  0.41561100  1
  H  624  1  0.75142900  0.96237600  0.37759300  1
  H  625  1  0.79123900  0.96212200  0.37790400  1
  H  628  1  0.86341200  0.02520400  0.40532000  1
  H  632  1  0.75171400  0.03579000  0.38309200  1
  H  633  1  0.79153200  0.03571000  0.38284200  1
  H  636  1  0.82384800  0.02488600  0.40572100  1
  H  640  1  0.67621300  0.96400000  0.46641100  1
  H  649  1  0.65492700  0.03431500  0.46646100  1
  H  650  1  0.71079200  0.00218800  0.45522200  1
  H  654  1  0.74065200  0.00186500  0.42529300  1
  H  657  1  0.65176600  0.00070600  0.39395900  1
  H  659  1  0.57933600  0.96371300  0.39070400  1
  H  661  1  0.53963300  0.96390100  0.39159700  1
  H  663  1  0.62081100  0.00056900  0.45450800  1
  H  668  1  0.59111000  0.00104900  0.42476100  1
  H  673  1  0.50693500  0.03389900  0.39164800  1
  H  677  1  0.39150000  0.96356000  0.46652100  1
  H  683  1  0.42567900  0.00061900  0.45454600  1
  H  691  1  0.45540500  0.00013200  0.42482000  1
  H  692  1  0.46723100  0.03410000  0.39078400  1
  H  694  1  0.39477900  0.00054900  0.39396900  1
  H  696  1  0.33569700  0.99564000  0.45517600  1
  H  698  1  0.29493400  0.96201700  0.38314900  1
  H  700  1  0.30587000  0.99596500  0.42522300  1
  H  702  1  0.25511300  0.96201700  0.38295100  1
  H  704  1  0.37021900  0.03387700  0.46634800  1
  H  710  1  0.29506900  0.03541700  0.37742600  1
  H  713  1  0.25525700  0.03559000  0.37777300  1
  H  717  1  0.22283600  0.97295600  0.40593200  1
  H  718  1  0.18326500  0.97254500  0.40557800  1
  H  719  1  0.15083500  0.99559900  0.41570600  1
  H  734  1  0.11101800  0.99533600  0.41561600  1
  H  735  1  0.09954500  0.95258900  0.38050100  1
  H  736  1  0.06977400  0.92268100  0.38050500  1
  H  737  1  0.03880400  0.98322700  0.38044200  1
  H  738  1  0.02292700  0.91095200  0.41549900  1
  H  739  1  0.02349800  0.87118500  0.41563900  1
  H  747  1  0.00082700  0.83863100  0.40556100  1
  H  748  1  0.00145800  0.79911600  0.40606600  1
  H  750  1  0.06095600  0.76691400  0.37784600  1
  H  757  1  0.02499200  0.68625900  0.45579000  1
  H  758  1  0.05989600  0.65184600  0.46708500  1
  H  761  1  0.02518000  0.71606700  0.42583900  1
  H  763  1  0.06105400  0.72714100  0.37772100  1
  H  768  1  0.02662200  0.62718600  0.39460900  1
  H  771  1  0.02692500  0.59637700  0.45520600  1
  H  780  1  0.06001600  0.51502600  0.39242300  1
  H  781  1  0.06027900  0.55468900  0.39145900  1
  H  782  1  0.02647700  0.56664100  0.42552200  1
  H  787  1  0.02617700  0.40095900  0.45541700  1
  H  792  1  0.02672800  0.43072200  0.42575700  1
  H  799  1  0.06004900  0.36687000  0.46722200  1
  H  806  1  0.02784800  0.31106500  0.45591300  1
  H  811  1  0.02650200  0.37020400  0.39479200  1
  H  814  1  0.02743300  0.28128700  0.42593900  1
  H  815  1  0.06122800  0.27012700  0.38383600  1
  H  819  1  0.06099800  0.23035100  0.38346800  1
  H  824  1  0.05019200  0.15847600  0.40563800  1
  H  825  1  0.05006000  0.19799400  0.40610200  1
  H  828  1  0.02726300  0.12615800  0.41589900  1
  H  841  1  0.01122300  0.01415200  0.38051500  1
  H  842  1  0.10005700  0.04566400  0.38061300  1
  H  843  1  0.07007000  0.07556300  0.38059300  1
  H  844  1  0.02750200  0.08638700  0.41572400  1
  H  847  1  0.93556800  0.99443700  0.34542400  1
  H  848  1  0.89575800  0.99484700  0.34535700  1
  H  849  1  0.98815500  0.64353200  0.29504800  1
  H  850  1  0.98777100  0.64331800  0.25528500  1
  H  851  1  0.98996100  0.51508000  0.36965100  1
  H  852  1  0.98991800  0.55473800  0.37014000  1
  H  853  1  0.98759200  0.35970900  0.29508000  1
  H  854  1  0.98737500  0.35952300  0.25530700  1
  H  856  1  0.86329500  0.97205100  0.35566200  1
  H  858  1  0.82374000  0.97265700  0.35515400  1
  H  860  1  0.66257700  0.96182400  0.29427400  1
  H  863  1  0.66276400  0.96156600  0.25450100  1
  H  866  1  0.74001200  0.00070800  0.33565400  1
  H  875  1  0.67931800  0.00066800  0.36639300  1
  H  876  1  0.71019400  0.00042000  0.30579700  1
  H  877  1  0.66831200  0.03521300  0.29396100  1
  H  880  1  0.66793300  0.03513100  0.25419000  1
  H  881  1  0.59050000  0.99569800  0.33490300  1
  H  883  1  0.62044600  0.99590700  0.30506300  1
  H  884  1  0.50693400  0.96393300  0.36877000  1
  H  886  1  0.57929700  0.03400900  0.36934900  1
  H  887  1  0.53960000  0.03388600  0.36877300  1
  H  888  1  0.46723500  0.96382100  0.36937300  1
  H  890  1  0.37827700  0.96265200  0.29407100  1
  H  892  1  0.37860200  0.96260300  0.25430500  1
  H  895  1  0.45609000  0.00219900  0.33496300  1
  H  902  1  0.42617100  0.00205000  0.30509600  1
  H  903  1  0.38405800  0.03603700  0.29415100  1
  H  906  1  0.38382300  0.03616700  0.25437100  1
  H  912  1  0.36725400  0.00067100  0.36637400  1
  H  913  1  0.30658200  0.00053900  0.33558900  1
  H  914  1  0.33642100  0.00087400  0.30575400  1
  H  918  1  0.22277900  0.02480100  0.35499400  1
  H  919  1  0.18321600  0.02530800  0.35552500  1
  H  920  1  0.15084700  0.00222600  0.34540900  1
  H  923  1  0.02732000  0.91088700  0.34540900  1
  H  924  1  0.02728300  0.87111300  0.34537900  1
  H  927  1  0.04996800  0.79925100  0.35515400  1
  H  928  1  0.05026500  0.83877400  0.35554700  1
  H  929  1  0.02613200  0.71529800  0.33618200  1
  H  939  1  0.02662200  0.65471300  0.36703400  1
  H  940  1  0.02645000  0.68545000  0.30638900  1
  H  941  1  0.06162600  0.63803000  0.29452700  1
  H  945  1  0.06141800  0.63837800  0.25474800  1
  H  951  1  0.02784200  0.59580100  0.30577700  1
  H  952  1  0.02819200  0.56590300  0.33563700  1
  H  953  1  0.05994100  0.48226500  0.36976200  1
  H  954  1  0.05996100  0.44260700  0.37038300  1
  H  955  1  0.02506000  0.43154000  0.33587500  1
  H  961  1  0.02522500  0.40166800  0.30599200  1
  H  971  1  0.02635200  0.34269500  0.36719000  1
  H  972  1  0.06102600  0.35374400  0.29484000  1
  H  973  1  0.02601300  0.31201400  0.30651800  1
  H  974  1  0.02617800  0.28213600  0.33628600  1
  H  978  1  0.06098800  0.35411700  0.25506700  1
  H  981  1  0.00035500  0.15890200  0.35602100  1
  H  982  1  0.00115200  0.19841500  0.35557500  1
  H  983  1  0.02286200  0.12631500  0.34567500  1
  H  987  1  0.11103600  0.00256600  0.34548200  1
  H  988  1  0.02249700  0.08654700  0.34567500  1
  H  993  1  0.62974400  0.99396200  0.15008700  1
  H  994  1  0.64017500  0.97143800  0.18263800  1
  H  995  1  0.63990500  0.97208900  0.22215600  1
  H  1000  1  0.70003800  0.00170200  0.14983400  1
  H  1001  1  0.68982800  0.02463000  0.18216800  1
  H  1002  1  0.69047200  0.02435500  0.22168500  1
  H  1009  1  0.41670600  0.00312200  0.15006100  1
  H  1010  1  0.40630000  0.02590700  0.18245600  1
  H  1011  1  0.40659900  0.02549900  0.22198300  1
  H  1015  1  0.34640600  0.99548200  0.14985100  1
  H  1016  1  0.35659200  0.97276600  0.18233500  1
  H  1017  1  0.35598000  0.97328400  0.22184400  1
  H  1027  1  0.02294200  0.67591800  0.15061000  1
  H  1028  1  0.00061300  0.66555800  0.18330400  1
  H  1029  1  0.00147000  0.66604300  0.22281000  1
  H  1031  1  0.02761200  0.60570900  0.15063900  1
  H  1032  1  0.05057300  0.61570400  0.22236200  1
  H  1033  1  0.05064300  0.61613500  0.18283900  1
  H  1034  1  0.00140300  0.38226600  0.22291700  1
  H  1035  1  0.00070500  0.38183200  0.18339900  1
  H  1036  1  0.02321300  0.39198100  0.15072800  1
  H  1046  1  0.05012300  0.33155600  0.22260500  1
  H  1047  1  0.05035500  0.33202900  0.18308700  1
  H  1048  1  0.02733500  0.32174000  0.15086500  1
  H  1058  1  0.94622000  0.64033100  0.07007500  1
  H  1059  1  0.97621900  0.64049100  0.09997200  1
  H  1060  1  0.93509500  0.67523900  0.02296000  1
  H  1061  1  0.89528700  0.67517500  0.02331000  1
  H  1065  1  0.89554400  0.60490000  0.02692400  1
  H  1066  1  0.93535900  0.60513100  0.02718600  1
  H  1067  1  0.89539400  0.39087600  0.02333800  1
  H  1068  1  0.93520200  0.39101200  0.02289200  1
  H  1080  1  0.97691900  0.35637100  0.09941200  1
  H  1081  1  0.94704700  0.35612000  0.06959900  1
  H  1082  1  0.93560900  0.32090000  0.02703800  1
  H  1083  1  0.89579500  0.32059700  0.02687300  1
  H  1088  1  0.86282800  0.66492600  0.00049000  1
  H  1097  1  0.82327300  0.66531700  0.00114600  1
  H  1098  1  0.75135800  0.63683100  0.06072500  1
  H  1099  1  0.79117700  0.63716900  0.06064200  1
  H  1101  1  0.86314500  0.61496000  0.04994100  1
  H  1102  1  0.82358000  0.61445000  0.04966600  1
  H  1103  1  0.86302600  0.38056800  0.00043300  1
  H  1104  1  0.82346800  0.38082100  0.00091900  1
  H  1108  1  0.86330600  0.33054200  0.04982300  1
  H  1114  1  0.75145100  0.35226500  0.06025000  1
  H  1115  1  0.79126200  0.35252300  0.06026200  1
  H  1119  1  0.82374500  0.32989600  0.04938000  1
  H  1136  1  0.69968000  0.90990800  0.02638200  1
  H  1137  1  0.62950700  0.90979800  0.02223100  1
  H  1138  1  0.66449700  0.98210900  0.01038300  1
  H  1139  1  0.66465500  0.92082200  0.06932100  1
  H  1140  1  0.66479300  0.95076000  0.09924600  1
  H  1141  1  0.62970600  0.99338200  0.11031800  1
  H  1143  1  0.69982300  0.87013900  0.02614300  1
  H  1144  1  0.62948200  0.87002400  0.02259900  1
  H  1148  1  0.66778700  0.76587000  0.05995600  1
  H  1155  1  0.63928000  0.79792400  0.00057400  1
  H  1156  1  0.69034700  0.79831700  0.04892700  1
  H  1157  1  0.68978800  0.83783600  0.04918700  1
  H  1161  1  0.73961400  0.68444200  0.02564200  1
  H  1165  1  0.66815200  0.72609800  0.06004700  1
  H  1166  1  0.70977700  0.71427900  0.02529800  1
  H  1173  1  0.65139900  0.62607200  0.02564200  1
  H  1174  1  0.67893900  0.65366200  0.02556900  1
  H  1178  1  0.74031000  0.59480400  0.02682400  1
  H  1192  1  0.71047400  0.56485900  0.02713700  1
  H  1193  1  0.65468200  0.55355200  0.05925000  1
  H  1194  1  0.65390400  0.51388400  0.05901200  1
  H  1197  1  0.74057400  0.40024500  0.02443200  1
  H  1204  1  0.71079200  0.43024900  0.02422900  1
  H  1205  1  0.67677100  0.48124200  0.05893200  1
  H  1206  1  0.67627400  0.44157900  0.05901000  1
  H  1217  1  0.73970200  0.31060300  0.02523100  1
  H  1224  1  0.65161300  0.36913100  0.02577700  1
  H  1225  1  0.67908800  0.34149600  0.02568900  1
  H  1230  1  0.66226900  0.26899500  0.06059800  1
  H  1231  1  0.70980900  0.28082300  0.02547400  1
  H  1235  1  0.66248700  0.22921700  0.06038700  1
  H  1242  1  0.69011800  0.19717800  0.00052400  1
  H  1243  1  0.63968300  0.19692100  0.04953500  1
  H  1244  1  0.64001700  0.15739700  0.04966000  1
  H  1246  1  0.69984600  0.12503500  0.02214400  1
  H  1247  1  0.62956600  0.12513800  0.02672300  1
  H  1261  1  0.66457500  0.01305500  0.03792600  1
  H  1262  1  0.69982600  0.00172300  0.11006300  1
  H  1263  1  0.66471500  0.04385900  0.09853300  1
  H  1264  1  0.66474700  0.07367300  0.06870700  1
  H  1265  1  0.62957600  0.08536300  0.02669800  1
  H  1266  1  0.69968000  0.08527200  0.02151800  1
  H  1267  1  0.62003000  0.71495000  0.02418400  1
  H  1274  1  0.57910600  0.65076300  0.05914000  1
  H  1275  1  0.59010700  0.68509500  0.02405100  1
  H  1279  1  0.53941800  0.65165100  0.05913200  1
  H  1283  1  0.50650400  0.62916200  0.05926100  1
  H  1286  1  0.59076300  0.59523700  0.02610000  1
  H  1287  1  0.62048800  0.56550300  0.02557100  1
  H  1288  1  0.62081500  0.42976000  0.02592200  1
  H  1291  1  0.59104000  0.40009700  0.02545100  1
  H  1292  1  0.57917900  0.36610400  0.05936300  1
  H  1299  1  0.59019000  0.31023100  0.02726700  1
  H  1300  1  0.62006000  0.28031200  0.02687600  1
  H  1301  1  0.53948800  0.36735500  0.05910700  1
  H  1308  1  0.50655500  0.34488800  0.05900200  1
  H  1319  1  0.38168700  0.98360400  0.03793500  1
  H  1320  1  0.38169000  0.95287400  0.09857600  1
  H  1321  1  0.38149400  0.92302200  0.06878000  1
  H  1322  1  0.41650800  0.91127400  0.02673800  1
  H  1323  1  0.41652800  0.87150400  0.02677600  1
  H  1327  1  0.38399300  0.76738100  0.06050500  1
  H  1332  1  0.40656400  0.79969400  0.04949000  1
  H  1333  1  0.40623000  0.83921200  0.04960600  1
  H  1341  1  0.45583400  0.68626700  0.02732900  1
  H  1342  1  0.46681300  0.63042100  0.05952800  1
  H  1345  1  0.42599100  0.71621200  0.02693900  1
  H  1346  1  0.38419000  0.72760900  0.06074300  1
  H  1352  1  0.39437600  0.62739900  0.02598400  1
  H  1355  1  0.45492900  0.59640500  0.02559600  1
  H  1364  1  0.42514200  0.56675200  0.02607500  1
  H  1369  1  0.45521500  0.40132200  0.02589200  1
  H  1374  1  0.42548100  0.43105000  0.02537400  1
  H  1375  1  0.39133100  0.44292800  0.05914500  1
  H  1376  1  0.39207800  0.48259600  0.05898500  1
  H  1389  1  0.46686800  0.34581300  0.05900500  1
  H  1390  1  0.45589200  0.31146300  0.02391200  1
  H  1395  1  0.39458600  0.37047300  0.02553600  1
  H  1398  1  0.42597100  0.28160500  0.02401200  1
  H  1400  1  0.37815200  0.27050000  0.05990400  1
  H  1407  1  0.40671400  0.19868100  0.00037300  1
  H  1409  1  0.37854900  0.23072400  0.05984200  1
  H  1411  1  0.41662500  0.12660800  0.02257200  1
  H  1425  1  0.41660100  0.08682700  0.02221900  1
  H  1426  1  0.38139500  0.01452500  0.01036400  1
  H  1427  1  0.38169700  0.07587300  0.06923800  1
  H  1428  1  0.38172400  0.04597200  0.09919200  1
  H  1429  1  0.41673600  0.00339300  0.11028500  1
  H  1433  1  0.34660900  0.99515300  0.11008500  1
  H  1434  1  0.34640400  0.91135300  0.02163500  1
  H  1435  1  0.34624200  0.87159400  0.02229100  1
  H  1438  1  0.35579900  0.79942600  0.00082400  1
  H  1439  1  0.33622500  0.71574900  0.02589000  1
  H  1449  1  0.36692900  0.65506400  0.02578000  1
  H  1450  1  0.30632500  0.68597300  0.02566700  1
  H  1451  1  0.29451400  0.64389500  0.06047700  1
  H  1455  1  0.25469800  0.64358600  0.06041000  1
  H  1461  1  0.30540800  0.59634500  0.02459000  1
  H  1462  1  0.33516500  0.56631400  0.02437500  1
  H  1463  1  0.36919100  0.51523100  0.05900000  1
  H  1464  1  0.36970600  0.55489400  0.05915700  1
  H  1465  1  0.33549300  0.43166800  0.02704900  1
  H  1471  1  0.30566800  0.40171200  0.02667100  1
  H  1472  1  0.29466300  0.35940800  0.06049800  1
  H  1482  1  0.36705300  0.34287800  0.02535300  1
  H  1483  1  0.30638300  0.31208300  0.02534400  1
  H  1484  1  0.33623100  0.28225300  0.02505000  1
  H  1485  1  0.25484200  0.35914500  0.06041900  1
  H  1491  1  0.35581500  0.19828000  0.04890700  1
  H  1492  1  0.35639000  0.15875500  0.04917700  1
  H  1493  1  0.34627600  0.12649500  0.02599000  1
  H  1496  1  0.34641700  0.08672200  0.02623200  1
  H  1504  1  0.15041700  0.67612300  0.02676300  1
  H  1505  1  0.18270100  0.66584600  0.04991800  1
  H  1506  1  0.22226700  0.66640900  0.04964000  1
  H  1509  1  0.15055400  0.60585700  0.02288000  1
  H  1510  1  0.18307000  0.61624300  0.00010000  1
  H  1511  1  0.22263400  0.61590900  0.00073400  1
  H  1512  1  0.15065900  0.39211100  0.02671800  1
  H  1513  1  0.18299800  0.38182000  0.04982600  1
  H  1514  1  0.22256900  0.38216300  0.04954500  1
  H  1516  1  0.22265600  0.33152300  0.00078400  1
  H  1525  1  0.15064900  0.32182900  0.02313600  1
  H  1526  1  0.18309100  0.33206600  0.00015500  1
  H  1540  1  0.01085900  0.64055400  0.01102000  1
  H  1541  1  0.03843900  0.64072500  0.03854700  1
  H  1542  1  0.11060100  0.67597400  0.02681600  1
  H  1543  1  0.09917900  0.64099300  0.06919100  1
  H  1544  1  0.06941000  0.64100800  0.09909300  1
  H  1545  1  0.02217400  0.67578300  0.11084700  1
  H  1548  1  0.11074100  0.60587900  0.02234100  1
  H  1549  1  0.02744800  0.60575200  0.11086700  1
  H  1550  1  0.02272200  0.39180500  0.11095700  1
  H  1551  1  0.11083900  0.39202800  0.02706400  1
  H  1567  1  0.02745200  0.32173600  0.11109500  1
  H  1568  1  0.01107800  0.35647600  0.03876400  1
  H  1569  1  0.03857100  0.35677200  0.01114700  1
  H  1570  1  0.07011000  0.35708000  0.09999300  1
  H  1571  1  0.10000700  0.35712500  0.07000400  1
  H  1572  1  0.11083600  0.32191300  0.02289200  1
  H  1575  1  0.84318500  0.50712600  0.81387900  1
  H  1576  1  0.81340700  0.50690800  0.84378700  1
  H  1580  1  0.81293200  0.22276000  0.84331200  1
  H  1581  1  0.84283400  0.22306600  0.81332000  1
  H  1583  1  0.61773100  0.50952000  0.85414300  1
  H  1584  1  0.65753900  0.50930900  0.85388500  1
  H  1585  1  0.61799100  0.22506300  0.85367700  1
  H  1586  1  0.65780700  0.22476600  0.85351300  1
  H  1596  1  0.53116500  0.78829000  0.84302100  1
  H  1597  1  0.53103300  0.81811300  0.81318500  1
  H  1598  1  0.56618800  0.86060600  0.80156700  1
  H  1599  1  0.56632300  0.86095600  0.76180000  1
  H  1600  1  0.52873900  0.63234200  0.85323600  1
  H  1601  1  0.50628800  0.70425000  0.86331800  1
  H  1602  1  0.52855900  0.59256600  0.85350600  1
  H  1603  1  0.54328300  0.38080400  0.85579200  1
  H  1604  1  0.54260600  0.42046100  0.85572500  1
  H  1605  1  0.52156900  0.30837800  0.85552700  1
  H  1606  1  0.52060900  0.34803800  0.85575600  1
  H  1607  1  0.53452500  0.13631000  0.85400200  1
  H  1608  1  0.53417800  0.09654500  0.85361300  1
  H  1609  1  0.55621000  0.02447200  0.86313300  1
  H  1616  1  0.53111200  0.91121710  0.81248200  1
  H  1617  1  0.53112300  0.94115310  0.84240800  1
  H  1618  1  0.49599600  0.86814200  0.76171000  1
  H  1619  1  0.49603100  0.86839700  0.80148600  1
  H  1620  1  0.44545700  0.49611200  0.85567700  1
  H  1621  1  0.37329200  0.51867300  0.85604000  1
  H  1622  1  0.40574700  0.49552600  0.85598600  1
  H  1623  1  0.44574100  0.21159000  0.85585700  1
  H  1624  1  0.37360200  0.23454600  0.85583100  1
  H  1625  1  0.40603800  0.21136500  0.85591300  1
  H  1632  1  0.24783700  0.81897600  0.81251700  1
  H  1633  1  0.24805400  0.78906100  0.84246900  1
  H  1634  1  0.28286100  0.86238500  0.76163500  1
  H  1635  1  0.28290300  0.86189400  0.80140400  1
  H  1636  1  0.24483400  0.63360900  0.85379800  1
  H  1637  1  0.33359000  0.51845400  0.85599300  1
  H  1638  1  0.24445900  0.59385000  0.85422100  1
  H  1639  1  0.25768300  0.42182100  0.85564700  1
  H  1640  1  0.25861600  0.38216000  0.85579500  1
  H  1641  1  0.33389000  0.23399900  0.85552000  1
  H  1642  1  0.25051500  0.13758200  0.85330800  1
  H  1643  1  0.25037000  0.09780000  0.85307500  1
  H  1644  1  0.27308700  0.02595000  0.86314900  1
  H  1652  1  0.24806200  0.94192410  0.84295200  1
  H  1653  1  0.24796000  0.91208110  0.81314200  1
  H  1654  1  0.22307200  0.70572500  0.86339700  1
  H  1655  1  0.16146300  0.50549800  0.85383900  1
  H  1656  1  0.12164500  0.50574400  0.85360200  1
  H  1657  1  0.23593400  0.34939500  0.85580300  1
  H  1658  1  0.23664300  0.30974000  0.85565600  1
  H  1659  1  0.16162100  0.22091200  0.85386500  1
  H  1660  1  0.12180800  0.22119800  0.85361500  1
  H  1663  1  0.21274400  0.86963100  0.80164700  1
  H  1664  1  0.21253300  0.86951400  0.76187400  1
  H  1675  1  0.89311000  0.54253300  0.76234800  1
  H  1676  1  0.89333300  0.54245200  0.80211900  1
  H  1677  1  0.93638230  0.50757100  0.81301700  1
  H  1678  1  0.96637430  0.50777700  0.84291600  1
  H  1681  1  0.88968200  0.47225500  0.76234400  1
  H  1682  1  0.88930000  0.47234000  0.80211600  1
  H  1683  1  0.89377500  0.25838400  0.80230000  1
  H  1684  1  0.89384500  0.25846900  0.76252600  1
  H  1696  1  0.96589530  0.22372700  0.84373400  1
  H  1697  1  0.93603730  0.22345800  0.81391800  1
  H  1698  1  0.88903500  0.18831800  0.80226000  1
  H  1699  1  0.88970700  0.18823000  0.76249700  1
  H  1701  1  0.85394400  0.50419700  0.61795800  1
  H  1702  1  0.85360200  0.50447400  0.65773100  1
  H  1703  1  0.85472200  0.22019300  0.61803200  1
  H  1704  1  0.85428100  0.22049600  0.65779400  1
  H  1707  1  0.55625400  0.83830200  0.72922700  1
  H  1710  1  0.53468700  0.82882900  0.61736600  1
  H  1711  1  0.53432700  0.82847000  0.65713200  1
  H  1713  1  0.55686000  0.83905400  0.68971500  1
  H  1716  1  0.50621000  0.89110400  0.72939000  1
  H  1720  1  0.52852400  0.90217910  0.61782200  1
  H  1721  1  0.52871000  0.90200010  0.65760100  1
  H  1723  1  0.50592000  0.89093100  0.68986400  1
  H  1725  1  0.27261900  0.83959800  0.72922200  1
  H  1728  1  0.25033500  0.82913300  0.61765200  1
  H  1729  1  0.25008200  0.82911300  0.65742700  1
  H  1731  1  0.27289700  0.84002600  0.68970500  1
  H  1737  1  0.24415200  0.90248410  0.61753700  1
  H  1738  1  0.24444500  0.90264210  0.65731200  1
  H  1740  1  0.22254500  0.89237100  0.72939900  1
  H  1742  1  0.22192700  0.89187200  0.68987500  1
  H  1746  1  0.91621530  0.53250000  0.73007600  1
  H  1752  1  0.92733330  0.51065600  0.61840000  1
  H  1753  1  0.92717130  0.51038900  0.65817200  1
  H  1757  1  0.91602530  0.53296100  0.69055600  1
  H  1759  1  0.86700300  0.48226600  0.72972000  1
  H  1760  1  0.86773800  0.48184000  0.69020000  1
  H  1761  1  0.91689730  0.24823400  0.73026800  1
  H  1762  1  0.91682830  0.24862400  0.69074300  1
  H  1766  1  0.86724800  0.19843200  0.72984700  1
  H  1767  1  0.92814930  0.22621000  0.61863900  1
  H  1768  1  0.92788630  0.22595900  0.65841900  1
  H  1777  1  0.86811000  0.19791400  0.69034100  1
  H  1786  1  0.76197600  0.86155800  0.49620500  1
  H  1787  1  0.80179300  0.86143400  0.49626700  1
  H  1788  1  0.81351500  0.81883300  0.53140300  1
  H  1789  1  0.84343700  0.78907000  0.53140500  1
  H  1790  1  0.85413100  0.63313100  0.53476600  1
  H  1791  1  0.85449800  0.59336300  0.53507800  1
  H  1792  1  0.85643200  0.38158700  0.52069700  1
  H  1793  1  0.85614300  0.42125300  0.52152500  1
  H  1794  1  0.85650200  0.34892000  0.54351200  1
  H  1795  1  0.85647500  0.30926100  0.54299300  1
  H  1796  1  0.85417400  0.13731400  0.52924200  1
  H  1797  1  0.85376900  0.09754200  0.52940800  1
  H  1806  1  0.76200200  0.86836900  0.56649100  1
  H  1807  1  0.80181000  0.86885200  0.56638700  1
  H  1808  1  0.81257000  0.91191810  0.53131500  1
  H  1809  1  0.84242100  0.94196210  0.53142600  1
  H  1812  1  0.72953400  0.83857200  0.50634000  1
  H  1815  1  0.61773100  0.82839300  0.52846900  1
  H  1816  1  0.65755000  0.82823900  0.52874200  1
  H  1818  1  0.68996500  0.83905700  0.50593100  1
  H  1822  1  0.72960300  0.89134700  0.55637600  1
  H  1825  1  0.61785300  0.90177610  0.53436500  1
  H  1826  1  0.65766400  0.90179810  0.53408900  1
  H  1828  1  0.69004600  0.89090600  0.55686000  1
  H  1834  1  0.57635900  0.86711700  0.60593900  1
  H  1840  1  0.60619900  0.86683400  0.57610400  1
  H  1846  1  0.51799800  0.86736500  0.51772500  1
  H  1847  1  0.54552800  0.86717300  0.54532100  1
  H  1849  1  0.44553900  0.83061800  0.54227900  1
  H  1851  1  0.40584500  0.83072700  0.54290100  1
  H  1853  1  0.37312900  0.83069500  0.52013900  1
  H  1854  1  0.48661000  0.86845500  0.60660300  1
  H  1861  1  0.45669500  0.86885300  0.57674000  1
  H  1862  1  0.44552900  0.90092410  0.52095700  1
  H  1866  1  0.40582700  0.90071810  0.52009800  1
  H  1869  1  0.37315900  0.90069110  0.54293000  1
  H  1870  1  0.29227400  0.86303300  0.60666800  1
  H  1872  1  0.33343000  0.83049700  0.52105200  1
  H  1873  1  0.32223200  0.86263200  0.57684500  1
  H  1884  1  0.33346100  0.90080710  0.54236000  1
  H  1888  1  0.26100300  0.86745100  0.51774700  1
  H  1890  1  0.16129600  0.82939600  0.53399200  1
  H  1892  1  0.12148500  0.82921700  0.53374200  1
  H  1894  1  0.20252300  0.86757000  0.60587900  1
  H  1904  1  0.23344400  0.86770400  0.54530200  1
  H  1905  1  0.16113300  0.90282710  0.52866400  1
  H  1906  1  0.17272800  0.86778100  0.57599900  1
  H  1909  1  0.12131200  0.90281910  0.52897200  1
  H  1912  1  0.01707200  0.86210700  0.56652100  1
  H  1913  1  0.04952800  0.83924100  0.55620600  1
  H  1914  1  0.08908700  0.83982000  0.55665200  1
  H  1921  1  0.01702200  0.86929100  0.49625000  1
  H  1922  1  0.08893700  0.89204100  0.50607500  1
  H  1923  1  0.04936800  0.89237800  0.50652700  1
  H  1938  1  0.87749600  0.84976900  0.53134100  1
  H  1939  1  0.93663530  0.78863800  0.53151100  1
  H  1940  1  0.96648030  0.81868100  0.53143000  1
  H  1941  1  0.97726330  0.86156800  0.56645200  1
  H  1942  1  0.88943500  0.77762000  0.56654600  1
  H  1943  1  0.89377800  0.77743400  0.49645400  1
  H  1945  1  0.88991500  0.73785200  0.56674700  1
  H  1946  1  0.89365500  0.73765900  0.49648500  1
  H  1950  1  0.92773130  0.63362100  0.52922400  1
  H  1957  1  0.91675730  0.70542300  0.50672800  1
  H  1958  1  0.91663730  0.66589500  0.50644800  1
  H  1959  1  0.86810500  0.66569300  0.55733800  1
  H  1960  1  0.86730300  0.70520500  0.55672700  1
  H  1964  1  0.89246300  0.55211500  0.60654200  1
  H  1968  1  0.89277800  0.58194500  0.57672900  1
  H  1969  1  0.92792130  0.59384000  0.52899200  1
  H  1976  1  0.89301300  0.49379300  0.51835000  1
  H  1977  1  0.89292200  0.52133800  0.54592000  1
  H  1981  1  0.89157500  0.46245300  0.60719400  1
  H  1995  1  0.92646130  0.38175700  0.54353700  1
  H  1996  1  0.92647830  0.42141600  0.54292100  1
  H  1997  1  0.89146700  0.43254300  0.57734800  1
  H  2000  1  0.89433300  0.26815900  0.60736900  1
  H  2007  1  0.92658430  0.34901300  0.52082500  1
  H  2008  1  0.92685930  0.30935000  0.52175300  1
  H  2009  1  0.89469300  0.29807900  0.57753300  1
  H  2020  1  0.89309700  0.17850200  0.60668800  1
  H  2027  1  0.89330800  0.23684400  0.51851400  1
  H  2028  1  0.89320000  0.20928900  0.54607100  1
  H  2033  1  0.89280200  0.14867500  0.57686500  1
  H  2034  1  0.92761830  0.13674300  0.53506400  1
  H  2038  1  0.92739130  0.09697300  0.53466500  1
  H  2045  1  0.86674000  0.02563900  0.50689000  1
  H  2046  1  0.86756000  0.06515000  0.50661300  1
  H  2047  1  0.91660730  0.02496800  0.55647300  1
  H  2048  1  0.91649330  0.06448300  0.55711400  1
  H  2050  1  0.89360300  0.99271908  0.56668700  1
  H  2051  1  0.88907700  0.99297208  0.49647200  1
  H  2067  1  0.90493930  0.88082400  0.53143300  1
  H  2068  1  0.89354500  0.95295110  0.56648100  1
  H  2069  1  0.88841400  0.95320410  0.49644200  1
  H  2070  1  0.93562630  0.94151410  0.53130800  1
  H  2071  1  0.96553430  0.91175310  0.53139500  1
  H  2072  1  0.97720630  0.86934800  0.49635000  1
  H  2073  1  0.85630400  0.51828300  0.44590000  1
  H  2074  1  0.85641700  0.51893200  0.40624400  1
  H  2075  1  0.85645300  0.49624700  0.37349700  1
  H  2076  1  0.85625900  0.23357900  0.44607000  1
  H  2077  1  0.85645100  0.23445200  0.40640700  1
  H  2078  1  0.85649200  0.21171800  0.37369500  1
  H  2080  1  0.60690700  0.86254200  0.48646500  1
  H  2082  1  0.52122200  0.83045700  0.44515900  1
  H  2084  1  0.57707500  0.86241600  0.45651200  1
  H  2086  1  0.52044900  0.83075200  0.40549300  1
  H  2087  1  0.54334600  0.83083400  0.37287400  1
  H  2093  1  0.54260100  0.90074210  0.44536400  1
  H  2097  1  0.54327800  0.90073110  0.40570700  1
  H  2099  1  0.52060700  0.90084610  0.37292400  1
  H  2100  1  0.48710000  0.86760100  0.45714800  1
  H  2101  1  0.45737000  0.86708700  0.48687200  1
  H  2103  1  0.25895100  0.83064000  0.37299100  1
  H  2105  1  0.32167200  0.86776100  0.48697600  1
  H  2111  1  0.25791000  0.90101110  0.44522600  1
  H  2112  1  0.29198900  0.86724700  0.45721500  1
  H  2115  1  0.25889500  0.90073110  0.40556600  1
  H  2117  1  0.23654100  0.83072100  0.44529200  1
  H  2118  1  0.23607300  0.83074800  0.40562900  1
  H  2122  1  0.20201000  0.86896500  0.45644800  1
  H  2123  1  0.17213800  0.86878000  0.48636700  1
  H  2124  1  0.23621600  0.90065110  0.37280400  1
  H  2125  1  0.89411000  0.58266100  0.48707600  1
  H  2132  1  0.89450300  0.55284100  0.45714500  1
  H  2133  1  0.92672430  0.49715400  0.44588700  1
  H  2140  1  0.92645430  0.51917000  0.37355000  1
  H  2141  1  0.92653830  0.49635700  0.40622000  1
  H  2144  1  0.89295700  0.46295400  0.45776600  1
  H  2145  1  0.89345200  0.43323300  0.48747300  1
  H  2146  1  0.89303000  0.29741300  0.48764700  1
  H  2149  1  0.89353200  0.26769800  0.45793900  1
  H  2156  1  0.89172500  0.17782200  0.45728300  1
  H  2157  1  0.92664130  0.21232900  0.44605100  1
  H  2158  1  0.89186500  0.14798900  0.48720800  1
  H  2159  1  0.92653830  0.23451500  0.37368800  1
  H  2163  1  0.92653130  0.21175600  0.40639000  1
  H  2170  1  0.84325300  0.78861300  0.24716400  1
  H  2171  1  0.81325600  0.81850900  0.24725000  1
  H  2173  1  0.85403800  0.63340400  0.25029700  1
  H  2174  1  0.85626100  0.49717300  0.33383400  1
  H  2175  1  0.85431600  0.59363000  0.25072200  1
  H  2176  1  0.85653700  0.34922800  0.25926800  1
  H  2177  1  0.85625400  0.30956400  0.25843400  1
  H  2178  1  0.85637100  0.21233100  0.33403700  1
  H  2179  1  0.85445400  0.13749500  0.24485900  1
  H  2180  1  0.85404700  0.09772900  0.24505200  1
  H  2189  1  0.84354700  0.94150410  0.24745300  1
  H  2190  1  0.81377000  0.91160010  0.24728700  1
  H  2191  1  0.80228700  0.86925300  0.28231100  1
  H  2192  1  0.76247300  0.86906100  0.28241300  1
  H  2196  1  0.61810400  0.82917800  0.24439500  1
  H  2197  1  0.65791400  0.82892400  0.24470600  1
  H  2200  1  0.73008700  0.89200600  0.27212200  1
  H  2204  1  0.61838900  0.90259210  0.24989400  1
  H  2205  1  0.65820700  0.90251210  0.24964400  1
  H  2208  1  0.69052300  0.89168800  0.27252300  1
  H  2212  1  0.54288800  0.83080200  0.33321300  1
  H  2221  1  0.52160200  0.90111710  0.33326300  1
  H  2222  1  0.57746700  0.86899000  0.32202400  1
  H  2226  1  0.60732700  0.86866700  0.29209500  1
  H  2229  1  0.51844100  0.86750800  0.26076100  1
  H  2231  1  0.44601100  0.83051500  0.25750600  1
  H  2233  1  0.40630800  0.83070300  0.25839900  1
  H  2235  1  0.48748600  0.86737100  0.32131000  1
  H  2240  1  0.45778500  0.86785100  0.29156300  1
  H  2245  1  0.37361000  0.90070110  0.25845000  1
  H  2249  1  0.25817500  0.83036200  0.33333333  1
  H  2255  1  0.29235400  0.86742100  0.32134800  1
  H  2263  1  0.32208000  0.86693400  0.29162200  1
  H  2264  1  0.33390600  0.90090210  0.25758600  1
  H  2266  1  0.26145400  0.86735100  0.26077100  1
  H  2268  1  0.20237200  0.86244200  0.32197800  1
  H  2270  1  0.16160900  0.82881900  0.24995100  1
  H  2272  1  0.17254500  0.86276700  0.29202500  1
  H  2274  1  0.12178800  0.82881900  0.24975300  1
  H  2276  1  0.23689400  0.90067910  0.33315000  1
  H  2282  1  0.16174400  0.90221910  0.24422800  1
  H  2285  1  0.12193200  0.90239210  0.24457500  1
  H  2289  1  0.08951100  0.83975800  0.27273400  1
  H  2290  1  0.04994000  0.83934700  0.27238000  1
  H  2291  1  0.01751000  0.86240100  0.28250800  1
  H  2306  1  0.97769330  0.86213800  0.28241800  1
  H  2307  1  0.96622030  0.81939100  0.24730300  1
  H  2308  1  0.93644930  0.78948300  0.24730700  1
  H  2309  1  0.90547930  0.85002900  0.24724400  1
  H  2310  1  0.88960200  0.77775400  0.28230100  1
  H  2311  1  0.89017300  0.73798700  0.28244100  1
  H  2319  1  0.86750200  0.70543300  0.27236300  1
  H  2320  1  0.86813300  0.66591800  0.27286800  1
  H  2322  1  0.92763130  0.63371600  0.24464800  1
  H  2329  1  0.89166700  0.55306100  0.32259200  1
  H  2330  1  0.92657130  0.51864800  0.33388700  1
  H  2333  1  0.89185500  0.58286900  0.29264100  1
  H  2335  1  0.92772930  0.59394300  0.24452300  1
  H  2340  1  0.89329700  0.49398800  0.26141100  1
  H  2343  1  0.89360000  0.46317900  0.32200800  1
  H  2352  1  0.92669130  0.38182800  0.25922500  1
  H  2353  1  0.92695430  0.42149100  0.25826100  1
  H  2354  1  0.89315200  0.43344300  0.29232400  1
  H  2359  1  0.89285200  0.26776100  0.32221900  1
  H  2364  1  0.89340300  0.29752400  0.29255900  1
  H  2371  1  0.92672430  0.23367200  0.33402400  1
  H  2378  1  0.89452300  0.17786700  0.32271500  1
  H  2383  1  0.89317700  0.23700600  0.26159400  1
  H  2386  1  0.89410800  0.14808900  0.29274100  1
  H  2387  1  0.92790330  0.13692900  0.25063800  1
  H  2391  1  0.92767330  0.09715300  0.25027000  1
  H  2396  1  0.91686730  0.02527800  0.27244000  1
  H  2397  1  0.91673530  0.06479600  0.27290400  1
  H  2400  1  0.89393800  0.99296008  0.28270100  1
  H  2413  1  0.87789800  0.88095400  0.24731700  1
  H  2414  1  0.96673230  0.91246610  0.24741500  1
  H  2415  1  0.93674530  0.94236510  0.24739500  1
  H  2416  1  0.89417700  0.95318910  0.28252600  1
  H  2419  1  0.80224300  0.86123900  0.21222600  1
  H  2420  1  0.76243300  0.86164900  0.21215900  1
  H  2421  1  0.85483000  0.51033400  0.16185000  1
  H  2422  1  0.85444600  0.51012000  0.12208700  1
  H  2423  1  0.85663600  0.38188200  0.23645300  1
  H  2424  1  0.85659300  0.42154000  0.23694200  1
  H  2425  1  0.85426700  0.22651100  0.16188200  1
  H  2426  1  0.85405000  0.22632500  0.12210900  1
  H  2428  1  0.72997000  0.83885300  0.22246400  1
  H  2430  1  0.69041500  0.83945900  0.22195600  1
  H  2432  1  0.52925200  0.82862600  0.16107600  1
  H  2435  1  0.52943900  0.82836800  0.12130300  1
  H  2438  1  0.60668700  0.86751000  0.20245600  1
  H  2447  1  0.54599300  0.86747000  0.23319500  1
  H  2448  1  0.57686900  0.86722200  0.17259900  1
  H  2449  1  0.53498700  0.90201510  0.16076300  1
  H  2452  1  0.53460800  0.90193310  0.12099200  1
  H  2453  1  0.45717500  0.86250000  0.20170500  1
  H  2455  1  0.48712100  0.86270900  0.17186500  1
  H  2456  1  0.37360900  0.83073500  0.23557200  1
  H  2458  1  0.44597200  0.90081110  0.23615100  1
  H  2459  1  0.40627500  0.90068810  0.23557500  1
  H  2460  1  0.33391000  0.83062300  0.23617500  1
  H  2462  1  0.24495200  0.82945400  0.16087300  1
  H  2464  1  0.24527700  0.82940500  0.12110700  1
  H  2467  1  0.32276500  0.86900100  0.20176500  1
  H  2474  1  0.29284600  0.86885200  0.17189800  1
  H  2475  1  0.25073300  0.90283910  0.16095300  1
  H  2478  1  0.25049800  0.90296910  0.12117300  1
  H  2484  1  0.23392900  0.86747300  0.23317600  1
  H  2485  1  0.17325700  0.86734100  0.20239100  1
  H  2486  1  0.20309600  0.86767600  0.17255600  1
  H  2490  1  0.08945400  0.89160300  0.22179600  1
  H  2491  1  0.04989100  0.89211000  0.22232700  1
  H  2492  1  0.01752200  0.86902800  0.21221100  1
  H  2495  1  0.89399500  0.77768900  0.21221100  1
  H  2496  1  0.89395800  0.73791500  0.21218100  1
  H  2499  1  0.91664330  0.66605300  0.22195600  1
  H  2500  1  0.91694030  0.70557600  0.22234900  1
  H  2501  1  0.89280700  0.58210000  0.20298400  1
  H  2511  1  0.89329700  0.52151500  0.23383600  1
  H  2512  1  0.89312500  0.55225200  0.17319100  1
  H  2513  1  0.92830130  0.50483200  0.16132900  1
  H  2517  1  0.92809330  0.50518000  0.12155000  1
  H  2523  1  0.89451700  0.46260300  0.17257900  1
  H  2524  1  0.89486700  0.43270500  0.20243900  1
  H  2525  1  0.92661630  0.34906700  0.23656400  1
  H  2526  1  0.92663630  0.30940900  0.23718500  1
  H  2527  1  0.89173500  0.29834200  0.20267700  1
  H  2533  1  0.89190000  0.26847000  0.17279400  1
  H  2543  1  0.89302700  0.20949700  0.23399200  1
  H  2544  1  0.92770130  0.22054600  0.16164200  1
  H  2545  1  0.89268800  0.17881600  0.17332000  1
  H  2546  1  0.89285300  0.14893800  0.20308800  1
  H  2550  1  0.92766330  0.22091900  0.12186900  1
  H  2553  1  0.86703000  0.02570400  0.22282300  1
  H  2554  1  0.86782700  0.06521700  0.22237700  1
  H  2555  1  0.88953700  0.99311708  0.21247700  1
  H  2559  1  0.97771130  0.86936800  0.21228400  1
  H  2560  1  0.88917200  0.95334910  0.21247700  1
  H  2565  1  0.49641900  0.86076400  0.01688900  1
  H  2566  1  0.50685000  0.83824000  0.04944000  1
  H  2567  1  0.50658000  0.83889100  0.08895800  1
  H  2572  1  0.56671300  0.86850400  0.01663600  1
  H  2573  1  0.55650300  0.89143200  0.04897000  1
  H  2574  1  0.55714700  0.89115700  0.08848700  1
  H  2581  1  0.28338100  0.86992400  0.01686300  1
  H  2582  1  0.27297500  0.89270900  0.04925800  1
  H  2583  1  0.27327400  0.89230100  0.08878500  1
  H  2587  1  0.21308100  0.86228400  0.01665300  1
  H  2588  1  0.22326700  0.83956800  0.04913700  1
  H  2589  1  0.22265500  0.84008600  0.08864600  1
  H  2599  1  0.88961700  0.54272000  0.01741200  1
  H  2600  1  0.86728800  0.53236000  0.05010600  1
  H  2601  1  0.86814500  0.53284500  0.08961200  1
  H  2603  1  0.89428700  0.47251100  0.01744100  1
  H  2604  1  0.91724830  0.48250600  0.08916400  1
  H  2605  1  0.91731830  0.48293700  0.04964100  1
  H  2606  1  0.86807800  0.24906800  0.08971900  1
  H  2607  1  0.86738000  0.24863400  0.05020100  1
  H  2608  1  0.88988800  0.25878300  0.01753000  1
  H  2618  1  0.91679830  0.19835800  0.08940700  1
  H  2619  1  0.91703030  0.19883100  0.04988900  1
  H  2620  1  0.89401000  0.18854200  0.01766700  1
  H  2630  1  0.81289500  0.50713300  0.93687710  1
  H  2631  1  0.84289400  0.50729300  0.96677410  1
  H  2632  1  0.80177000  0.54204100  0.88976200  1
  H  2633  1  0.76196200  0.54197700  0.89011200  1
  H  2637  1  0.76221900  0.47170200  0.89372600  1
  H  2638  1  0.80203400  0.47193300  0.89398800  1
  H  2639  1  0.76206900  0.25767800  0.89014000  1
  H  2640  1  0.80187700  0.25781400  0.88969400  1
  H  2652  1  0.84359400  0.22317300  0.96621410  1
  H  2653  1  0.81372200  0.22292200  0.93640110  1
  H  2654  1  0.80228400  0.18770200  0.89384000  1
  H  2655  1  0.76247000  0.18739900  0.89367500  1
  H  2660  1  0.72950300  0.53172800  0.86729200  1
  H  2669  1  0.68994800  0.53211900  0.86794800  1
  H  2670  1  0.61803300  0.50363300  0.92752710  1
  H  2671  1  0.65785200  0.50397100  0.92744410  1
  H  2673  1  0.72982000  0.48176200  0.91674310  1
  H  2674  1  0.69025500  0.48125200  0.91646810  1
  H  2675  1  0.72970100  0.24737000  0.86723500  1
  H  2676  1  0.69014300  0.24762300  0.86772100  1
  H  2680  1  0.72998100  0.19734400  0.91662510  1
  H  2686  1  0.61812600  0.21906700  0.92705210  1
  H  2687  1  0.65793700  0.21932500  0.92706410  1
  H  2691  1  0.69042000  0.19669800  0.91618210  1
  H  2708  1  0.56635500  0.77671000  0.89318400  1
  H  2709  1  0.49618200  0.77660000  0.88903300  1
  H  2710  1  0.53117200  0.84891100  0.87718500  1
  H  2711  1  0.53133000  0.78762400  0.93612310  1
  H  2712  1  0.53146800  0.81756200  0.96604810  1
  H  2713  1  0.49638100  0.86018400  0.97712010  1
  H  2715  1  0.56649800  0.73694100  0.89294500  1
  H  2716  1  0.49615700  0.73682600  0.88940100  1
  H  2720  1  0.53446200  0.63267200  0.92675810  1
  H  2727  1  0.50595500  0.66472600  0.86737600  1
  H  2728  1  0.55702200  0.66511900  0.91572910  1
  H  2729  1  0.55646300  0.70463800  0.91598910  1
  H  2733  1  0.60628900  0.55124400  0.89244400  1
  H  2737  1  0.53482700  0.59290000  0.92684910  1
  H  2738  1  0.57645200  0.58108100  0.89210000  1
  H  2745  1  0.51807400  0.49287400  0.89244400  1
  H  2746  1  0.54561400  0.52046400  0.89237100  1
  H  2750  1  0.60698500  0.46160600  0.89362600  1
  H  2764  1  0.57714900  0.43166100  0.89393900  1
  H  2765  1  0.52135700  0.42035400  0.92605210  1
  H  2766  1  0.52057900  0.38068600  0.92581410  1
  H  2769  1  0.60724900  0.26704700  0.89123400  1
  H  2776  1  0.57746700  0.29705100  0.89103100  1
  H  2777  1  0.54344600  0.34804400  0.92573410  1
  H  2778  1  0.54294900  0.30838100  0.92581210  1
  H  2789  1  0.60637700  0.17740500  0.89203300  1
  H  2796  1  0.51828800  0.23593300  0.89257900  1
  H  2797  1  0.54576300  0.20829800  0.89249100  1
  H  2802  1  0.52894400  0.13579700  0.92740010  1
  H  2803  1  0.57648400  0.14762500  0.89227600  1
  H  2807  1  0.52916200  0.09601900  0.92718910  1
  H  2814  1  0.55679300  0.06398000  0.86732600  1
  H  2815  1  0.50635800  0.06372300  0.91633710  1
  H  2816  1  0.50669200  0.02419900  0.91646210  1
  H  2818  1  0.56652100  0.99183708  0.88894600  1
  H  2819  1  0.49624100  0.99194008  0.89352500  1
  H  2833  1  0.53125000  0.87985700  0.90472810  1
  H  2834  1  0.56650100  0.86852500  0.97686510  1
  H  2835  1  0.53139000  0.91066110  0.96533510  1
  H  2836  1  0.53142200  0.94047510  0.93550910  1
  H  2837  1  0.49625100  0.95216510  0.89350000  1
  H  2838  1  0.56635500  0.95207410  0.88832000  1
  H  2839  1  0.48670500  0.58175200  0.89098600  1
  H  2846  1  0.44578100  0.51756500  0.92594210  1
  H  2847  1  0.45678200  0.55189700  0.89085300  1
  H  2851  1  0.40609300  0.51845300  0.92593410  1
  H  2855  1  0.37317900  0.49596400  0.92606310  1
  H  2858  1  0.45743800  0.46203900  0.89290200  1
  H  2859  1  0.48716300  0.43230500  0.89237300  1
  H  2860  1  0.48749000  0.29656200  0.89272400  1
  H  2863  1  0.45771500  0.26689900  0.89225300  1
  H  2864  1  0.44585400  0.23290600  0.92616510  1
  H  2871  1  0.45686500  0.17703300  0.89406900  1
  H  2872  1  0.48673500  0.14711400  0.89367800  1
  H  2873  1  0.40616300  0.23415700  0.92590910  1
  H  2880  1  0.37323000  0.21169000  0.92580410  1
  H  2891  1  0.24836200  0.85040600  0.90473710  1
  H  2892  1  0.24836500  0.81967600  0.96537810  1
  H  2893  1  0.24816900  0.78982400  0.93558210  1
  H  2894  1  0.28318300  0.77807600  0.89354000  1
  H  2895  1  0.28320300  0.73830600  0.89357800  1
  H  2899  1  0.25066800  0.63418300  0.92730710  1
  H  2904  1  0.27323900  0.66649600  0.91629210  1
  H  2905  1  0.27290500  0.70601400  0.91640810  1
  H  2913  1  0.32250900  0.55306900  0.89413100  1
  H  2914  1  0.33348800  0.49722300  0.92633010  1
  H  2917  1  0.29266600  0.58301400  0.89374100  1
  H  2918  1  0.25086500  0.59441100  0.92754510  1
  H  2924  1  0.26105100  0.49420100  0.89278600  1
  H  2927  1  0.32160400  0.46320700  0.89239800  1
  H  2936  1  0.29181700  0.43355400  0.89287700  1
  H  2941  1  0.32189000  0.26812400  0.89269400  1
  H  2946  1  0.29215600  0.29785200  0.89217600  1
  H  2947  1  0.25800600  0.30973000  0.92594710  1
  H  2948  1  0.25875300  0.34939800  0.92578710  1
  H  2961  1  0.33354300  0.21261500  0.92580710  1
  H  2962  1  0.32256700  0.17826500  0.89071400  1
  H  2967  1  0.26126100  0.23727500  0.89233800  1
  H  2970  1  0.29264600  0.14840700  0.89081400  1
  H  2972  1  0.24482700  0.13730200  0.92670610  1
  H  2979  1  0.27338900  0.06548300  0.86717500  1
  H  2981  1  0.24522400  0.09752600  0.92664410  1
  H  2983  1  0.28330000  0.99341008  0.88937400  1
  H  2997  1  0.28327600  0.95362910  0.88902100  1
  H  2998  1  0.24807000  0.88132700  0.87716600  1
  H  2999  1  0.24837200  0.94267510  0.93604010  1
  H  3000  1  0.24839900  0.91277410  0.96599410  1
  H  3001  1  0.28341100  0.87019500  0.97708710  1
  H  3005  1  0.21328400  0.86195500  0.97688710  1
  H  3006  1  0.21307900  0.77815500  0.88843700  1
  H  3007  1  0.21291700  0.73839600  0.88909300  1
  H  3010  1  0.22247400  0.66622800  0.86762600  1
  H  3011  1  0.20290000  0.58255100  0.89269200  1
  H  3021  1  0.23360400  0.52186600  0.89258200  1
  H  3022  1  0.17300000  0.55277500  0.89246900  1
  H  3023  1  0.16118900  0.51069700  0.92727910  1
  H  3027  1  0.12137300  0.51038800  0.92721210  1
  H  3033  1  0.17208300  0.46314700  0.89139200  1
  H  3034  1  0.20184000  0.43311600  0.89117700  1
  H  3035  1  0.23586600  0.38203300  0.92580210  1
  H  3036  1  0.23638100  0.42169600  0.92595910  1
  H  3037  1  0.20216800  0.29847000  0.89385100  1
  H  3043  1  0.17234300  0.26851400  0.89347300  1
  H  3044  1  0.16133800  0.22621000  0.92730010  1
  H  3054  1  0.23372800  0.20968000  0.89215500  1
  H  3055  1  0.17305800  0.17888500  0.89214600  1
  H  3056  1  0.20290600  0.14905500  0.89185200  1
  H  3057  1  0.12151700  0.22594700  0.92722110  1
  H  3063  1  0.22249000  0.06508200  0.91570910  1
  H  3064  1  0.22306500  0.02555700  0.91597910  1
  H  3065  1  0.21295100  0.99329708  0.89279200  1
  H  3068  1  0.21309200  0.95352410  0.89303400  1
  H  3076  1  0.01709200  0.54292500  0.89356500  1
  H  3077  1  0.04937600  0.53264800  0.91672010  1
  H  3078  1  0.08894200  0.53321100  0.91644210  1
  H  3081  1  0.01722900  0.47265900  0.88968200  1
  H  3082  1  0.04974500  0.48304500  0.86690200  1
  H  3083  1  0.08930900  0.48271100  0.86753600  1
  H  3084  1  0.01733400  0.25891300  0.89352000  1
  H  3085  1  0.04967300  0.24862200  0.91662810  1
  H  3086  1  0.08924400  0.24896500  0.91634710  1
  H  3088  1  0.08933100  0.19832500  0.86758600  1
  H  3097  1  0.01732400  0.18863100  0.88993800  1
  H  3098  1  0.04976600  0.19886800  0.86695700  1
  H  3112  1  0.87753400  0.50735600  0.87782200  1
  H  3113  1  0.90511430  0.50752700  0.90534910  1
  H  3114  1  0.97727630  0.54277600  0.89361800  1
  H  3115  1  0.96585430  0.50779500  0.93599310  1
  H  3116  1  0.93608530  0.50781000  0.96589510  1
  H  3117  1  0.88884900  0.54258500  0.97764910  1
  H  3120  1  0.97741630  0.47268100  0.88914300  1
  H  3121  1  0.89412300  0.47255400  0.97766910  1
  H  3122  1  0.88939700  0.25860700  0.97775910  1
  H  3123  1  0.97751430  0.25883000  0.89386600  1
  H  3139  1  0.89412700  0.18853800  0.97789710  1
  H  3140  1  0.87775300  0.22327800  0.90556610  1
  H  3141  1  0.90524630  0.22357400  0.87794900  1
  H  3142  1  0.93678530  0.22388200  0.96679510  1
  H  3143  1  0.96668230  0.22392700  0.93680610  1
  H  3144  1  0.97751130  0.18871500  0.88969400  1
  C  1  1  0.97970900  0.64033900  0.96379200  1
  C  2  1  0.96347800  0.64023100  0.98009700  1
  C  6  1  0.96301700  0.35609000  0.97954300  1
  C  7  1  0.97925600  0.35624800  0.96325100  1
  C  15  1  0.66446700  0.93821200  0.97937000  1
  C  16  1  0.66440800  0.95446900  0.96310500  1
  C  17  1  0.66445200  0.97527200  0.97353500  1
  C  19  1  0.66442200  0.99613700  0.96224700  1
  C  20  1  0.66442700  0.99595800  0.93845200  1
  C  21  1  0.66448800  0.99603800  0.89070900  1
  C  22  1  0.68461600  0.99466400  0.90301900  1
  C  23  1  0.68462900  0.99464700  0.92647400  1
  C  39  1  0.66444000  0.02062700  0.97297600  1
  C  40  1  0.66445500  0.04135100  0.96241800  1
  C  41  1  0.66447200  0.05761300  0.97867300  1
  C  42  1  0.64425500  0.00067900  0.92642700  1
  C  43  1  0.64432600  0.00072100  0.90297000  1
  C  55  1  0.38129400  0.97598100  0.97299200  1
  C  56  1  0.38124000  0.95524800  0.96245200  1
  C  57  1  0.38134700  0.93900000  0.97872100  1
  C  58  1  0.40131100  0.99601200  0.92638000  1
  C  59  1  0.40119600  0.99612100  0.90292500  1
  C  73  1  0.38137900  0.05840200  0.97931400  1
  C  74  1  0.38131200  0.04213100  0.96306400  1
  C  75  1  0.38129000  0.02133700  0.97351200  1
  C  77  1  0.38123700  0.00046300  0.96224400  1
  C  78  1  0.38116000  0.00063900  0.93845000  1
  C  79  1  0.38100900  0.00086600  0.89071000  1
  C  89  1  0.36090200  0.00213600  0.90306400  1
  C  90  1  0.36093500  0.00201800  0.92652000  1
  C  93  1  0.00394500  0.64045600  0.97417600  1
  C  94  1  0.02479800  0.64058900  0.96283900  1
  C  95  1  0.04592700  0.64071200  0.97353900  1
  C  97  1  0.08294800  0.64087800  0.97919700  1
  C  98  1  0.06665700  0.64078200  0.96295600  1
  C  99  1  0.02458700  0.64059700  0.93904300  1
  C  100  1  0.02582200  0.66077000  0.92704300  1
  C  101  1  0.02472500  0.64059000  0.89130000  1
  C  102  1  0.02589500  0.66072500  0.90358800  1
  C  107  1  0.02339000  0.62042100  0.92704000  1
  C  108  1  0.02343700  0.62046100  0.90358400  1
  C  113  1  0.02621300  0.37671000  0.92721600  1
  C  114  1  0.02643800  0.37666700  0.90376100  1
  C  115  1  0.04539000  0.35669600  0.97428300  1
  C  116  1  0.06620400  0.35672700  0.96383900  1
  C  117  1  0.08248300  0.35685400  0.98009400  1
  C  118  1  0.02450300  0.35654600  0.96300500  1
  C  119  1  0.00340800  0.35636900  0.97377000  1
  C  120  1  0.02467800  0.35655100  0.93920800  1
  C  121  1  0.02512700  0.35654800  0.89146300  1
  C  122  1  0.02357700  0.33643100  0.90373900  1
  C  123  1  0.02337200  0.33639000  0.92719300  1
  C  133  1  0.66453700  0.99617000  0.86678300  1
  C  134  1  0.67904400  0.98224900  0.85443200  1
  C  136  1  0.66678200  0.97682600  0.75893300  1
  C  137  1  0.66673500  0.97670700  0.78238600  1
  C  140  1  0.67913400  0.98241600  0.83097700  1
  C  142  1  0.66473500  0.99652900  0.81871900  1
  C  143  1  0.65011600  0.01365300  0.85452300  1
  C  145  1  0.66484500  0.00010200  0.79479900  1
  C  146  1  0.66304500  0.02027300  0.78265100  1
  C  147  1  0.66313000  0.02047800  0.75919600  1
  C  150  1  0.65022400  0.01384100  0.83106500  1
  C  152  1  0.39534800  0.98348600  0.85442900  1
  C  154  1  0.38241800  0.97727800  0.78255400  1
  C  155  1  0.38236300  0.97719100  0.75910000  1
  C  158  1  0.39522900  0.98344500  0.83097400  1
  C  160  1  0.38092900  0.00088600  0.86678400  1
  C  161  1  0.38059400  0.00078100  0.79480000  1
  C  162  1  0.38070700  0.00082700  0.81872100  1
  C  163  1  0.37870000  0.02084200  0.75903300  1
  C  164  1  0.37870700  0.02084400  0.78248800  1
  C  167  1  0.36640800  0.01487800  0.85452900  1
  C  169  1  0.36630800  0.01486000  0.83107000  1
  C  171  1  0.02489500  0.64058700  0.86737300  1
  C  172  1  0.03893900  0.65510100  0.85516800  1
  C  173  1  0.01104400  0.62606200  0.85496600  1
  C  175  1  0.04574400  0.64257500  0.75977600  1
  C  176  1  0.04555400  0.64259000  0.78323000  1
  C  177  1  0.02538200  0.64063900  0.79538500  1
  C  178  1  0.00536000  0.63872100  0.78297700  1
  C  179  1  0.00546500  0.63875100  0.75952300  1
  C  182  1  0.03911900  0.65509400  0.83171100  1
  C  183  1  0.02523300  0.64060400  0.81930700  1
  C  184  1  0.01119100  0.62608700  0.83150600  1
  C  186  1  0.02567800  0.64066500  0.74764700  1
  C  191  1  0.02535500  0.35653800  0.86753600  1
  C  192  1  0.03954600  0.37092000  0.85534600  1
  C  193  1  0.01139800  0.34213100  0.85511000  1
  C  197  1  0.00623800  0.35458100  0.75963100  1
  C  198  1  0.00607100  0.35458100  0.78308400  1
  C  199  1  0.02606800  0.35641300  0.79554300  1
  C  200  1  0.04628500  0.35820900  0.78343900  1
  C  201  1  0.04653900  0.35815100  0.75998200  1
  C  202  1  0.03979600  0.37087000  0.83188800  1
  C  203  1  0.02583800  0.35645900  0.81946700  1
  C  204  1  0.01162900  0.34209600  0.83165400  1
  C  206  1  0.02649500  0.35634800  0.74780300  1
  C  207  1  0.96357200  0.95522400  0.66458100  1
  C  208  1  0.97988100  0.93899800  0.66459600  1
  C  210  1  0.97397200  0.97604900  0.66452900  1
  C  211  1  0.92683600  0.99536400  0.64435000  1
  C  212  1  0.90336300  0.99524900  0.64440300  1
  C  213  1  0.89108700  0.99644800  0.66454800  1
  C  226  1  0.96264200  0.00028600  0.66451100  1
  C  227  1  0.93884000  0.00003700  0.66452400  1
  C  228  1  0.97330200  0.02142300  0.66452600  1
  C  230  1  0.97887100  0.05843200  0.66457300  1
  C  231  1  0.96266000  0.04211200  0.66451800  1
  C  232  1  0.92684700  0.00118400  0.68471200  1
  C  233  1  0.90337500  0.00109700  0.68468100  1
  C  238  1  0.86715400  0.99644700  0.66456300  1
  C  239  1  0.85483100  0.98245700  0.65010600  1
  C  241  1  0.78284100  0.97643100  0.66287300  1
  C  242  1  0.75936700  0.97642600  0.66290600  1
  C  245  1  0.83135400  0.98246400  0.65013400  1
  C  247  1  0.79515000  0.99651100  0.66462900  1
  C  248  1  0.81907800  0.99648200  0.66460100  1
  C  249  1  0.85487200  0.01385300  0.67903300  1
  C  251  1  0.75943600  0.02010300  0.66640600  1
  C  252  1  0.78290600  0.02002300  0.66641400  1
  C  255  1  0.83139900  0.01387800  0.67904500  1
  C  257  1  0.74740300  0.99658800  0.66466600  1
  C  258  1  0.70651900  0.00027000  0.72241700  1
  C  259  1  0.66482500  0.00053300  0.72326600  1
  C  260  1  0.64373100  0.00073900  0.71250400  1
  C  261  1  0.66498800  0.00043000  0.74706400  1
  C  263  1  0.62300600  0.00123200  0.72306800  1
  C  264  1  0.71286500  0.00002000  0.64339300  1
  C  265  1  0.72359800  0.00006500  0.66448800  1
  C  266  1  0.71232700  0.00022100  0.68535800  1
  C  267  1  0.72278500  0.00015500  0.70615200  1
  C  272  1  0.68570200  0.00033800  0.71198100  1
  C  276  1  0.57060600  0.97799200  0.67083300  1
  C  278  1  0.54714400  0.97806400  0.67094600  1
  C  280  1  0.49848300  0.97802900  0.65850200  1
  C  283  1  0.61784000  0.00059100  0.64411000  1
  C  284  1  0.61727800  0.00077300  0.68607400  1
  C  285  1  0.60674700  0.00142400  0.70681600  1
  C  286  1  0.60650700  0.00068600  0.66497600  1
  C  287  1  0.58265400  0.00066400  0.66480200  1
  C  288  1  0.57059800  0.01991300  0.65870000  1
  C  291  1  0.60741400  0.00042800  0.62330000  1
  C  292  1  0.53480400  0.00060800  0.66467400  1
  C  293  1  0.54713400  0.01978200  0.65845100  1
  C  295  1  0.49849900  0.01974800  0.67099600  1
  C  296  1  0.51082700  0.00059600  0.66470100  1
  C  299  1  0.47501900  0.97789700  0.65880200  1
  C  302  1  0.43883300  0.99643000  0.70689800  1
  C  303  1  0.38073000  0.00068900  0.72326800  1
  C  304  1  0.40183900  0.00050100  0.71253700  1
  C  305  1  0.42255100  0.00000800  0.72313000  1
  C  306  1  0.38052900  0.00069300  0.74706500  1
  C  307  1  0.42781900  0.00064300  0.64417700  1
  C  308  1  0.42832900  0.00046000  0.68614200  1
  C  309  1  0.43912500  0.00054400  0.66505700  1
  C  310  1  0.46297700  0.00054600  0.66490700  1
  C  311  1  0.47503700  0.01982300  0.67091800  1
  C  313  1  0.43827500  0.00082400  0.62338100  1
  C  317  1  0.28630100  0.97743900  0.66614300  1
  C  319  1  0.26283100  0.97742500  0.66616400  1
  C  321  1  0.33903800  0.00085400  0.72236100  1
  C  324  1  0.33280300  0.00110900  0.64332400  1
  C  325  1  0.32204900  0.00103200  0.66440800  1
  C  326  1  0.33333333  0.00091600  0.68529300  1
  C  328  1  0.35987200  0.00085700  0.71195500  1
  C  329  1  0.32279700  0.00092700  0.70607000  1
  C  330  1  0.29824700  0.00101700  0.66455800  1
  C  331  1  0.28620500  0.02114700  0.66297300  1
  C  335  1  0.25050900  0.00090200  0.66456300  1
  C  336  1  0.26273500  0.02104700  0.66295100  1
  C  338  1  0.21433400  0.98328300  0.67890800  1
  C  339  1  0.19086300  0.98322700  0.67892300  1
  C  343  1  0.14233100  0.99584000  0.68472100  1
  C  344  1  0.15459300  0.00062100  0.66458100  1
  C  345  1  0.17852000  0.00069600  0.66456900  1
  C  346  1  0.19077300  0.01484000  0.65020400  1
  C  347  1  0.21424800  0.01492000  0.65020900  1
  C  348  1  0.22658500  0.00083700  0.66456100  1
  C  352  1  0.14229900  0.00189600  0.64445300  1
  C  353  1  0.00406600  0.94948300  0.66461400  1
  C  354  1  0.07239400  0.97556800  0.66463600  1
  C  356  1  0.04605000  0.94904700  0.66462300  1
  C  357  1  0.06683100  0.93856300  0.66467100  1
  C  358  1  0.08304000  0.95488200  0.66463600  1
  C  359  1  0.02497500  0.93824600  0.66463300  1
  C  360  1  0.02487200  0.91445100  0.66468400  1
  C  361  1  0.02623300  0.90239700  0.64455000  1
  C  362  1  0.02636200  0.87894200  0.64466100  1
  C  363  1  0.02373300  0.87904900  0.68491500  1
  C  364  1  0.02362200  0.90250400  0.68488900  1
  C  365  1  0.11886100  0.99571600  0.68477400  1
  C  372  1  0.02512300  0.86671100  0.66482600  1
  C  375  1  0.00590500  0.75838700  0.66705300  1
  C  376  1  0.02592300  0.77080600  0.66520200  1
  C  377  1  0.04611900  0.75866700  0.66340700  1
  C  379  1  0.02531700  0.84278700  0.66490700  1
  C  380  1  0.01140800  0.83042200  0.67941400  1
  C  381  1  0.01160100  0.80696600  0.67950300  1
  C  382  1  0.02573700  0.79472500  0.66511400  1
  C  383  1  0.03966100  0.80708600  0.65062000  1
  C  384  1  0.03944200  0.83054200  0.65050900  1
  C  389  1  0.02586000  0.64049900  0.72384700  1
  C  390  1  0.02604300  0.66136400  0.71257600  1
  C  391  1  0.02595200  0.68215800  0.72301800  1
  C  393  1  0.02626200  0.72307200  0.66528400  1
  C  394  1  0.00602800  0.73493400  0.66707200  1
  C  395  1  0.04632900  0.73521100  0.66346400  1
  C  399  1  0.02618200  0.68798900  0.68596400  1
  C  400  1  0.02608700  0.69842200  0.70676500  1
  C  401  1  0.02637200  0.69927400  0.66510500  1
  C  402  1  0.02657000  0.68853300  0.64401700  1
  C  406  1  0.02703300  0.69912300  0.62332100  1
  C  407  1  0.02582200  0.61941700  0.71309000  1
  C  408  1  0.02536500  0.59871300  0.72365900  1
  C  410  1  0.02660200  0.58313000  0.62390900  1
  C  412  1  0.02637300  0.59353200  0.64472600  1
  C  413  1  0.02624700  0.58218500  0.66558200  1
  C  414  1  0.02603700  0.59296400  0.68667200  1
  C  416  1  0.02535000  0.58245500  0.70741700  1
  C  417  1  0.02632700  0.55834100  0.66540700  1
  C  418  1  0.04563500  0.54633300  0.67146200  1
  C  419  1  0.00709600  0.54623800  0.65928800  1
  C  420  1  0.00727800  0.52279200  0.65905300  1
  C  421  1  0.02648700  0.51050300  0.66529400  1
  C  422  1  0.04561900  0.52288800  0.67157200  1
  C  426  1  0.02683300  0.37760100  0.71325300  1
  C  427  1  0.02728700  0.39830200  0.72383200  1
  C  429  1  0.02669800  0.43869400  0.66557800  1
  C  430  1  0.00737800  0.45072300  0.67156100  1
  C  431  1  0.04594500  0.45077700  0.65948000  1
  C  432  1  0.04576700  0.47422300  0.65916800  1
  C  433  1  0.02654800  0.48653400  0.66533500  1
  C  434  1  0.00740300  0.47417000  0.67161700  1
  C  438  1  0.02651200  0.41391100  0.62408200  1
  C  440  1  0.02667300  0.40350500  0.64489800  1
  C  441  1  0.02674800  0.41484800  0.66575500  1
  C  442  1  0.02683700  0.40406400  0.68684300  1
  C  444  1  0.02744800  0.41456500  0.70759400  1
  C  445  1  0.02664500  0.35651600  0.72400400  1
  C  446  1  0.02646800  0.33565200  0.71272500  1
  C  447  1  0.02639500  0.31485500  0.72316500  1
  C  450  1  0.02634300  0.30903200  0.68610900  1
  C  451  1  0.02627200  0.29859500  0.70690600  1
  C  452  1  0.02615800  0.29775200  0.66524700  1
  C  453  1  0.02610800  0.30850100  0.64416000  1
  C  457  1  0.02564300  0.29792200  0.62345900  1
  C  458  1  0.02594200  0.27395500  0.66541300  1
  C  459  1  0.04600400  0.26178900  0.66710300  1
  C  460  1  0.00569100  0.26211700  0.66364700  1
  C  463  1  0.04577500  0.23833400  0.66704500  1
  C  464  1  0.02556800  0.22621500  0.66523000  1
  C  465  1  0.00555100  0.23866200  0.66354400  1
  C  467  1  0.02495200  0.15422000  0.66486700  1
  C  468  1  0.01093100  0.16671900  0.65058500  1
  C  469  1  0.01113100  0.19017700  0.65070300  1
  C  470  1  0.02538000  0.20229100  0.66509000  1
  C  471  1  0.03942700  0.18979400  0.67934800  1
  C  472  1  0.03920900  0.16633600  0.67924600  1
  C  477  1  0.02471000  0.13029100  0.66478900  1
  C  480  1  0.08305100  0.00009500  0.66460800  1
  C  481  1  0.10685000  0.00034600  0.66460300  1
  C  482  1  0.00304100  0.04795000  0.66453800  1
  C  483  1  0.02412000  0.05874900  0.66458400  1
  C  484  1  0.04502500  0.04750500  0.66460100  1
  C  486  1  0.07172200  0.02093900  0.66458300  1
  C  487  1  0.08212800  0.04175800  0.66458600  1
  C  488  1  0.06582100  0.05798400  0.66455600  1
  C  489  1  0.11882900  0.00174200  0.64442200  1
  C  490  1  0.02425800  0.08254600  0.66464900  1
  C  491  1  0.02590000  0.09447600  0.68483500  1
  C  492  1  0.02613000  0.11793000  0.68486200  1
  C  493  1  0.02304900  0.11807800  0.64464300  1
  C  494  1  0.02283500  0.09462200  0.64453100  1
  C  507  1  0.72347800  0.99619200  0.62270200  1
  C  509  1  0.65911900  0.97788200  0.57015400  1
  C  511  1  0.70724700  0.99616500  0.60642000  1
  C  513  1  0.65891600  0.97806700  0.54670800  1
  C  516  1  0.64450000  0.00049800  0.61745200  1
  C  517  1  0.66537300  0.00040300  0.60610900  1
  C  518  1  0.68647000  0.00021500  0.61690600  1
  C  519  1  0.66521500  0.00048800  0.58226600  1
  C  520  1  0.67128100  0.01978700  0.57027200  1
  C  522  1  0.62366600  0.00066100  0.60704800  1
  C  523  1  0.66517300  0.00065600  0.53443200  1
  C  524  1  0.67142600  0.01977300  0.54682700  1
  C  526  1  0.66526200  0.00071800  0.51046400  1
  C  530  1  0.37453700  0.97808200  0.57023000  1
  C  532  1  0.37451700  0.97810500  0.54678400  1
  C  534  1  0.42204600  0.00056800  0.60710800  1
  C  535  1  0.40119700  0.00073400  0.61748200  1
  C  536  1  0.38034200  0.00082100  0.60610500  1
  C  537  1  0.38054400  0.00076800  0.58226300  1
  C  538  1  0.38669800  0.01998600  0.57019000  1
  C  541  1  0.38703000  0.01981200  0.54674600  1
  C  542  1  0.38084900  0.00061600  0.53443000  1
  C  544  1  0.38092400  0.00055800  0.51046300  1
  C  547  1  0.35923000  0.00096700  0.61687100  1
  C  548  1  0.32221400  0.00154300  0.62262000  1
  C  549  1  0.33846600  0.00161200  0.60635900  1
  C  554  1  0.02660500  0.66213700  0.61754200  1
  C  555  1  0.02722000  0.68289400  0.60705100  1
  C  556  1  0.02654700  0.64105300  0.60674600  1
  C  557  1  0.02653200  0.64089700  0.58290100  1
  C  558  1  0.00722800  0.64688600  0.57085000  1
  C  559  1  0.04581500  0.63486500  0.57084100  1
  C  562  1  0.00730300  0.64701700  0.54740300  1
  C  563  1  0.02649000  0.64082300  0.53505900  1
  C  564  1  0.04569500  0.63465300  0.54739300  1
  C  565  1  0.04563500  0.64721500  0.49876600  1
  C  566  1  0.02648300  0.64087300  0.51109000  1
  C  567  1  0.00731100  0.63464600  0.49873600  1
  C  570  1  0.02638000  0.59938100  0.60766700  1
  C  571  1  0.02647800  0.62019100  0.61808000  1
  C  575  1  0.02675200  0.39766400  0.60783900  1
  C  576  1  0.02657500  0.37685200  0.61824800  1
  C  578  1  0.02628300  0.33490600  0.61769500  1
  C  579  1  0.02560200  0.31415600  0.60719400  1
  C  580  1  0.02645800  0.35599300  0.60691000  1
  C  581  1  0.02647500  0.35616100  0.58306600  1
  C  582  1  0.04576900  0.35015700  0.57100600  1
  C  583  1  0.00720100  0.36224700  0.57101600  1
  C  588  1  0.04569500  0.35007200  0.54756000  1
  C  589  1  0.02652200  0.35633100  0.53522800  1
  C  590  1  0.00732800  0.36251600  0.54757000  1
  C  592  1  0.00736600  0.35005200  0.49892300  1
  C  593  1  0.02652800  0.35633800  0.51125900  1
  C  594  1  0.04571000  0.36256100  0.49891800  1
  C  595  1  0.97387300  0.97553400  0.38041300  1
  C  596  1  0.97962200  0.93855400  0.38038500  1
  C  597  1  0.96333200  0.95479400  0.38042200  1
  C  609  1  0.93930500  0.00014700  0.38046300  1
  C  610  1  0.89154900  0.00026000  0.38048700  1
  C  611  1  0.96310900  0.00001000  0.38045700  1
  C  612  1  0.97434100  0.02090900  0.38050800  1
  C  613  1  0.96384100  0.04168400  0.38051000  1
  C  614  1  0.98007200  0.05798800  0.38059000  1
  C  615  1  0.92731800  0.00155800  0.40063900  1
  C  616  1  0.90384500  0.00162800  0.40060800  1
  C  622  1  0.75977400  0.97720500  0.37867800  1
  C  623  1  0.78324600  0.97714700  0.37868200  1
  C  626  1  0.86761600  0.00031300  0.38049200  1
  C  627  1  0.85534500  0.01446200  0.39483700  1
  C  629  1  0.79560800  0.00059400  0.38037000  1
  C  630  1  0.78341200  0.02075600  0.38200700  1
  C  631  1  0.75993900  0.02090000  0.38194700  1
  C  634  1  0.83186900  0.01455500  0.39480000  1
  C  635  1  0.81953700  0.00048600  0.38042800  1
  C  637  1  0.74785800  0.00079900  0.38029700  1
  C  638  1  0.67156300  0.97817300  0.47466700  1
  C  639  1  0.67158300  0.97820000  0.49811400  1
  C  641  1  0.65910500  0.01991600  0.49814400  1
  C  642  1  0.62406900  0.00069800  0.43781200  1
  C  643  1  0.64491300  0.00082700  0.42742400  1
  C  644  1  0.66577700  0.00090200  0.43878700  1
  C  645  1  0.68688400  0.00098700  0.42800800  1
  C  646  1  0.70765200  0.00161200  0.43851100  1
  C  647  1  0.66558500  0.00086400  0.46263000  1
  C  648  1  0.65945700  0.02009500  0.47469900  1
  C  651  1  0.71330400  0.00100900  0.40154300  1
  C  652  1  0.72390000  0.00146900  0.42224200  1
  C  653  1  0.72405300  0.00085400  0.38045700  1
  C  658  1  0.57106800  0.97791200  0.38615100  1
  C  660  1  0.54760600  0.97803700  0.38643400  1
  C  662  1  0.49895400  0.97806900  0.37392500  1
  C  664  1  0.60783200  0.00092600  0.42154600  1
  C  665  1  0.61827600  0.00070600  0.40074600  1
  C  666  1  0.60695900  0.00055400  0.37987200  1
  C  667  1  0.58310900  0.00055900  0.38003200  1
  C  669  1  0.57104800  0.01983000  0.37400100  1
  C  670  1  0.53526200  0.00059800  0.38021700  1
  C  671  1  0.51128700  0.00060400  0.38023300  1
  C  672  1  0.49895400  0.01976800  0.38648400  1
  C  674  1  0.54758600  0.01975000  0.37391500  1
  C  675  1  0.38715200  0.97796400  0.49817900  1
  C  676  1  0.38694800  0.97779000  0.47473100  1
  C  678  1  0.47549100  0.97799000  0.37404100  1
  C  679  1  0.42243600  0.00051600  0.43784700  1
  C  680  1  0.40160200  0.00041000  0.42744200  1
  C  681  1  0.38072900  0.00034600  0.43878600  1
  C  682  1  0.38088400  0.00041100  0.46262800  1
  C  684  1  0.37484700  0.01971300  0.47463100  1
  C  685  1  0.37468600  0.01968500  0.49807400  1
  C  686  1  0.43868800  0.00028300  0.42159300  1
  C  687  1  0.42826000  0.00051900  0.40078400  1
  C  688  1  0.43959100  0.00067800  0.37991900  1
  C  689  1  0.46344200  0.00065400  0.38009400  1
  C  690  1  0.47549100  0.01990000  0.38622100  1
  C  695  1  0.33885500  0.99622200  0.43846900  1
  C  697  1  0.28667600  0.97688600  0.38195500  1
  C  699  1  0.32262400  0.99637800  0.42218700  1
  C  701  1  0.26320600  0.97698100  0.38203700  1
  C  703  1  0.35963300  0.00025100  0.42798700  1
  C  706  1  0.33324200  0.00023600  0.40149800  1
  C  707  1  0.32251400  0.00039600  0.38040200  1
  C  708  1  0.29871100  0.00040100  0.38022700  1
  C  709  1  0.28675600  0.02057600  0.37855500  1
  C  711  1  0.25097400  0.00050800  0.38035800  1
  C  712  1  0.26328600  0.02058600  0.37858700  1
  C  714  1  0.14278100  0.99603600  0.40069900  1
  C  715  1  0.21477400  0.98318900  0.39494700  1
  C  716  1  0.19129900  0.98323100  0.39501300  1
  C  720  1  0.15506200  0.00060800  0.38055800  1
  C  721  1  0.17898800  0.00062300  0.38055500  1
  C  722  1  0.22705200  0.00056800  0.38045000  1
  C  723  1  0.08279800  0.95570000  0.38049000  1
  C  724  1  0.06656900  0.93939500  0.38048200  1
  C  725  1  0.04572400  0.94977800  0.38043300  1
  C  727  1  0.07229400  0.97647100  0.38051300  1
  C  728  1  0.00374300  0.94913900  0.38042200  1
  C  729  1  0.02487200  0.93844000  0.38042000  1
  C  730  1  0.02510700  0.91464600  0.38045000  1
  C  731  1  0.02387500  0.90266400  0.40063400  1
  C  732  1  0.02402700  0.87920900  0.40062400  1
  C  733  1  0.11930700  0.99606700  0.40073600  1
  C  740  1  0.02541800  0.86690500  0.38051500  1
  C  741  1  0.02583500  0.77099300  0.38065500  1
  C  742  1  0.00578800  0.75862400  0.38255300  1
  C  743  1  0.02552700  0.84297900  0.38054600  1
  C  744  1  0.02572800  0.79491400  0.38061100  1
  C  745  1  0.01164900  0.80717600  0.39503800  1
  C  746  1  0.01155900  0.83063400  0.39501300  1
  C  749  1  0.04599700  0.75880000  0.37883300  1
  C  751  1  0.02626300  0.66234800  0.42860100  1
  C  752  1  0.02556700  0.68310900  0.43908200  1
  C  753  1  0.02643700  0.64127000  0.43940300  1
  C  754  1  0.02643800  0.64111300  0.46325100  1
  C  755  1  0.04571000  0.64716500  0.47532000  1
  C  756  1  0.00718300  0.63495300  0.47529200  1
  C  759  1  0.02606000  0.72325600  0.38081100  1
  C  760  1  0.00585500  0.73516900  0.38260300  1
  C  762  1  0.04615000  0.73534700  0.37893100  1
  C  764  1  0.02620300  0.69945900  0.38101600  1
  C  765  1  0.02612200  0.68873100  0.40211100  1
  C  767  1  0.02563300  0.69932900  0.42280200  1
  C  769  1  0.02680000  0.59959900  0.43850300  1
  C  770  1  0.02658500  0.62040300  0.42807800  1
  C  772  1  0.02657800  0.58333900  0.42227200  1
  C  774  1  0.02673300  0.59372800  0.40144900  1
  C  775  1  0.02684000  0.58236600  0.38060100  1
  C  776  1  0.02680200  0.55852200  0.38079500  1
  C  777  1  0.04604500  0.54645300  0.38693000  1
  C  778  1  0.04587900  0.52300700  0.38724800  1
  C  779  1  0.02666800  0.51068400  0.38107600  1
  C  783  1  0.00749300  0.54648300  0.37479700  1
  C  784  1  0.00752500  0.52303700  0.37476600  1
  C  785  1  0.02632700  0.39775200  0.43871100  1
  C  786  1  0.02649300  0.37695700  0.42826800  1
  C  788  1  0.02646300  0.43887700  0.38102800  1
  C  789  1  0.00721800  0.45097700  0.38710300  1
  C  790  1  0.00739600  0.47442300  0.38734000  1
  C  791  1  0.02661500  0.48671500  0.38113300  1
  C  793  1  0.04578500  0.45088700  0.37501900  1
  C  794  1  0.04576000  0.47433100  0.37489200  1
  C  795  1  0.02659000  0.41402700  0.42249400  1
  C  797  1  0.02644000  0.40365500  0.40166200  1
  C  798  1  0.02638000  0.41503300  0.38082400  1
  C  800  1  0.02663800  0.33500800  0.42874900  1
  C  801  1  0.02725300  0.31423600  0.43921000  1
  C  802  1  0.02657200  0.35607600  0.43957100  1
  C  803  1  0.02656700  0.35620800  0.46341900  1
  C  804  1  0.00728300  0.35017100  0.47547800  1
  C  805  1  0.04583400  0.36231000  0.47547200  1
  C  807  1  0.02637300  0.29793500  0.38113300  1
  C  808  1  0.02657300  0.30864600  0.40223600  1
  C  810  1  0.02703700  0.29802900  0.42291700  1
  C  812  1  0.02623300  0.27414000  0.38091400  1
  C  813  1  0.04629500  0.26197400  0.38260600  1
  C  816  1  0.00598100  0.26230000  0.37917300  1
  C  817  1  0.02584800  0.22640000  0.38083600  1
  C  818  1  0.04606200  0.23851900  0.38258300  1
  C  820  1  0.02523000  0.15441000  0.38083600  1
  C  821  1  0.03945900  0.16659600  0.39518300  1
  C  822  1  0.03967400  0.19005200  0.39517200  1
  C  823  1  0.02564300  0.20247700  0.38083900  1
  C  826  1  0.00583500  0.23884700  0.37911100  1
  C  827  1  0.02506500  0.13048200  0.38079600  1
  C  829  1  0.08352000  0.00076300  0.38054100  1
  C  830  1  0.10731800  0.00062900  0.38054800  1
  C  831  1  0.07275900  0.02184400  0.38056100  1
  C  833  1  0.04628900  0.04823900  0.38062600  1
  C  834  1  0.06701900  0.05882200  0.38060600  1
  C  835  1  0.08330600  0.04258000  0.38060500  1
  C  836  1  0.02516200  0.05894200  0.38062600  1
  C  837  1  0.00430800  0.04760300  0.38056000  1
  C  838  1  0.02494800  0.08273800  0.38069500  1
  C  839  1  0.02652500  0.11815000  0.40088400  1
  C  840  1  0.02646000  0.09469400  0.40087600  1
  C  845  1  0.90382000  0.99544800  0.36035400  1
  C  846  1  0.92729300  0.99539700  0.36030000  1
  C  855  1  0.85528000  0.98284000  0.36613300  1
  C  857  1  0.83180400  0.98291500  0.36611100  1
  C  859  1  0.66377000  0.97664200  0.28593400  1
  C  861  1  0.62350300  0.99636200  0.32179800  1
  C  862  1  0.66368000  0.97658600  0.26248000  1
  C  864  1  0.71279700  0.00068600  0.35957800  1
  C  865  1  0.72327100  0.00065400  0.33879200  1
  C  868  1  0.68619200  0.00055900  0.33293500  1
  C  869  1  0.70701700  0.00053600  0.32251500  1
  C  870  1  0.66532500  0.00036300  0.32163800  1
  C  871  1  0.64422000  0.00026100  0.33237900  1
  C  873  1  0.66550500  0.00022600  0.29784400  1
  C  874  1  0.66717500  0.02031600  0.28575400  1
  C  878  1  0.66713200  0.02017400  0.26230000  1
  C  879  1  0.66534800  0.00002700  0.25011100  1
  C  882  1  0.60722700  0.99628000  0.33803600  1
  C  885  1  0.61774300  0.00038000  0.35878400  1
  C  889  1  0.37941400  0.97752200  0.28581400  1
  C  891  1  0.37943200  0.97758700  0.26236200  1
  C  893  1  0.42882500  0.00088900  0.35882000  1
  C  894  1  0.43936000  0.00161500  0.33808100  1
  C  896  1  0.38128000  0.00096900  0.32163000  1
  C  897  1  0.40237400  0.00105600  0.33239000  1
  C  899  1  0.42310100  0.00155000  0.32182800  1
  C  900  1  0.38111400  0.00104200  0.29783600  1
  C  901  1  0.38285000  0.02119500  0.28585900  1
  C  904  1  0.38119700  0.00108700  0.25010200  1
  C  905  1  0.38290500  0.02117300  0.26240300  1
  C  907  1  0.33378000  0.00059600  0.35953300  1
  C  909  1  0.36040300  0.00075800  0.33291000  1
  C  910  1  0.33958600  0.00076600  0.32247500  1
  C  911  1  0.32332100  0.00061900  0.33874100  1
  C  915  1  0.14278700  0.00177700  0.36041200  1
  C  916  1  0.19127100  0.01462000  0.36607300  1
  C  917  1  0.21474400  0.01460800  0.36603500  1
  C  921  1  0.02667300  0.87917200  0.36037200  1
  C  922  1  0.02651300  0.90262700  0.36029900  1
  C  925  1  0.03958900  0.83071400  0.36610600  1
  C  926  1  0.03970600  0.80725600  0.36615300  1
  C  930  1  0.02674200  0.64064900  0.32231100  1
  C  931  1  0.02654300  0.66152100  0.33357300  1
  C  933  1  0.02639500  0.68816000  0.36016400  1
  C  934  1  0.02630500  0.69858000  0.33935700  1
  C  935  1  0.02643800  0.68230600  0.32311300  1
  C  936  1  0.02661800  0.64080900  0.29851500  1
  C  937  1  0.00636500  0.64245700  0.28666500  1
  C  938  1  0.04669400  0.63918300  0.28636400  1
  C  942  1  0.00623100  0.64250200  0.26321400  1
  C  943  1  0.02626000  0.64086300  0.25078000  1
  C  944  1  0.04647400  0.63918700  0.26290800  1
  C  946  1  0.02694000  0.59313200  0.35950300  1
  C  948  1  0.02694000  0.61957300  0.33307500  1
  C  949  1  0.02743700  0.59886600  0.32251000  1
  C  950  1  0.02759300  0.58261600  0.33876100  1
  C  956  1  0.02622800  0.40428400  0.35971800  1
  C  958  1  0.02607300  0.37786800  0.33333333  1
  C  959  1  0.02566700  0.39858500  0.32272200  1
  C  960  1  0.02559300  0.41482200  0.33898500  1
  C  962  1  0.02611800  0.35680100  0.32248200  1
  C  963  1  0.02622800  0.33591700  0.33372200  1
  C  965  1  0.02623800  0.30925200  0.36029000  1
  C  966  1  0.02617700  0.29885100  0.33947500  1
  C  967  1  0.02612700  0.31514000  0.32324500  1
  C  968  1  0.02601300  0.35667200  0.29868600  1
  C  969  1  0.04612900  0.35493700  0.28661700  1
  C  970  1  0.00582100  0.35847900  0.28675500  1
  C  975  1  0.04601200  0.35498200  0.26316200  1
  C  976  1  0.02586300  0.35682600  0.25095200  1
  C  977  1  0.00579100  0.35856900  0.26330200  1
  C  979  1  0.01139300  0.19029500  0.36651100  1
  C  980  1  0.01119900  0.16683900  0.36650100  1
  C  984  1  0.02346800  0.09478500  0.36056500  1
  C  985  1  0.02351300  0.11824100  0.36065800  1
  C  986  1  0.11931700  0.00177700  0.36036400  1
  C  989  1  0.66490300  0.99616900  0.15420300  1
  C  990  1  0.66498700  0.99631200  0.17812700  1
  C  991  1  0.65068600  0.98225700  0.19056600  1
  C  992  1  0.65080600  0.98236000  0.21402200  1
  C  996  1  0.66521700  0.99653800  0.22619000  1
  C  997  1  0.64473100  0.99458800  0.14199400  1
  C  998  1  0.67949600  0.01400700  0.21375400  1
  C  999  1  0.67939300  0.01388800  0.19029800  1
  C  1003  1  0.68499900  0.00097400  0.14184600  1
  C  1004  1  0.38154500  0.00098600  0.15419700  1
  C  1005  1  0.38146200  0.00102700  0.17812100  1
  C  1006  1  0.39577900  0.01515300  0.19046100  1
  C  1007  1  0.39568100  0.01519100  0.21391900  1
  C  1008  1  0.38127500  0.00109100  0.22618200  1
  C  1012  1  0.40171900  0.00242800  0.14197200  1
  C  1013  1  0.36696400  0.98356700  0.21384400  1
  C  1014  1  0.36704400  0.98354900  0.19038800  1
  C  1018  1  0.36144500  0.99610800  0.14185400  1
  C  1019  1  0.02532800  0.64081900  0.15486900  1
  C  1020  1  0.02360500  0.66091300  0.14257800  1
  C  1021  1  0.02559000  0.64084700  0.17879300  1
  C  1022  1  0.03990200  0.62657300  0.19096800  1
  C  1023  1  0.04014200  0.62659500  0.21442500  1
  C  1024  1  0.02606300  0.64087700  0.22685800  1
  C  1025  1  0.01175400  0.65515100  0.21468500  1
  C  1026  1  0.01153100  0.65514400  0.19123100  1
  C  1030  1  0.02676800  0.62069700  0.14259000  1
  C  1037  1  0.02378700  0.37696200  0.14271800  1
  C  1038  1  0.02529500  0.35687200  0.15504100  1
  C  1039  1  0.02662300  0.33672300  0.14279300  1
  C  1040  1  0.02549200  0.35692000  0.17896600  1
  C  1041  1  0.03965900  0.34253800  0.19118400  1
  C  1042  1  0.03981200  0.34254000  0.21464000  1
  C  1043  1  0.02578200  0.35690200  0.22703100  1
  C  1044  1  0.01164100  0.37131100  0.21481800  1
  C  1045  1  0.01150800  0.37132900  0.19136000  1
  C  1049  1  0.97397700  0.64034700  0.00426400  1
  C  1050  1  0.97351000  0.64039900  0.04624800  1
  C  1051  1  0.96297000  0.64040700  0.06698900  1
  C  1052  1  0.97926100  0.64050400  0.08322900  1
  C  1053  1  0.96274600  0.64030400  0.02516400  1
  C  1054  1  0.93894100  0.64019600  0.02503500  1
  C  1055  1  0.89118500  0.64002100  0.02510400  1
  C  1056  1  0.90339400  0.66019900  0.02379200  1
  C  1057  1  0.92686600  0.66032900  0.02377700  1
  C  1063  1  0.92701800  0.61997500  0.02631700  1
  C  1064  1  0.90354400  0.61993100  0.02635300  1
  C  1069  1  0.92700400  0.37608900  0.02377200  1
  C  1070  1  0.90353200  0.37591800  0.02384700  1
  C  1071  1  0.98006500  0.35636800  0.08268800  1
  C  1072  1  0.96378300  0.35621800  0.06643400  1
  C  1073  1  0.97421800  0.35622500  0.04562500  1
  C  1074  1  0.97362200  0.35618600  0.00364500  1
  C  1075  1  0.96292400  0.35611300  0.02476100  1
  C  1076  1  0.93912000  0.35597800  0.02497100  1
  C  1077  1  0.89136400  0.35571200  0.02512100  1
  C  1078  1  0.90376400  0.33564500  0.02635300  1
  C  1079  1  0.92723800  0.33573400  0.02627000  1
  C  1085  1  0.86725000  0.63994800  0.02519300  1
  C  1086  1  0.85485600  0.65436600  0.01122700  1
  C  1087  1  0.85503600  0.62547900  0.03926800  1
  C  1089  1  0.75940200  0.64156300  0.00555600  1
  C  1090  1  0.78287400  0.64160600  0.00549600  1
  C  1091  1  0.79524200  0.63985600  0.02554200  1
  C  1092  1  0.78305200  0.63808000  0.04569500  1
  C  1093  1  0.75957900  0.63807100  0.04584000  1
  C  1094  1  0.83138300  0.65432800  0.01133700  1
  C  1095  1  0.81917000  0.63987800  0.02542700  1
  C  1096  1  0.83155900  0.62545400  0.03939300  1
  C  1100  1  0.74749100  0.63980600  0.02574900  1
  C  1105  1  0.86743000  0.35558000  0.02513100  1
  C  1106  1  0.85520600  0.34105500  0.03913700  1
  C  1107  1  0.85504500  0.36997200  0.01112700  1
  C  1109  1  0.75970600  0.35344100  0.04537900  1
  C  1110  1  0.78317700  0.35342400  0.04529200  1
  C  1111  1  0.79542000  0.35523700  0.02517600  1
  C  1112  1  0.78310200  0.35702400  0.00510000  1
  C  1113  1  0.75963100  0.35699400  0.00510000  1
  C  1116  1  0.83172900  0.34093800  0.03915000  1
  C  1117  1  0.81935000  0.35533000  0.02514400  1
  C  1118  1  0.83157100  0.36983900  0.01112200  1
  C  1120  1  0.74766800  0.35522400  0.02526300  1
  C  1121  1  0.66448300  0.94865100  0.00356100  1
  C  1122  1  0.66455000  0.93737300  0.02443000  1
  C  1123  1  0.66460800  0.94811100  0.04552400  1
  C  1125  1  0.66464300  0.97454200  0.07194500  1
  C  1126  1  0.66471200  0.95382100  0.08250600  1
  C  1127  1  0.66465000  0.93756000  0.06625100  1
  C  1128  1  0.66468300  0.99563900  0.08267100  1
  C  1129  1  0.66475300  0.99583600  0.10646500  1
  C  1130  1  0.64461500  0.99444200  0.11853900  1
  C  1131  1  0.66459000  0.91357900  0.02426400  1
  C  1132  1  0.68480000  0.90161100  0.02552700  1
  C  1133  1  0.64441500  0.90154700  0.02303000  1
  C  1134  1  0.64449100  0.87809100  0.02306500  1
  C  1135  1  0.68479200  0.87815700  0.02558900  1
  C  1142  1  0.66465800  0.86584000  0.02437900  1
  C  1145  1  0.66685800  0.75775300  0.04500900  1
  C  1146  1  0.66492800  0.76993600  0.02487100  1
  C  1147  1  0.66309900  0.75756300  0.00484200  1
  C  1149  1  0.66469700  0.84191600  0.02451700  1
  C  1150  1  0.67922100  0.82972300  0.03855900  1
  C  1151  1  0.67927300  0.80626700  0.03869700  1
  C  1152  1  0.66482800  0.79385500  0.02476800  1
  C  1153  1  0.65029600  0.80604200  0.01073200  1
  C  1154  1  0.65021600  0.82950000  0.01062600  1
  C  1158  1  0.71241500  0.66049800  0.02561900  1
  C  1159  1  0.72287500  0.68129200  0.02558200  1
  C  1160  1  0.72368500  0.63962800  0.02580200  1
  C  1162  1  0.66508200  0.72220400  0.02508400  1
  C  1163  1  0.66690300  0.73430000  0.04515700  1
  C  1164  1  0.66318900  0.73410900  0.00490300  1
  C  1168  1  0.64382300  0.68765100  0.02515600  1
  C  1169  1  0.66491800  0.69840800  0.02523300  1
  C  1170  1  0.68579400  0.68712500  0.02545200  1
  C  1172  1  0.70661100  0.69755700  0.02542900  1
  C  1175  1  0.62309900  0.69821800  0.02466300  1
  C  1176  1  0.71294700  0.61853600  0.02594900  1
  C  1177  1  0.72355600  0.59784400  0.02640000  1
  C  1179  1  0.64457000  0.59260300  0.02577500  1
  C  1182  1  0.68654400  0.59205300  0.02591500  1
  C  1183  1  0.70732100  0.58156500  0.02654100  1
  C  1184  1  0.66544300  0.58125700  0.02583000  1
  C  1185  1  0.62373300  0.58220300  0.02567900  1
  C  1186  1  0.66528200  0.55741300  0.02578400  1
  C  1187  1  0.67131300  0.54538900  0.00649200  1
  C  1188  1  0.67146000  0.52194400  0.00653800  1
  C  1189  1  0.66524000  0.50957500  0.02568600  1
  C  1190  1  0.65902200  0.52187900  0.04487600  1
  C  1191  1  0.65922000  0.54532700  0.04502400  1
  C  1195  1  0.71316700  0.37656200  0.02528300  1
  C  1196  1  0.72381500  0.39723600  0.02484800  1
  C  1198  1  0.66560000  0.43777000  0.02555900  1
  C  1199  1  0.67161600  0.44982400  0.04483400  1
  C  1200  1  0.67164600  0.47327100  0.04478300  1
  C  1201  1  0.66531500  0.48560600  0.02565100  1
  C  1202  1  0.65912700  0.47326900  0.00647300  1
  C  1203  1  0.65945700  0.44982400  0.00632200  1
  C  1207  1  0.64484600  0.40261400  0.02565400  1
  C  1210  1  0.68681700  0.40309700  0.02540900  1
  C  1211  1  0.70761100  0.41354600  0.02477300  1
  C  1212  1  0.66573700  0.41392600  0.02554700  1
  C  1213  1  0.62403100  0.41305500  0.02581700  1
  C  1214  1  0.71255000  0.33459800  0.02548400  1
  C  1215  1  0.72297000  0.31378400  0.02537900  1
  C  1216  1  0.72386100  0.35544500  0.02534900  1
  C  1219  1  0.64390100  0.30756700  0.02596900  1
  C  1220  1  0.66498000  0.29677500  0.02575500  1
  C  1221  1  0.68587500  0.30802200  0.02557200  1
  C  1223  1  0.70667400  0.29754900  0.02546900  1
  C  1226  1  0.62315800  0.29704000  0.02647600  1
  C  1227  1  0.66510500  0.27297700  0.02562900  1
  C  1228  1  0.66673700  0.26112600  0.00539500  1
  C  1229  1  0.66342000  0.26083000  0.04568200  1
  C  1232  1  0.66670200  0.23767300  0.00525800  1
  C  1233  1  0.66499300  0.22524300  0.02526400  1
  C  1234  1  0.66334200  0.23737400  0.04545900  1
  C  1236  1  0.66476700  0.15325600  0.02466000  1
  C  1237  1  0.65048900  0.16548500  0.03892200  1
  C  1238  1  0.65057100  0.18894300  0.03913000  1
  C  1239  1  0.66491800  0.20132000  0.02507000  1
  C  1240  1  0.67918100  0.18909300  0.01079400  1
  C  1241  1  0.67911600  0.16563800  0.01060300  1
  C  1245  1  0.66471300  0.12933000  0.02446700  1
  C  1248  1  0.66467800  0.01989500  0.07138100  1
  C  1250  1  0.66460700  0.04651300  0.04475100  1
  C  1251  1  0.66469700  0.05695200  0.06555000  1
  C  1252  1  0.66469300  0.04069500  0.08181200  1
  C  1253  1  0.66458200  0.05779600  0.02388600  1
  C  1254  1  0.66454000  0.04706000  0.00279200  1
  C  1255  1  0.66462000  0.08159000  0.02407600  1
  C  1256  1  0.64447100  0.09361800  0.02572200  1
  C  1257  1  0.64456000  0.11707300  0.02592700  1
  C  1258  1  0.68481900  0.11701800  0.02281700  1
  C  1259  1  0.68481500  0.09356500  0.02263000  1
  C  1260  1  0.68496900  0.00079300  0.11839100  1
  C  1268  1  0.60658900  0.64013400  0.02558100  1
  C  1269  1  0.61736500  0.66122800  0.02535400  1
  C  1270  1  0.60683600  0.68197000  0.02463700  1
  C  1271  1  0.58273700  0.63998300  0.02570200  1
  C  1272  1  0.57078000  0.64612300  0.04500300  1
  C  1273  1  0.57059300  0.63391700  0.00649700  1
  C  1276  1  0.54712900  0.63383100  0.00668700  1
  C  1277  1  0.53489000  0.64019400  0.02587500  1
  C  1278  1  0.54731900  0.64639800  0.04498900  1
  C  1280  1  0.49855100  0.63438800  0.04513700  1
  C  1281  1  0.51091500  0.64044900  0.02593200  1
  C  1282  1  0.49861100  0.64684900  0.00680000  1
  C  1284  1  0.60748200  0.59845800  0.02592400  1
  C  1285  1  0.61791500  0.61926500  0.02570100  1
  C  1289  1  0.60775200  0.39683300  0.02558400  1
  C  1290  1  0.61814100  0.37600400  0.02578900  1
  C  1293  1  0.60676600  0.35516100  0.02591900  1
  C  1294  1  0.61749300  0.33404200  0.02600900  1
  C  1295  1  0.60692600  0.31332100  0.02666100  1
  C  1296  1  0.58291400  0.35539900  0.02591500  1
  C  1297  1  0.57083300  0.34947800  0.00662500  1
  C  1298  1  0.57089500  0.36161100  0.04515400  1
  C  1302  1  0.54743600  0.36210500  0.04498800  1
  C  1303  1  0.53507000  0.35603000  0.02578900  1
  C  1304  1  0.54737100  0.34961000  0.00666300  1
  C  1305  1  0.49886400  0.36266100  0.00653700  1
  C  1306  1  0.51109700  0.35630300  0.02573100  1
  C  1307  1  0.49865900  0.35012400  0.04484800  1
  C  1309  1  0.38167000  0.97680400  0.07139700  1
  C  1311  1  0.38159400  0.95015300  0.04479300  1
  C  1312  1  0.38157200  0.93974000  0.06560500  1
  C  1313  1  0.38166200  0.95601500  0.08185000  1
  C  1314  1  0.38149900  0.93884600  0.02393700  1
  C  1315  1  0.38139500  0.94956600  0.00283400  1
  C  1316  1  0.38146400  0.91504700  0.02414900  1
  C  1317  1  0.40161200  0.90301900  0.02577900  1
  C  1318  1  0.40152900  0.87956200  0.02598400  1
  C  1324  1  0.38137900  0.86729200  0.02455800  1
  C  1325  1  0.38107500  0.77134400  0.02541200  1
  C  1326  1  0.38295800  0.75921800  0.04559200  1
  C  1328  1  0.38132700  0.84335800  0.02476000  1
  C  1329  1  0.39569800  0.83112500  0.03892700  1
  C  1330  1  0.39561100  0.80766600  0.03914900  1
  C  1331  1  0.38116500  0.79527500  0.02519800  1
  C  1334  1  0.37911200  0.75889200  0.00544100  1
  C  1335  1  0.43922100  0.64134800  0.02608300  1
  C  1336  1  0.42850900  0.66247500  0.02616500  1
  C  1337  1  0.43909500  0.68319000  0.02676400  1
  C  1338  1  0.46307200  0.64109300  0.02607000  1
  C  1339  1  0.47514900  0.64697900  0.00676500  1
  C  1340  1  0.47509400  0.63490500  0.04531200  1
  C  1343  1  0.38093700  0.72359300  0.02581400  1
  C  1344  1  0.38286800  0.73576200  0.04583300  1
  C  1347  1  0.37907400  0.73543700  0.00559400  1
  C  1349  1  0.40212200  0.68897800  0.02613500  1
  C  1350  1  0.42287600  0.69948700  0.02658000  1
  C  1351  1  0.38105400  0.69979000  0.02595400  1
  C  1353  1  0.43822000  0.59967400  0.02577200  1
  C  1354  1  0.42783900  0.62050900  0.02597900  1
  C  1356  1  0.42193400  0.58345800  0.02599700  1
  C  1357  1  0.40112400  0.59391000  0.02585200  1
  C  1359  1  0.38023000  0.58260600  0.02573600  1
  C  1360  1  0.38035200  0.55876200  0.02570200  1
  C  1361  1  0.38060200  0.51092900  0.02569700  1
  C  1362  1  0.38677300  0.52330000  0.00653500  1
  C  1363  1  0.38646300  0.54674400  0.00643300  1
  C  1365  1  0.37434400  0.54667400  0.04495900  1
  C  1366  1  0.37429700  0.52322800  0.04485900  1
  C  1367  1  0.43849600  0.39809700  0.02573700  1
  C  1368  1  0.42806900  0.37728800  0.02553400  1
  C  1370  1  0.38068200  0.43912700  0.02568700  1
  C  1371  1  0.38068000  0.48696200  0.02568600  1
  C  1372  1  0.38695000  0.47462400  0.04483800  1
  C  1373  1  0.38676200  0.45117800  0.04494400  1
  C  1377  1  0.37460900  0.45118100  0.00642800  1
  C  1378  1  0.37442900  0.47462600  0.00652800  1
  C  1379  1  0.42224100  0.41434900  0.02548600  1
  C  1380  1  0.40140700  0.40394400  0.02561200  1
  C  1382  1  0.38053000  0.41528300  0.02569400  1
  C  1383  1  0.43940000  0.35642300  0.02542900  1
  C  1384  1  0.42862900  0.33532700  0.02520100  1
  C  1385  1  0.43916100  0.31458700  0.02447800  1
  C  1386  1  0.46325000  0.35657200  0.02555900  1
  C  1387  1  0.47519900  0.35044200  0.04486600  1
  C  1388  1  0.47539900  0.36260100  0.00634500  1
  C  1392  1  0.40217700  0.30890400  0.02498600  1
  C  1393  1  0.42290100  0.29833700  0.02451200  1
  C  1394  1  0.38108400  0.29814700  0.02503800  1
  C  1396  1  0.38092700  0.27435800  0.02491100  1
  C  1397  1  0.38266300  0.26244500  0.00472200  1
  C  1399  1  0.37928200  0.26228300  0.04501100  1
  C  1401  1  0.38112400  0.22664300  0.02473800  1
  C  1402  1  0.38277700  0.23899200  0.00467900  1
  C  1403  1  0.38140500  0.15469300  0.02442700  1
  C  1404  1  0.38124400  0.20273200  0.02465500  1
  C  1405  1  0.39574300  0.19055600  0.01057400  1
  C  1406  1  0.39583400  0.16710000  0.01047800  1
  C  1408  1  0.37934400  0.23883200  0.04488400  1
  C  1410  1  0.38144500  0.13077900  0.02428900  1
  C  1412  1  0.38146200  0.04797600  0.00351100  1
  C  1413  1  0.38154700  0.05926800  0.02437000  1
  C  1414  1  0.38162000  0.04855600  0.04547200  1
  C  1416  1  0.38173000  0.02215600  0.07191900  1
  C  1417  1  0.38172000  0.04289000  0.08245800  1
  C  1418  1  0.38169400  0.05913300  0.06618600  1
  C  1419  1  0.38172900  0.00107100  0.08266600  1
  C  1420  1  0.38168700  0.00091900  0.10646000  1
  C  1421  1  0.40183100  0.00239100  0.11851800  1
  C  1422  1  0.38151200  0.08305600  0.02418200  1
  C  1423  1  0.40169400  0.09508200  0.02298700  1
  C  1424  1  0.40161900  0.11853600  0.02302500  1
  C  1430  1  0.36127300  0.87960800  0.02292000  1
  C  1431  1  0.36127200  0.90306400  0.02272900  1
  C  1432  1  0.36147300  0.99609400  0.11840100  1
  C  1436  1  0.36681300  0.80750700  0.01101400  1
  C  1437  1  0.36689300  0.83096400  0.01080100  1
  C  1440  1  0.36015300  0.68854700  0.02581000  1
  C  1442  1  0.33347300  0.66197400  0.02574400  1
  C  1443  1  0.32305700  0.68278900  0.02573600  1
  C  1444  1  0.33935600  0.69902100  0.02581700  1
  C  1445  1  0.32216100  0.64112800  0.02558400  1
  C  1446  1  0.29835900  0.64135500  0.02546400  1
  C  1447  1  0.28628600  0.64288800  0.04557900  1
  C  1448  1  0.28644300  0.63979100  0.00525800  1
  C  1452  1  0.26281600  0.64288100  0.04544900  1
  C  1453  1  0.25062200  0.64127100  0.02528600  1
  C  1454  1  0.26297300  0.63973600  0.00521300  1
  C  1456  1  0.33283500  0.62000300  0.02549900  1
  C  1458  1  0.35916000  0.59345000  0.02560400  1
  C  1459  1  0.33836000  0.58301400  0.02494100  1
  C  1460  1  0.32216900  0.59933900  0.02502600  1
  C  1466  1  0.33304200  0.37799400  0.02573900  1
  C  1468  1  0.35943300  0.40448200  0.02577500  1
  C  1469  1  0.33865300  0.41496100  0.02643000  1
  C  1470  1  0.32242200  0.39868000  0.02623800  1
  C  1473  1  0.36020500  0.30941700  0.02522400  1
  C  1475  1  0.33358000  0.33603000  0.02535400  1
  C  1476  1  0.32312200  0.31523600  0.02529800  1
  C  1477  1  0.33939100  0.29897400  0.02517300  1
  C  1478  1  0.32231200  0.35689900  0.02554900  1
  C  1479  1  0.29851200  0.35671600  0.02549600  1
  C  1480  1  0.28660000  0.35514100  0.00528800  1
  C  1481  1  0.28643600  0.35829700  0.04560500  1
  C  1486  1  0.26313100  0.35513600  0.00523300  1
  C  1487  1  0.25077700  0.35676100  0.02529600  1
  C  1488  1  0.26296600  0.35833400  0.04546400  1
  C  1489  1  0.36691800  0.16687500  0.03851600  1
  C  1490  1  0.36685400  0.19032800  0.03864200  1
  C  1494  1  0.36129800  0.09501800  0.02540300  1
  C  1495  1  0.36130700  0.11847100  0.02545400  1
  C  1497  1  0.15470500  0.64099700  0.02485000  1
  C  1498  1  0.17863200  0.64103800  0.02498300  1
  C  1499  1  0.19103400  0.62672800  0.01091600  1
  C  1500  1  0.21450800  0.62680400  0.01101200  1
  C  1501  1  0.22669700  0.64118000  0.02519900  1
  C  1502  1  0.21429800  0.65546700  0.03929000  1
  C  1503  1  0.19082400  0.65540900  0.03917400  1
  C  1507  1  0.14238700  0.66111000  0.02613300  1
  C  1508  1  0.14246900  0.62084500  0.02341100  1
  C  1515  1  0.14259700  0.37711200  0.02617200  1
  C  1517  1  0.14259200  0.33683400  0.02363300  1
  C  1518  1  0.15487000  0.35697000  0.02490800  1
  C  1519  1  0.17879500  0.35695400  0.02497000  1
  C  1520  1  0.19106400  0.37130900  0.03911000  1
  C  1521  1  0.21453800  0.37124300  0.03922200  1
  C  1522  1  0.22685500  0.35683100  0.02518400  1
  C  1523  1  0.21458900  0.34250000  0.01101900  1
  C  1524  1  0.19111800  0.34254500  0.01093100  1
  C  1527  1  0.07240000  0.64081200  0.00332500  1
  C  1528  1  0.08316100  0.64087800  0.02440900  1
  C  1529  1  0.07193000  0.64088500  0.04530400  1
  C  1531  1  0.04536000  0.64080200  0.07199500  1
  C  1532  1  0.06620400  0.64093800  0.08238000  1
  C  1533  1  0.08243300  0.64094200  0.06607600  1
  C  1534  1  0.02450800  0.64073700  0.08333700  1
  C  1535  1  0.00338000  0.64062500  0.07264100  1
  C  1536  1  0.02475800  0.64076400  0.10713100  1
  C  1537  1  0.02333300  0.66092800  0.11912600  1
  C  1538  1  0.10696100  0.64092200  0.02455500  1
  C  1539  1  0.11891600  0.66111500  0.02597200  1
  C  1546  1  0.02648000  0.62062700  0.11913600  1
  C  1547  1  0.11899700  0.62076600  0.02328600  1
  C  1552  1  0.11912600  0.37715300  0.02618500  1
  C  1553  1  0.02366200  0.37694800  0.11926200  1
  C  1554  1  0.00426600  0.35652900  0.07223700  1
  C  1555  1  0.02515500  0.35671400  0.08350700  1
  C  1556  1  0.04624900  0.35682700  0.07274100  1
  C  1558  1  0.07263700  0.35695200  0.04626800  1
  C  1559  1  0.08324800  0.35703900  0.06697000  1
  C  1560  1  0.06701100  0.35700700  0.08326200  1
  C  1561  1  0.08333100  0.35694500  0.02515100  1
  C  1562  1  0.07204000  0.35684400  0.00428900  1
  C  1563  1  0.10713000  0.35697200  0.02494800  1
  C  1564  1  0.11912200  0.33679300  0.02367100  1
  C  1565  1  0.02501800  0.35675900  0.10730100  1
  C  1566  1  0.02649500  0.33662600  0.11934000  1
  C  1573  1  0.84638400  0.50714100  0.83059400  1
  C  1574  1  0.83015300  0.50703300  0.84689900  1
  C  1578  1  0.82969200  0.22289200  0.84634500  1
  C  1579  1  0.84593100  0.22305000  0.83005300  1
  C  1587  1  0.53114200  0.80501400  0.84617200  1
  C  1588  1  0.53108300  0.82127100  0.82990700  1
  C  1589  1  0.53112700  0.84207400  0.84033700  1
  C  1591  1  0.53109700  0.86293900  0.82904900  1
  C  1592  1  0.53110200  0.86276000  0.80525400  1
  C  1593  1  0.53116300  0.86284000  0.75751100  1
  C  1594  1  0.55129100  0.86146600  0.76982100  1
  C  1595  1  0.55130400  0.86144900  0.79327600  1
  C  1611  1  0.53111500  0.88742900  0.83977800  1
  C  1612  1  0.53113000  0.90815310  0.82922000  1
  C  1613  1  0.53114700  0.92441510  0.84547500  1
  C  1614  1  0.51093000  0.86748100  0.79322900  1
  C  1615  1  0.51100100  0.86752300  0.76977200  1
  C  1627  1  0.24796900  0.84278300  0.83979400  1
  C  1628  1  0.24791500  0.82205000  0.82925400  1
  C  1629  1  0.24802200  0.80580200  0.84552300  1
  C  1630  1  0.26798600  0.86281400  0.79318200  1
  C  1631  1  0.26787100  0.86292300  0.76972700  1
  C  1645  1  0.24805400  0.92520410  0.84611600  1
  C  1646  1  0.24798700  0.90893310  0.82986600  1
  C  1647  1  0.24796500  0.88813900  0.84031400  1
  C  1649  1  0.24791200  0.86726500  0.82904600  1
  C  1650  1  0.24783500  0.86744100  0.80525200  1
  C  1651  1  0.24768400  0.86766800  0.75751200  1
  C  1661  1  0.22757700  0.86893800  0.76986600  1
  C  1662  1  0.22761000  0.86882000  0.79332200  1
  C  1665  1  0.87062000  0.50725800  0.84097800  1
  C  1666  1  0.89147300  0.50739100  0.82964100  1
  C  1667  1  0.91260230  0.50751400  0.84034100  1
  C  1669  1  0.94962330  0.50768000  0.84599900  1
  C  1670  1  0.93333230  0.50758400  0.82975800  1
  C  1671  1  0.89126200  0.50739900  0.80584500  1
  C  1672  1  0.89249700  0.52757200  0.79384500  1
  C  1673  1  0.89140000  0.50739200  0.75810200  1
  C  1674  1  0.89257000  0.52752700  0.77039000  1
  C  1679  1  0.89006500  0.48722300  0.79384200  1
  C  1680  1  0.89011200  0.48726300  0.77038600  1
  C  1685  1  0.89288800  0.24351200  0.79401800  1
  C  1686  1  0.89311300  0.24346900  0.77056300  1
  C  1687  1  0.91206530  0.22349800  0.84108500  1
  C  1688  1  0.93287930  0.22352900  0.83064100  1
  C  1689  1  0.94915830  0.22365600  0.84689600  1
  C  1690  1  0.89117800  0.22334800  0.82980700  1
  C  1691  1  0.87008300  0.22317100  0.84057200  1
  C  1692  1  0.89135300  0.22335300  0.80601000  1
  C  1693  1  0.89180200  0.22335000  0.75826500  1
  C  1694  1  0.89025200  0.20323300  0.77054100  1
  C  1695  1  0.89004700  0.20319200  0.79399500  1
  C  1705  1  0.53121200  0.86297200  0.73358500  1
  C  1706  1  0.54571900  0.84905100  0.72123400  1
  C  1708  1  0.53345700  0.84362800  0.62573500  1
  C  1709  1  0.53341000  0.84350900  0.64918800  1
  C  1712  1  0.54580900  0.84921800  0.69777900  1
  C  1714  1  0.53141000  0.86333100  0.68552100  1
  C  1715  1  0.51679100  0.88045500  0.72132500  1
  C  1717  1  0.53152000  0.86690400  0.66160100  1
  C  1718  1  0.52972000  0.88707500  0.64945300  1
  C  1719  1  0.52980500  0.88728000  0.62599800  1
  C  1722  1  0.51689900  0.88064300  0.69786700  1
  C  1724  1  0.26202300  0.85028800  0.72123100  1
  C  1726  1  0.24909300  0.84408000  0.64935600  1
  C  1727  1  0.24903800  0.84399300  0.62590200  1
  C  1730  1  0.26190400  0.85024700  0.69777600  1
  C  1732  1  0.24760400  0.86768800  0.73358600  1
  C  1733  1  0.24726900  0.86758300  0.66160200  1
  C  1734  1  0.24738200  0.86762900  0.68552300  1
  C  1735  1  0.24537500  0.88764400  0.62583500  1
  C  1736  1  0.24538200  0.88764600  0.64929000  1
  C  1739  1  0.23308300  0.88168000  0.72133100  1
  C  1741  1  0.23298300  0.88166200  0.69787200  1
  C  1743  1  0.89157000  0.50738900  0.73417500  1
  C  1744  1  0.90561430  0.52190300  0.72197000  1
  C  1745  1  0.87771900  0.49286400  0.72176800  1
  C  1747  1  0.91241930  0.50937700  0.62657800  1
  C  1748  1  0.91222930  0.50939200  0.65003200  1
  C  1749  1  0.89205700  0.50744100  0.66218700  1
  C  1750  1  0.87203500  0.50552300  0.64977900  1
  C  1751  1  0.87214000  0.50555300  0.62632500  1
  C  1754  1  0.90579430  0.52189600  0.69851300  1
  C  1755  1  0.89190800  0.50740600  0.68610900  1
  C  1756  1  0.87786600  0.49288900  0.69830800  1
  C  1758  1  0.89235300  0.50746700  0.61444900  1
  C  1763  1  0.89203000  0.22334000  0.73433800  1
  C  1764  1  0.90622130  0.23772200  0.72214800  1
  C  1765  1  0.87807300  0.20893300  0.72191200  1
  C  1769  1  0.87291300  0.22138300  0.62643300  1
  C  1770  1  0.87274600  0.22138300  0.64988600  1
  C  1771  1  0.89274300  0.22321500  0.66234500  1
  C  1772  1  0.91296030  0.22501100  0.65024100  1
  C  1773  1  0.91321430  0.22495300  0.62678400  1
  C  1774  1  0.90647130  0.23767200  0.69869000  1
  C  1775  1  0.89251300  0.22326100  0.68626900  1
  C  1776  1  0.87830400  0.20889800  0.69845600  1
  C  1778  1  0.89317000  0.22315000  0.61460500  1
  C  1779  1  0.83024700  0.82202600  0.53138300  1
  C  1780  1  0.84655600  0.80580000  0.53139800  1
  C  1782  1  0.84064700  0.84285100  0.53133100  1
  C  1783  1  0.79351100  0.86216600  0.51115200  1
  C  1784  1  0.77003800  0.86205100  0.51120500  1
  C  1785  1  0.75776200  0.86325000  0.53135000  1
  C  1798  1  0.82931700  0.86708800  0.53131300  1
  C  1799  1  0.80551500  0.86683900  0.53132600  1
  C  1800  1  0.83997700  0.88822500  0.53132800  1
  C  1802  1  0.84554600  0.92523410  0.53137500  1
  C  1803  1  0.82933500  0.90891410  0.53132000  1
  C  1804  1  0.79352200  0.86798600  0.55151400  1
  C  1805  1  0.77005000  0.86789900  0.55148300  1
  C  1810  1  0.73382900  0.86324900  0.53136500  1
  C  1811  1  0.72150600  0.84925900  0.51690800  1
  C  1813  1  0.64951600  0.84323300  0.52967500  1
  C  1814  1  0.62604200  0.84322800  0.52970800  1
  C  1817  1  0.69802900  0.84926600  0.51693600  1
  C  1819  1  0.66182500  0.86331300  0.53143100  1
  C  1820  1  0.68575300  0.86328400  0.53140300  1
  C  1821  1  0.72154700  0.88065500  0.54583500  1
  C  1823  1  0.62611100  0.88690500  0.53320800  1
  C  1824  1  0.64958100  0.88682500  0.53321600  1
  C  1827  1  0.69807400  0.88068000  0.54584700  1
  C  1829  1  0.61407800  0.86339000  0.53146800  1
  C  1830  1  0.57319400  0.86707200  0.58921900  1
  C  1831  1  0.53150000  0.86733500  0.59006800  1
  C  1832  1  0.51040600  0.86754100  0.57930600  1
  C  1833  1  0.53166300  0.86723200  0.61386600  1
  C  1835  1  0.48968100  0.86803400  0.58987000  1
  C  1836  1  0.57954000  0.86682200  0.51019500  1
  C  1837  1  0.59027300  0.86686700  0.53129000  1
  C  1838  1  0.57900200  0.86702300  0.55216000  1
  C  1839  1  0.58946000  0.86695700  0.57295400  1
  C  1844  1  0.55237700  0.86714000  0.57878300  1
  C  1848  1  0.43728100  0.84479400  0.53763500  1
  C  1850  1  0.41381900  0.84486600  0.53774800  1
  C  1852  1  0.36515800  0.84483100  0.52530400  1
  C  1855  1  0.48451500  0.86739300  0.51091200  1
  C  1856  1  0.48395300  0.86757500  0.55287600  1
  C  1857  1  0.47342200  0.86822600  0.57361800  1
  C  1858  1  0.47318200  0.86748800  0.53177800  1
  C  1859  1  0.44932900  0.86746600  0.53160400  1
  C  1860  1  0.43727300  0.88671500  0.52550200  1
  C  1863  1  0.47408900  0.86723000  0.49010200  1
  C  1864  1  0.40147900  0.86741000  0.53147600  1
  C  1865  1  0.41380900  0.88658400  0.52525300  1
  C  1867  1  0.36517400  0.88655000  0.53779800  1
  C  1868  1  0.37750200  0.86739800  0.53150300  1
  C  1871  1  0.34169400  0.84469900  0.52560400  1
  C  1874  1  0.30550800  0.86323200  0.57370000  1
  C  1875  1  0.24740500  0.86749100  0.59007000  1
  C  1876  1  0.26851400  0.86730300  0.57933900  1
  C  1877  1  0.28922600  0.86681000  0.58993200  1
  C  1878  1  0.24720400  0.86749500  0.61386700  1
  C  1879  1  0.29449400  0.86744500  0.51097900  1
  C  1880  1  0.29500400  0.86726200  0.55294400  1
  C  1881  1  0.30580000  0.86734600  0.53185900  1
  C  1882  1  0.32965200  0.86734800  0.53170900  1
  C  1883  1  0.34171200  0.88662500  0.53772000  1
  C  1885  1  0.30495000  0.86762600  0.49018300  1
  C  1889  1  0.15297600  0.84424100  0.53294500  1
  C  1891  1  0.12950600  0.84422700  0.53296600  1
  C  1893  1  0.20571300  0.86765600  0.58916300  1
  C  1896  1  0.19947800  0.86791100  0.51012600  1
  C  1897  1  0.18872400  0.86783400  0.53121000  1
  C  1898  1  0.19996300  0.86771800  0.55209500  1
  C  1900  1  0.22654700  0.86765900  0.57875700  1
  C  1901  1  0.18947200  0.86772900  0.57287200  1
  C  1902  1  0.16492200  0.86781900  0.53136000  1
  C  1903  1  0.15288000  0.88794900  0.52977500  1
  C  1907  1  0.11718400  0.86770400  0.53136500  1
  C  1908  1  0.12941000  0.88784900  0.52975300  1
  C  1910  1  0.08100900  0.85008500  0.54571000  1
  C  1911  1  0.05753800  0.85002900  0.54572500  1
  C  1915  1  0.00900600  0.86264200  0.55152300  1
  C  1916  1  0.02126800  0.86742300  0.53138300  1
  C  1917  1  0.04519500  0.86749800  0.53137100  1
  C  1918  1  0.05744800  0.88164200  0.51700600  1
  C  1919  1  0.08092300  0.88172200  0.51701100  1
  C  1920  1  0.09326000  0.86763900  0.53136300  1
  C  1924  1  0.00897400  0.86869800  0.51125500  1
  C  1925  1  0.87074100  0.81628500  0.53141600  1
  C  1926  1  0.93906930  0.84237000  0.53143800  1
  C  1928  1  0.91272530  0.81584900  0.53142500  1
  C  1929  1  0.93350630  0.80536500  0.53147300  1
  C  1930  1  0.94971530  0.82168400  0.53143800  1
  C  1931  1  0.89165000  0.80504800  0.53143500  1
  C  1932  1  0.89154700  0.78125300  0.53148600  1
  C  1933  1  0.89290800  0.76919900  0.51135200  1
  C  1934  1  0.89303700  0.74574400  0.51146300  1
  C  1935  1  0.89040800  0.74585100  0.55171700  1
  C  1936  1  0.89029700  0.76930600  0.55169100  1
  C  1937  1  0.98553630  0.86251800  0.55157600  1
  C  1944  1  0.89179800  0.73351300  0.53162800  1
  C  1947  1  0.87258000  0.62518900  0.53385500  1
  C  1948  1  0.89259800  0.63760800  0.53200400  1
  C  1949  1  0.91279430  0.62546900  0.53020900  1
  C  1951  1  0.89199200  0.70958900  0.53170900  1
  C  1952  1  0.87808300  0.69722400  0.54621600  1
  C  1953  1  0.87827600  0.67376800  0.54630500  1
  C  1954  1  0.89241200  0.66152700  0.53191600  1
  C  1955  1  0.90633630  0.67388800  0.51742200  1
  C  1956  1  0.90611730  0.69734400  0.51731100  1
  C  1961  1  0.89253500  0.50730100  0.59064900  1
  C  1962  1  0.89271800  0.52816600  0.57937800  1
  C  1963  1  0.89262700  0.54896000  0.58982000  1
  C  1965  1  0.89293700  0.58987400  0.53208600  1
  C  1966  1  0.87270300  0.60173600  0.53387400  1
  C  1967  1  0.91300430  0.60201300  0.53026600  1
  C  1971  1  0.89285700  0.55479100  0.55276600  1
  C  1972  1  0.89276200  0.56522400  0.57356700  1
  C  1973  1  0.89304700  0.56607600  0.53190700  1
  C  1974  1  0.89324500  0.55533500  0.51081900  1
  C  1978  1  0.89370800  0.56592500  0.49012300  1
  C  1979  1  0.89249700  0.48621900  0.57989200  1
  C  1980  1  0.89204000  0.46551500  0.59046100  1
  C  1982  1  0.89327700  0.44993200  0.49071100  1
  C  1984  1  0.89304800  0.46033400  0.51152800  1
  C  1985  1  0.89292200  0.44898700  0.53238400  1
  C  1986  1  0.89271200  0.45976600  0.55347400  1
  C  1988  1  0.89202500  0.44925700  0.57421900  1
  C  1989  1  0.89300200  0.42514300  0.53220900  1
  C  1990  1  0.91231030  0.41313500  0.53826400  1
  C  1991  1  0.87377100  0.41304000  0.52609000  1
  C  1992  1  0.87395300  0.38959400  0.52585500  1
  C  1993  1  0.89316200  0.37730500  0.53209600  1
  C  1994  1  0.91229430  0.38969000  0.53837400  1
  C  1998  1  0.89350800  0.24440300  0.58005500  1
  C  1999  1  0.89396200  0.26510400  0.59063400  1
  C  2001  1  0.89337300  0.30549600  0.53238000  1
  C  2002  1  0.87405300  0.31752500  0.53836300  1
  C  2003  1  0.91262030  0.31757900  0.52628200  1
  C  2004  1  0.91244230  0.34102500  0.52597000  1
  C  2005  1  0.89322300  0.35333600  0.53213700  1
  C  2006  1  0.87407800  0.34097200  0.53841900  1
  C  2010  1  0.89318700  0.28071300  0.49088400  1
  C  2012  1  0.89334800  0.27030700  0.51170000  1
  C  2013  1  0.89342300  0.28165000  0.53255700  1
  C  2014  1  0.89351200  0.27086600  0.55364500  1
  C  2016  1  0.89412300  0.28136700  0.57439600  1
  C  2017  1  0.89332000  0.22331800  0.59080600  1
  C  2018  1  0.89314300  0.20245400  0.57952700  1
  C  2019  1  0.89307000  0.18165700  0.58996700  1
  C  2022  1  0.89301800  0.17583400  0.55291100  1
  C  2023  1  0.89294700  0.16539700  0.57370800  1
  C  2024  1  0.89283300  0.16455400  0.53204900  1
  C  2025  1  0.89278300  0.17530300  0.51096200  1
  C  2029  1  0.89231800  0.16472400  0.49026100  1
  C  2030  1  0.89261700  0.14075700  0.53221500  1
  C  2031  1  0.91267930  0.12859100  0.53390500  1
  C  2032  1  0.87236600  0.12891900  0.53044900  1
  C  2035  1  0.91245030  0.10513600  0.53384700  1
  C  2036  1  0.89224300  0.09301700  0.53203200  1
  C  2037  1  0.87222600  0.10546400  0.53034600  1
  C  2039  1  0.89162700  0.02102200  0.53166900  1
  C  2040  1  0.87760600  0.03352100  0.51738700  1
  C  2041  1  0.87780600  0.05697900  0.51750500  1
  C  2042  1  0.89205500  0.06909300  0.53189200  1
  C  2043  1  0.90610230  0.05659600  0.54615000  1
  C  2044  1  0.90588430  0.03313800  0.54604800  1
  C  2049  1  0.89138500  0.99709308  0.53159100  1
  C  2052  1  0.94972630  0.86689700  0.53141000  1
  C  2053  1  0.97352530  0.86714800  0.53140500  1
  C  2054  1  0.86971600  0.91475210  0.53134000  1
  C  2055  1  0.89079500  0.92555110  0.53138600  1
  C  2056  1  0.91170030  0.91430710  0.53140300  1
  C  2058  1  0.93839730  0.88774100  0.53138500  1
  C  2059  1  0.94880330  0.90856010  0.53138800  1
  C  2060  1  0.93249630  0.92478610  0.53135800  1
  C  2061  1  0.98550430  0.86854400  0.51122400  1
  C  2062  1  0.89093300  0.94934810  0.53145100  1
  C  2063  1  0.89257500  0.96127810  0.55163700  1
  C  2064  1  0.89280500  0.98473210  0.55166400  1
  C  2065  1  0.88972400  0.98488010  0.51144500  1
  C  2066  1  0.88951000  0.96142410  0.51133300  1
  C  2079  1  0.59015300  0.86299400  0.48950400  1
  C  2081  1  0.52579400  0.84468400  0.43695600  1
  C  2083  1  0.57392200  0.86296700  0.47322200  1
  C  2085  1  0.52559100  0.84486900  0.41351000  1
  C  2088  1  0.51117500  0.86730000  0.48425400  1
  C  2089  1  0.53204800  0.86720500  0.47291100  1
  C  2090  1  0.55314500  0.86701700  0.48370800  1
  C  2091  1  0.53189000  0.86729000  0.44906800  1
  C  2092  1  0.53795600  0.88658900  0.43707400  1
  C  2094  1  0.49034100  0.86746300  0.47385000  1
  C  2095  1  0.53184800  0.86745800  0.40123400  1
  C  2096  1  0.53810100  0.88657500  0.41362900  1
  C  2098  1  0.53193700  0.86752000  0.37726600  1
  C  2102  1  0.24121200  0.84488400  0.43703200  1
  C  2104  1  0.24119200  0.84490700  0.41358600  1
  C  2106  1  0.28872100  0.86737000  0.47391000  1
  C  2107  1  0.26787200  0.86753600  0.48428400  1
  C  2108  1  0.24701700  0.86762300  0.47290700  1
  C  2109  1  0.24721900  0.86757000  0.44906500  1
  C  2110  1  0.25337300  0.88678800  0.43699200  1
  C  2113  1  0.25370500  0.88661400  0.41354800  1
  C  2114  1  0.24752400  0.86741800  0.40123200  1
  C  2116  1  0.24759900  0.86736000  0.37726500  1
  C  2119  1  0.22590500  0.86776900  0.48367300  1
  C  2120  1  0.18888900  0.86834500  0.48942200  1
  C  2121  1  0.20514100  0.86841400  0.47316100  1
  C  2126  1  0.89328000  0.52893900  0.48434400  1
  C  2127  1  0.89389500  0.54969600  0.47385300  1
  C  2128  1  0.89322200  0.50785500  0.47354800  1
  C  2129  1  0.89320700  0.50769900  0.44970300  1
  C  2130  1  0.87390300  0.51368800  0.43765200  1
  C  2131  1  0.91249030  0.50166700  0.43764300  1
  C  2134  1  0.87397800  0.51381900  0.41420500  1
  C  2135  1  0.89316500  0.50762500  0.40186100  1
  C  2136  1  0.91237030  0.50145500  0.41419500  1
  C  2137  1  0.91231030  0.51401700  0.36556800  1
  C  2138  1  0.89315800  0.50767500  0.37789200  1
  C  2139  1  0.87398600  0.50144800  0.36553800  1
  C  2142  1  0.89305500  0.46618300  0.47446900  1
  C  2143  1  0.89315300  0.48699300  0.48488200  1
  C  2147  1  0.89342700  0.26446600  0.47464100  1
  C  2148  1  0.89325000  0.24365400  0.48505000  1
  C  2150  1  0.89295800  0.20170800  0.48449700  1
  C  2151  1  0.89227700  0.18095800  0.47399600  1
  C  2152  1  0.89313300  0.22279500  0.47371200  1
  C  2153  1  0.89315000  0.22296300  0.44986800  1
  C  2154  1  0.91244430  0.21695900  0.43780800  1
  C  2155  1  0.87387600  0.22904900  0.43781800  1
  C  2160  1  0.91237030  0.21687400  0.41436200  1
  C  2161  1  0.89319700  0.22313300  0.40203000  1
  C  2162  1  0.87400300  0.22931800  0.41437200  1
  C  2164  1  0.87404100  0.21685400  0.36572500  1
  C  2165  1  0.89320300  0.22314000  0.37806100  1
  C  2166  1  0.91238530  0.22936300  0.36572000  1
  C  2167  1  0.84054800  0.84233600  0.24721500  1
  C  2168  1  0.84629700  0.80535600  0.24718700  1
  C  2169  1  0.83000700  0.82159600  0.24722400  1
  C  2181  1  0.80598000  0.86694900  0.24726500  1
  C  2182  1  0.75822400  0.86706200  0.24728900  1
  C  2183  1  0.82978400  0.86681200  0.24725900  1
  C  2184  1  0.84101600  0.88771100  0.24731000  1
  C  2185  1  0.83051600  0.90848610  0.24731200  1
  C  2186  1  0.84674700  0.92479010  0.24739200  1
  C  2187  1  0.79399300  0.86836000  0.26744100  1
  C  2188  1  0.77052000  0.86843000  0.26741000  1
  C  2194  1  0.62644900  0.84400700  0.24548000  1
  C  2195  1  0.64992100  0.84394900  0.24548400  1
  C  2198  1  0.73429100  0.86711500  0.24729400  1
  C  2199  1  0.72202000  0.88126400  0.26163900  1
  C  2201  1  0.66228300  0.86739600  0.24717200  1
  C  2202  1  0.65008700  0.88755800  0.24880900  1
  C  2203  1  0.62661400  0.88770200  0.24874900  1
  C  2206  1  0.69854400  0.88135700  0.26160200  1
  C  2207  1  0.68621200  0.86728800  0.24723000  1
  C  2209  1  0.61453300  0.86760100  0.24709900  1
  C  2210  1  0.53823800  0.84497500  0.34146900  1
  C  2211  1  0.53825800  0.84500200  0.36491600  1
  C  2213  1  0.52578000  0.88671800  0.36494600  1
  C  2214  1  0.49074400  0.86750000  0.30461400  1
  C  2215  1  0.51158800  0.86762900  0.29422600  1
  C  2216  1  0.53245200  0.86770400  0.30558900  1
  C  2217  1  0.55355900  0.86778900  0.29481000  1
  C  2218  1  0.57432700  0.86841400  0.30531300  1
  C  2219  1  0.53226000  0.86766600  0.32943200  1
  C  2220  1  0.52613200  0.88689700  0.34150100  1
  C  2223  1  0.57997900  0.86781100  0.26834500  1
  C  2224  1  0.59057500  0.86827100  0.28904400  1
  C  2225  1  0.59072800  0.86765600  0.24725900  1
  C  2230  1  0.43774300  0.84471400  0.25295300  1
  C  2232  1  0.41428100  0.84483900  0.25323600  1
  C  2234  1  0.36562900  0.84487100  0.24072700  1
  C  2236  1  0.47450700  0.86772800  0.28834800  1
  C  2237  1  0.48495100  0.86750800  0.26754800  1
  C  2238  1  0.47363400  0.86735600  0.24667400  1
  C  2239  1  0.44978400  0.86736100  0.24683400  1
  C  2241  1  0.43772300  0.88663200  0.24080300  1
  C  2242  1  0.40193700  0.86740000  0.24701900  1
  C  2243  1  0.37796200  0.86740600  0.24703500  1
  C  2244  1  0.36562900  0.88657000  0.25328600  1
  C  2246  1  0.41426100  0.88655200  0.24071700  1
  C  2247  1  0.25382700  0.84476600  0.36498100  1
  C  2248  1  0.25362300  0.84459200  0.34153300  1
  C  2250  1  0.34216600  0.84479200  0.24084300  1
  C  2251  1  0.28911100  0.86731800  0.30464900  1
  C  2252  1  0.26827700  0.86721200  0.29424400  1
  C  2253  1  0.24740400  0.86714800  0.30558800  1
  C  2254  1  0.24755900  0.86721300  0.32943000  1
  C  2256  1  0.24152200  0.88651500  0.34143300  1
  C  2257  1  0.24136100  0.88648700  0.36487600  1
  C  2258  1  0.30536300  0.86708500  0.28839500  1
  C  2259  1  0.29493500  0.86732100  0.26758600  1
  C  2260  1  0.30626600  0.86748000  0.24672100  1
  C  2261  1  0.33011700  0.86745600  0.24689600  1
  C  2262  1  0.34216600  0.88670200  0.25302300  1
  C  2267  1  0.20553000  0.86302400  0.30527100  1
  C  2269  1  0.15335100  0.84368800  0.24875700  1
  C  2271  1  0.18929900  0.86318000  0.28898900  1
  C  2273  1  0.12988100  0.84378300  0.24883900  1
  C  2275  1  0.22630800  0.86705300  0.29478900  1
  C  2278  1  0.19991700  0.86703800  0.26830000  1
  C  2279  1  0.18918900  0.86719800  0.24720400  1
  C  2280  1  0.16538600  0.86720300  0.24702900  1
  C  2281  1  0.15343100  0.88737800  0.24535700  1
  C  2283  1  0.11764900  0.86731000  0.24716000  1
  C  2284  1  0.12996100  0.88738800  0.24538900  1
  C  2286  1  0.00945600  0.86283800  0.26750100  1
  C  2287  1  0.08144900  0.84999100  0.26174900  1
  C  2288  1  0.05797400  0.85003300  0.26181500  1
  C  2292  1  0.02173700  0.86741000  0.24736000  1
  C  2293  1  0.04566300  0.86742500  0.24735700  1
  C  2294  1  0.09372700  0.86737000  0.24725200  1
  C  2295  1  0.94947330  0.82250200  0.24729200  1
  C  2296  1  0.93324430  0.80619700  0.24728400  1
  C  2297  1  0.91239930  0.81658000  0.24723500  1
  C  2299  1  0.93896930  0.84327300  0.24731500  1
  C  2300  1  0.87041800  0.81594100  0.24722400  1
  C  2301  1  0.89154700  0.80524200  0.24722200  1
  C  2302  1  0.89178200  0.78144800  0.24725200  1
  C  2303  1  0.89055000  0.76946600  0.26743600  1
  C  2304  1  0.89070200  0.74601100  0.26742600  1
  C  2305  1  0.98598230  0.86286900  0.26753800  1
  C  2312  1  0.89209300  0.73370700  0.24731700  1
  C  2313  1  0.89251000  0.63779500  0.24745700  1
  C  2314  1  0.87246300  0.62542600  0.24935500  1
  C  2315  1  0.89220200  0.70978100  0.24734800  1
  C  2316  1  0.89240300  0.66171600  0.24741300  1
  C  2317  1  0.87832400  0.67397800  0.26184000  1
  C  2318  1  0.87823400  0.69743600  0.26181500  1
  C  2321  1  0.91267230  0.62560200  0.24563500  1
  C  2323  1  0.89293800  0.52915000  0.29540300  1
  C  2324  1  0.89224200  0.54991100  0.30588400  1
  C  2325  1  0.89311200  0.50807200  0.30620500  1
  C  2326  1  0.89311300  0.50791500  0.33005300  1
  C  2327  1  0.91238530  0.51396700  0.34212200  1
  C  2328  1  0.87385800  0.50175500  0.34209400  1
  C  2331  1  0.89273500  0.59005800  0.24761300  1
  C  2332  1  0.87253000  0.60197100  0.24940500  1
  C  2334  1  0.91282530  0.60214900  0.24573300  1
  C  2336  1  0.89287800  0.56626100  0.24781800  1
  C  2337  1  0.89279700  0.55553300  0.26891300  1
  C  2339  1  0.89230800  0.56613100  0.28960400  1
  C  2341  1  0.89347500  0.46640100  0.30530500  1
  C  2342  1  0.89326000  0.48720500  0.29488000  1
  C  2344  1  0.89325300  0.45014100  0.28907400  1
  C  2346  1  0.89340800  0.46053000  0.26825100  1
  C  2347  1  0.89351500  0.44916800  0.24740300  1
  C  2348  1  0.89347700  0.42532400  0.24759700  1
  C  2349  1  0.91272030  0.41325500  0.25373200  1
  C  2350  1  0.91255430  0.38980900  0.25405000  1
  C  2351  1  0.89334300  0.37748600  0.24787800  1
  C  2355  1  0.87416800  0.41328500  0.24159900  1
  C  2356  1  0.87420000  0.38983900  0.24156800  1
  C  2357  1  0.89300200  0.26455400  0.30551300  1
  C  2358  1  0.89316800  0.24375900  0.29507000  1
  C  2360  1  0.89313800  0.30567900  0.24783000  1
  C  2361  1  0.87389300  0.31777900  0.25390500  1
  C  2362  1  0.87407100  0.34122500  0.25414200  1
  C  2363  1  0.89329000  0.35351700  0.24793500  1
  C  2365  1  0.91246030  0.31768900  0.24182100  1
  C  2366  1  0.91243530  0.34113300  0.24169400  1
  C  2367  1  0.89326500  0.28082900  0.28929600  1
  C  2369  1  0.89311500  0.27045700  0.26846400  1
  C  2370  1  0.89305500  0.28183500  0.24762600  1
  C  2372  1  0.89331300  0.20181000  0.29555100  1
  C  2373  1  0.89392800  0.18103800  0.30601200  1
  C  2374  1  0.89324700  0.22287800  0.30637300  1
  C  2375  1  0.89324200  0.22301000  0.33022100  1
  C  2376  1  0.87395800  0.21697300  0.34228000  1
  C  2377  1  0.91250930  0.22911200  0.34227400  1
  C  2379  1  0.89304800  0.16473700  0.24793500  1
  C  2380  1  0.89324800  0.17544800  0.26903800  1
  C  2382  1  0.89371200  0.16483100  0.28971900  1
  C  2384  1  0.89290800  0.14094200  0.24771600  1
  C  2385  1  0.91297030  0.12877600  0.24940800  1
  C  2388  1  0.87265600  0.12910200  0.24597500  1
  C  2389  1  0.89252300  0.09320200  0.24763800  1
  C  2390  1  0.91273730  0.10532100  0.24938500  1
  C  2392  1  0.89190500  0.02121200  0.24763800  1
  C  2393  1  0.90613430  0.03339800  0.26198500  1
  C  2394  1  0.90634930  0.05685400  0.26197400  1
  C  2395  1  0.89231800  0.06927900  0.24764100  1
  C  2398  1  0.87251000  0.10564900  0.24591300  1
  C  2399  1  0.89174000  0.99728408  0.24759800  1
  C  2401  1  0.95019530  0.86756500  0.24734300  1
  C  2402  1  0.97399330  0.86743100  0.24735000  1
  C  2403  1  0.93943430  0.88864600  0.24736300  1
  C  2405  1  0.91296430  0.91504110  0.24742800  1
  C  2406  1  0.93369430  0.92562410  0.24740800  1
  C  2407  1  0.94998130  0.90938210  0.24740700  1
  C  2408  1  0.89183700  0.92574410  0.24742800  1
  C  2409  1  0.87098300  0.91440510  0.24736200  1
  C  2410  1  0.89162300  0.94954010  0.24749700  1
  C  2411  1  0.89320000  0.98495210  0.26768600  1
  C  2412  1  0.89313500  0.96149610  0.26767800  1
  C  2417  1  0.77049500  0.86225000  0.22715600  1
  C  2418  1  0.79396800  0.86219900  0.22710200  1
  C  2427  1  0.72195500  0.84964200  0.23293500  1
  C  2429  1  0.69847900  0.84971700  0.23291300  1
  C  2431  1  0.53044500  0.84344400  0.15273600  1
  C  2433  1  0.49017800  0.86316400  0.18860000  1
  C  2434  1  0.53035500  0.84338800  0.12928200  1
  C  2436  1  0.57947200  0.86748800  0.22638000  1
  C  2437  1  0.58994600  0.86745600  0.20559400  1
  C  2440  1  0.55286700  0.86736100  0.19973700  1
  C  2441  1  0.57369200  0.86733800  0.18931700  1
  C  2442  1  0.53200000  0.86716500  0.18844000  1
  C  2443  1  0.51089500  0.86706300  0.19918100  1
  C  2445  1  0.53218000  0.86702800  0.16464600  1
  C  2446  1  0.53385000  0.88711800  0.15255600  1
  C  2450  1  0.53380700  0.88697600  0.12910200  1
  C  2451  1  0.53202300  0.86682900  0.11691300  1
  C  2454  1  0.47390200  0.86308200  0.20483800  1
  C  2457  1  0.48441800  0.86718200  0.22558600  1
  C  2461  1  0.24608900  0.84432400  0.15261600  1
  C  2463  1  0.24610700  0.84438900  0.12916400  1
  C  2465  1  0.29550000  0.86769100  0.22562200  1
  C  2466  1  0.30603500  0.86841700  0.20488300  1
  C  2468  1  0.24795500  0.86777100  0.18843200  1
  C  2469  1  0.26904900  0.86785800  0.19919200  1
  C  2471  1  0.28977600  0.86835200  0.18863000  1
  C  2472  1  0.24778900  0.86784400  0.16463800  1
  C  2473  1  0.24952500  0.88799700  0.15266100  1
  C  2476  1  0.24787200  0.86788900  0.11690400  1
  C  2477  1  0.24958000  0.88797500  0.12920500  1
  C  2479  1  0.20045500  0.86739800  0.22633500  1
  C  2481  1  0.22707800  0.86756000  0.19971200  1
  C  2482  1  0.20626100  0.86756800  0.18927700  1
  C  2483  1  0.18999600  0.86742100  0.20554300  1
  C  2487  1  0.00946200  0.86857900  0.22721400  1
  C  2488  1  0.05794600  0.88142200  0.23287500  1
  C  2489  1  0.08141900  0.88141000  0.23283700  1
  C  2493  1  0.89334800  0.74597400  0.22717400  1
  C  2494  1  0.89318800  0.76942900  0.22710100  1
  C  2497  1  0.90626430  0.69751600  0.23290800  1
  C  2498  1  0.90638130  0.67405800  0.23295500  1
  C  2502  1  0.89341700  0.50745100  0.18911300  1
  C  2503  1  0.89321800  0.52832300  0.20037500  1
  C  2505  1  0.89307000  0.55496200  0.22696600  1
  C  2506  1  0.89298000  0.56538200  0.20615900  1
  C  2507  1  0.89311300  0.54910800  0.18991500  1
  C  2508  1  0.89329300  0.50761100  0.16531700  1
  C  2509  1  0.87304000  0.50925900  0.15346700  1
  C  2510  1  0.91336930  0.50598500  0.15316600  1
  C  2514  1  0.87290600  0.50930400  0.13001600  1
  C  2515  1  0.89293500  0.50766500  0.11758200  1
  C  2516  1  0.91314930  0.50598900  0.12971000  1
  C  2518  1  0.89361500  0.45993400  0.22630500  1
  C  2520  1  0.89361500  0.48637500  0.19987700  1
  C  2521  1  0.89411200  0.46566800  0.18931200  1
  C  2522  1  0.89426800  0.44941800  0.20556300  1
  C  2528  1  0.89290300  0.27108600  0.22652000  1
  C  2530  1  0.89274800  0.24467000  0.20007000  1
  C  2531  1  0.89234200  0.26538700  0.18952400  1
  C  2532  1  0.89226800  0.28162400  0.20578700  1
  C  2534  1  0.89279300  0.22360300  0.18928400  1
  C  2535  1  0.89290300  0.20271900  0.20052400  1
  C  2537  1  0.89291300  0.17605400  0.22709200  1
  C  2538  1  0.89285200  0.16565300  0.20627700  1
  C  2539  1  0.89280200  0.18194200  0.19004700  1
  C  2540  1  0.89268800  0.22347400  0.16548800  1
  C  2541  1  0.91280430  0.22173900  0.15341900  1
  C  2542  1  0.87249600  0.22528100  0.15355700  1
  C  2547  1  0.91268730  0.22178400  0.12996400  1
  C  2548  1  0.89253800  0.22362800  0.11775400  1
  C  2549  1  0.87246600  0.22537100  0.13010400  1
  C  2551  1  0.87806800  0.05709700  0.23331300  1
  C  2552  1  0.87787400  0.03364100  0.23330300  1
  C  2556  1  0.89014300  0.96158710  0.22736700  1
  C  2557  1  0.89018800  0.98504310  0.22746000  1
  C  2558  1  0.98599230  0.86857900  0.22716600  1
  C  2561  1  0.53157800  0.86297100  0.02100500  1
  C  2562  1  0.53166200  0.86311400  0.04492900  1
  C  2563  1  0.51736100  0.84905900  0.05736800  1
  C  2564  1  0.51748100  0.84916200  0.08082400  1
  C  2568  1  0.53189200  0.86334000  0.09299200  1
  C  2569  1  0.51140600  0.86139000  0.00879600  1
  C  2570  1  0.54617100  0.88080900  0.08055600  1
  C  2571  1  0.54606800  0.88069000  0.05710000  1
  C  2575  1  0.55167400  0.86777600  0.00864800  1
  C  2576  1  0.24822000  0.86778800  0.02099900  1
  C  2577  1  0.24813700  0.86782900  0.04492300  1
  C  2578  1  0.26245400  0.88195500  0.05726300  1
  C  2579  1  0.26235600  0.88199300  0.08072100  1
  C  2580  1  0.24795000  0.86789300  0.09298400  1
  C  2584  1  0.26839400  0.86923000  0.00877400  1
  C  2585  1  0.23363900  0.85036900  0.08064600  1
  C  2586  1  0.23371900  0.85035100  0.05719000  1
  C  2590  1  0.22812000  0.86291000  0.00865600  1
  C  2591  1  0.89200300  0.50762100  0.02167100  1
  C  2592  1  0.89028000  0.52771500  0.00938000  1
  C  2593  1  0.89226500  0.50764900  0.04559500  1
  C  2594  1  0.90657730  0.49337500  0.05777000  1
  C  2595  1  0.90681730  0.49339700  0.08122700  1
  C  2596  1  0.89273800  0.50767900  0.09366000  1
  C  2597  1  0.87842900  0.52195300  0.08148700  1
  C  2598  1  0.87820600  0.52194600  0.05803300  1
  C  2602  1  0.89344300  0.48749900  0.00939200  1
  C  2609  1  0.89046200  0.24376400  0.00952000  1
  C  2610  1  0.89197000  0.22367400  0.02184300  1
  C  2611  1  0.89329800  0.20352500  0.00959500  1
  C  2612  1  0.89216700  0.22372200  0.04576800  1
  C  2613  1  0.90633430  0.20934000  0.05798600  1
  C  2614  1  0.90648730  0.20934200  0.08144200  1
  C  2615  1  0.89245700  0.22370400  0.09383300  1
  C  2616  1  0.87831600  0.23811300  0.08162000  1
  C  2617  1  0.87818300  0.23813100  0.05816200  1
  C  2621  1  0.84065200  0.50714900  0.87106600  1
  C  2622  1  0.84018500  0.50720100  0.91305010  1
  C  2623  1  0.82964500  0.50720900  0.93379110  1
  C  2624  1  0.84593600  0.50730600  0.95003110  1
  C  2625  1  0.82942100  0.50710600  0.89196600  1
  C  2626  1  0.80561600  0.50699800  0.89183700  1
  C  2627  1  0.75786000  0.50682300  0.89190600  1
  C  2628  1  0.77006900  0.52700100  0.89059400  1
  C  2629  1  0.79354100  0.52713100  0.89057900  1
  C  2635  1  0.79369300  0.48677700  0.89311900  1
  C  2636  1  0.77021900  0.48673300  0.89315500  1
  C  2641  1  0.79367900  0.24289100  0.89057400  1
  C  2642  1  0.77020700  0.24272000  0.89064900  1
  C  2643  1  0.84674000  0.22317000  0.94949010  1
  C  2644  1  0.83045800  0.22302000  0.93323610  1
  C  2645  1  0.84089300  0.22302700  0.91242710  1
  C  2646  1  0.84029700  0.22298800  0.87044700  1
  C  2647  1  0.82959900  0.22291500  0.89156300  1
  C  2648  1  0.80579500  0.22278000  0.89177300  1
  C  2649  1  0.75803900  0.22251400  0.89192300  1
  C  2650  1  0.77043900  0.20244700  0.89315500  1
  C  2651  1  0.79391300  0.20253600  0.89307200  1
  C  2657  1  0.73392500  0.50675000  0.89199500  1
  C  2658  1  0.72153100  0.52116800  0.87802900  1
  C  2659  1  0.72171100  0.49228100  0.90607010  1
  C  2661  1  0.62607700  0.50836500  0.87235800  1
  C  2662  1  0.64954900  0.50840800  0.87229800  1
  C  2663  1  0.66191700  0.50665800  0.89234400  1
  C  2664  1  0.64972700  0.50488200  0.91249710  1
  C  2665  1  0.62625400  0.50487300  0.91264210  1
  C  2666  1  0.69805800  0.52113000  0.87813900  1
  C  2667  1  0.68584500  0.50668000  0.89222900  1
  C  2668  1  0.69823400  0.49225600  0.90619510  1
  C  2672  1  0.61416600  0.50660800  0.89255100  1
  C  2677  1  0.73410500  0.22238200  0.89193300  1
  C  2678  1  0.72188100  0.20785700  0.90593910  1
  C  2679  1  0.72172000  0.23677400  0.87792900  1
  C  2681  1  0.62638100  0.22024300  0.91218110  1
  C  2682  1  0.64985200  0.22022600  0.91209410  1
  C  2683  1  0.66209500  0.22203900  0.89197800  1
  C  2684  1  0.64977700  0.22382600  0.87190200  1
  C  2685  1  0.62630600  0.22379600  0.87190200  1
  C  2688  1  0.69840400  0.20774000  0.90595210  1
  C  2689  1  0.68602500  0.22213200  0.89194600  1
  C  2690  1  0.69824600  0.23664100  0.87792400  1
  C  2692  1  0.61434300  0.22202600  0.89206500  1
  C  2693  1  0.53115800  0.81545300  0.87036300  1
  C  2694  1  0.53122500  0.80417500  0.89123200  1
  C  2695  1  0.53128300  0.81491300  0.91232610  1
  C  2697  1  0.53131800  0.84134400  0.93874710  1
  C  2698  1  0.53138700  0.82062300  0.94930810  1
  C  2699  1  0.53132500  0.80436200  0.93305310  1
  C  2700  1  0.53135800  0.86244100  0.94947310  1
  C  2701  1  0.53142800  0.86263800  0.97326710  1
  C  2702  1  0.51129000  0.86124400  0.98534110  1
  C  2703  1  0.53126500  0.78038100  0.89106600  1
  C  2704  1  0.55147500  0.76841300  0.89232900  1
  C  2705  1  0.51109000  0.76834900  0.88983200  1
  C  2706  1  0.51116600  0.74489300  0.88986700  1
  C  2707  1  0.55146700  0.74495900  0.89239100  1
  C  2714  1  0.53133300  0.73264200  0.89118100  1
  C  2717  1  0.53353300  0.62455500  0.91181110  1
  C  2718  1  0.53160300  0.63673800  0.89167300  1
  C  2719  1  0.52977400  0.62436500  0.87164400  1
  C  2721  1  0.53137200  0.70871800  0.89131900  1
  C  2722  1  0.54589600  0.69652500  0.90536110  1
  C  2723  1  0.54594800  0.67306900  0.90549910  1
  C  2724  1  0.53150300  0.66065700  0.89157000  1
  C  2725  1  0.51697100  0.67284400  0.87753400  1
  C  2726  1  0.51689100  0.69630200  0.87742800  1
  C  2730  1  0.57909000  0.52730000  0.89242100  1
  C  2731  1  0.58955000  0.54809400  0.89238400  1
  C  2732  1  0.59036000  0.50643000  0.89260400  1
  C  2734  1  0.53175700  0.58900600  0.89188600  1
  C  2735  1  0.53357800  0.60110200  0.91195910  1
  C  2736  1  0.52986400  0.60091100  0.87170500  1
  C  2740  1  0.51049800  0.55445300  0.89195800  1
  C  2741  1  0.53159300  0.56521000  0.89203500  1
  C  2742  1  0.55246900  0.55392700  0.89225400  1
  C  2744  1  0.57328600  0.56435900  0.89223100  1
  C  2747  1  0.48977400  0.56502000  0.89146500  1
  C  2748  1  0.57962200  0.48533800  0.89275100  1
  C  2749  1  0.59023100  0.46464600  0.89320200  1
  C  2751  1  0.51124500  0.45940500  0.89257700  1
  C  2754  1  0.55321900  0.45885500  0.89271700  1
  C  2755  1  0.57399600  0.44836700  0.89334300  1
  C  2756  1  0.53211800  0.44805900  0.89263200  1
  C  2757  1  0.49040800  0.44900500  0.89248100  1
  C  2758  1  0.53195700  0.42421500  0.89258600  1
  C  2759  1  0.53798800  0.41219100  0.87329400  1
  C  2760  1  0.53813500  0.38874600  0.87334000  1
  C  2761  1  0.53191500  0.37637700  0.89248800  1
  C  2762  1  0.52569700  0.38868100  0.91167810  1
  C  2763  1  0.52589500  0.41212900  0.91182610  1
  C  2767  1  0.57984200  0.24336400  0.89208500  1
  C  2768  1  0.59049000  0.26403800  0.89165000  1
  C  2770  1  0.53227500  0.30457200  0.89236100  1
  C  2771  1  0.53829100  0.31662600  0.91163610  1
  C  2772  1  0.53832100  0.34007300  0.91158510  1
  C  2773  1  0.53199000  0.35240800  0.89245300  1
  C  2774  1  0.52580200  0.34007100  0.87327500  1
  C  2775  1  0.52613200  0.31662600  0.87312400  1
  C  2779  1  0.51152100  0.26941600  0.89245600  1
  C  2782  1  0.55349200  0.26989900  0.89221100  1
  C  2783  1  0.57428600  0.28034800  0.89157500  1
  C  2784  1  0.53241200  0.28072800  0.89234900  1
  C  2785  1  0.49070600  0.27985700  0.89261900  1
  C  2786  1  0.57922500  0.20140000  0.89228600  1
  C  2787  1  0.58964500  0.18058600  0.89218100  1
  C  2788  1  0.59053600  0.22224700  0.89215100  1
  C  2791  1  0.51057600  0.17436900  0.89277100  1
  C  2792  1  0.53165500  0.16357700  0.89255700  1
  C  2793  1  0.55255000  0.17482400  0.89237400  1
  C  2795  1  0.57334900  0.16435100  0.89227100  1
  C  2798  1  0.48983300  0.16384200  0.89327800  1
  C  2799  1  0.53178000  0.13977900  0.89243100  1
  C  2800  1  0.53341200  0.12792800  0.87219700  1
  C  2801  1  0.53009500  0.12763200  0.91248410  1
  C  2804  1  0.53337700  0.10447500  0.87206000  1
  C  2805  1  0.53166800  0.09204500  0.89206600  1
  C  2806  1  0.53001700  0.10417600  0.91226110  1
  C  2808  1  0.53144200  0.02005800  0.89146200  1
  C  2809  1  0.51716400  0.03228700  0.90572410  1
  C  2810  1  0.51724600  0.05574500  0.90593210  1
  C  2811  1  0.53159300  0.06812200  0.89187200  1
  C  2812  1  0.54585600  0.05589500  0.87759600  1
  C  2813  1  0.54579100  0.03244000  0.87740500  1
  C  2817  1  0.53138800  0.99613208  0.89126900  1
  C  2820  1  0.53135300  0.88669700  0.93818310  1
  C  2822  1  0.53128200  0.91331510  0.91155310  1
  C  2823  1  0.53137200  0.92375410  0.93235210  1
  C  2824  1  0.53136800  0.90749710  0.94861410  1
  C  2825  1  0.53125700  0.92459810  0.89068800  1
  C  2826  1  0.53121500  0.91386210  0.86959400  1
  C  2827  1  0.53129500  0.94839210  0.89087800  1
  C  2828  1  0.51114600  0.96042010  0.89252400  1
  C  2829  1  0.51123500  0.98387510  0.89272900  1
  C  2830  1  0.55149400  0.98382010  0.88961900  1
  C  2831  1  0.55149000  0.96036710  0.88943200  1
  C  2832  1  0.55164400  0.86759500  0.98519310  1
  C  2840  1  0.47326400  0.50693600  0.89238300  1
  C  2841  1  0.48404000  0.52803000  0.89215600  1
  C  2842  1  0.47351100  0.54877200  0.89143900  1
  C  2843  1  0.44941200  0.50678500  0.89250400  1
  C  2844  1  0.43745500  0.51292500  0.91180510  1
  C  2845  1  0.43726800  0.50071900  0.87329900  1
  C  2848  1  0.41380400  0.50063300  0.87348900  1
  C  2849  1  0.40156500  0.50699600  0.89267700  1
  C  2850  1  0.41399400  0.51320000  0.91179110  1
  C  2852  1  0.36522600  0.50119000  0.91193910  1
  C  2853  1  0.37759000  0.50725100  0.89273400  1
  C  2854  1  0.36528600  0.51365100  0.87360200  1
  C  2856  1  0.47415700  0.46526000  0.89272600  1
  C  2857  1  0.48459000  0.48606700  0.89250300  1
  C  2861  1  0.47442700  0.26363500  0.89238600  1
  C  2862  1  0.48481600  0.24280600  0.89259100  1
  C  2865  1  0.47344100  0.22196300  0.89272100  1
  C  2866  1  0.48416800  0.20084400  0.89281100  1
  C  2867  1  0.47360100  0.18012300  0.89346300  1
  C  2868  1  0.44958900  0.22220100  0.89271700  1
  C  2869  1  0.43750800  0.21628000  0.87342700  1
  C  2870  1  0.43757000  0.22841300  0.91195610  1
  C  2874  1  0.41411100  0.22890700  0.91179010  1
  C  2875  1  0.40174500  0.22283200  0.89259100  1
  C  2876  1  0.41404600  0.21641200  0.87346500  1
  C  2877  1  0.36553900  0.22946300  0.87333900  1
  C  2878  1  0.37777200  0.22310500  0.89253300  1
  C  2879  1  0.36533400  0.21692600  0.91165010  1
  C  2881  1  0.24834500  0.84360600  0.93819910  1
  C  2883  1  0.24826900  0.81695500  0.91159510  1
  C  2884  1  0.24824700  0.80654200  0.93240710  1
  C  2885  1  0.24833700  0.82281700  0.94865210  1
  C  2886  1  0.24817400  0.80564800  0.89073900  1
  C  2887  1  0.24807000  0.81636800  0.86963600  1
  C  2888  1  0.24813900  0.78184900  0.89095100  1
  C  2889  1  0.26828700  0.76982100  0.89258100  1
  C  2890  1  0.26820400  0.74636400  0.89278600  1
  C  2896  1  0.24805400  0.73409400  0.89136000  1
  C  2897  1  0.24775000  0.63814600  0.89221400  1
  C  2898  1  0.24963300  0.62602000  0.91239410  1
  C  2900  1  0.24800200  0.71016000  0.89156200  1
  C  2901  1  0.26237300  0.69792700  0.90572910  1
  C  2902  1  0.26228600  0.67446800  0.90595110  1
  C  2903  1  0.24784000  0.66207700  0.89200000  1
  C  2906  1  0.24578700  0.62569400  0.87224300  1
  C  2907  1  0.30589600  0.50815000  0.89288500  1
  C  2908  1  0.29518400  0.52927700  0.89296700  1
  C  2909  1  0.30577000  0.54999200  0.89356600  1
  C  2910  1  0.32974700  0.50789500  0.89287200  1
  C  2911  1  0.34182400  0.51378100  0.87356700  1
  C  2912  1  0.34176900  0.50170700  0.91211410  1
  C  2915  1  0.24761200  0.59039500  0.89261600  1
  C  2916  1  0.24954300  0.60256400  0.91263510  1
  C  2919  1  0.24574900  0.60223900  0.87239600  1
  C  2921  1  0.26879700  0.55578000  0.89293700  1
  C  2922  1  0.28955100  0.56628900  0.89338200  1
  C  2923  1  0.24772900  0.56659200  0.89275600  1
  C  2925  1  0.30489500  0.46647600  0.89257400  1
  C  2926  1  0.29451400  0.48731100  0.89278100  1
  C  2928  1  0.28860900  0.45026000  0.89279900  1
  C  2929  1  0.26779900  0.46071200  0.89265400  1
  C  2931  1  0.24690500  0.44940800  0.89253800  1
  C  2932  1  0.24702700  0.42556400  0.89250400  1
  C  2933  1  0.24727700  0.37773100  0.89249900  1
  C  2934  1  0.25344800  0.39010200  0.87333700  1
  C  2935  1  0.25313800  0.41354600  0.87323500  1
  C  2937  1  0.24101900  0.41347600  0.91176110  1
  C  2938  1  0.24097200  0.39003000  0.91166110  1
  C  2939  1  0.30517100  0.26489900  0.89253900  1
  C  2940  1  0.29474400  0.24409000  0.89233600  1
  C  2942  1  0.24735700  0.30592900  0.89248900  1
  C  2943  1  0.24735500  0.35376400  0.89248800  1
  C  2944  1  0.25362500  0.34142600  0.91164010  1
  C  2945  1  0.25343700  0.31798000  0.91174610  1
  C  2949  1  0.24128400  0.31798300  0.87323000  1
  C  2950  1  0.24110400  0.34142800  0.87333000  1
  C  2951  1  0.28891600  0.28115100  0.89228800  1
  C  2952  1  0.26808200  0.27074600  0.89241400  1
  C  2954  1  0.24720500  0.28208500  0.89249600  1
  C  2955  1  0.30607500  0.22322500  0.89223100  1
  C  2956  1  0.29530400  0.20212900  0.89200300  1
  C  2957  1  0.30583600  0.18138900  0.89128000  1
  C  2958  1  0.32992500  0.22337400  0.89236100  1
  C  2959  1  0.34187400  0.21724400  0.91166810  1
  C  2960  1  0.34207400  0.22940300  0.87314700  1
  C  2964  1  0.26885200  0.17570600  0.89178800  1
  C  2965  1  0.28957600  0.16513900  0.89131400  1
  C  2966  1  0.24775900  0.16494900  0.89184000  1
  C  2968  1  0.24760200  0.14116000  0.89171300  1
  C  2969  1  0.24933800  0.12924700  0.87152400  1
  C  2971  1  0.24595700  0.12908500  0.91181310  1
  C  2973  1  0.24779900  0.09344500  0.89154000  1
  C  2974  1  0.24945200  0.10579400  0.87148100  1
  C  2975  1  0.24808000  0.02149500  0.89122900  1
  C  2976  1  0.24791900  0.06953400  0.89145700  1
  C  2977  1  0.26241800  0.05735800  0.87737600  1
  C  2978  1  0.26250900  0.03390200  0.87728000  1
  C  2980  1  0.24601900  0.10563400  0.91168610  1
  C  2982  1  0.24812000  0.99758108  0.89109100  1
  C  2984  1  0.24813700  0.91477810  0.87031300  1
  C  2985  1  0.24822200  0.92607010  0.89117200  1
  C  2986  1  0.24829500  0.91535810  0.91227410  1
  C  2988  1  0.24840500  0.88895800  0.93872110  1
  C  2989  1  0.24839500  0.90969210  0.94926010  1
  C  2990  1  0.24836900  0.92593510  0.93298810  1
  C  2991  1  0.24840400  0.86787300  0.94946810  1
  C  2992  1  0.24836200  0.86772100  0.97326210  1
  C  2993  1  0.26850600  0.86919300  0.98532010  1
  C  2994  1  0.24818700  0.94985810  0.89098400  1
  C  2995  1  0.26836900  0.96188410  0.88978900  1
  C  2996  1  0.26829400  0.98533810  0.88982700  1
  C  3002  1  0.22794800  0.74641000  0.88972200  1
  C  3003  1  0.22794700  0.76986600  0.88953100  1
  C  3004  1  0.22814800  0.86289600  0.98520310  1
  C  3008  1  0.23348800  0.67430900  0.87781600  1
  C  3009  1  0.23356800  0.69776600  0.87760300  1
  C  3012  1  0.22682800  0.55534900  0.89261200  1
  C  3014  1  0.20014800  0.52877600  0.89254600  1
  C  3015  1  0.18973200  0.54959100  0.89253800  1
  C  3016  1  0.20603100  0.56582300  0.89261900  1
  C  3017  1  0.18883600  0.50793000  0.89238600  1
  C  3018  1  0.16503400  0.50815700  0.89226600  1
  C  3019  1  0.15296100  0.50969000  0.91238110  1
  C  3020  1  0.15311800  0.50659300  0.87206000  1
  C  3024  1  0.12949100  0.50968300  0.91225110  1
  C  3025  1  0.11729700  0.50807300  0.89208800  1
  C  3026  1  0.12964800  0.50653800  0.87201500  1
  C  3028  1  0.19951000  0.48680500  0.89230100  1
  C  3030  1  0.22583500  0.46025200  0.89240600  1
  C  3031  1  0.20503500  0.44981600  0.89174300  1
  C  3032  1  0.18884400  0.46614100  0.89182800  1
  C  3038  1  0.19971700  0.24479600  0.89254100  1
  C  3040  1  0.22610800  0.27128400  0.89257700  1
  C  3041  1  0.20532800  0.28176300  0.89323200  1
  C  3042  1  0.18909700  0.26548200  0.89304000  1
  C  3045  1  0.22688000  0.17621900  0.89202600  1
  C  3047  1  0.20025500  0.20283200  0.89215600  1
  C  3048  1  0.18979700  0.18203800  0.89210000  1
  C  3049  1  0.20606600  0.16577600  0.89197500  1
  C  3050  1  0.18898700  0.22370100  0.89235100  1
  C  3051  1  0.16518700  0.22351800  0.89229800  1
  C  3052  1  0.15327500  0.22194300  0.87209000  1
  C  3053  1  0.15311100  0.22509900  0.91240710  1
  C  3058  1  0.12980600  0.22193800  0.87203500  1
  C  3059  1  0.11745200  0.22356300  0.89209800  1
  C  3060  1  0.12964100  0.22513600  0.91226610  1
  C  3061  1  0.23359300  0.03367700  0.90531810  1
  C  3062  1  0.23352900  0.05713000  0.90544410  1
  C  3066  1  0.22797300  0.96182010  0.89220500  1
  C  3067  1  0.22798200  0.98527310  0.89225600  1
  C  3069  1  0.02138000  0.50779900  0.89165200  1
  C  3070  1  0.04530700  0.50784000  0.89178500  1
  C  3071  1  0.05770900  0.49353000  0.87771800  1
  C  3072  1  0.08118300  0.49360600  0.87781400  1
  C  3073  1  0.09337200  0.50798200  0.89200100  1
  C  3074  1  0.08097300  0.52226900  0.90609210  1
  C  3075  1  0.05749900  0.52221100  0.90597610  1
  C  3079  1  0.00906200  0.52791200  0.89293500  1
  C  3080  1  0.00914400  0.48764700  0.89021300  1
  C  3087  1  0.00927200  0.24391400  0.89297400  1
  C  3089  1  0.00926700  0.20363600  0.89043500  1
  C  3090  1  0.02154500  0.22377200  0.89171000  1
  C  3091  1  0.04547000  0.22375600  0.89177200  1
  C  3092  1  0.05773900  0.23811100  0.90591210  1
  C  3093  1  0.08121300  0.23804500  0.90602410  1
  C  3094  1  0.09353000  0.22363300  0.89198600  1
  C  3095  1  0.08126400  0.20930200  0.87782100  1
  C  3096  1  0.05779300  0.20934700  0.87773300  1
  C  3099  1  0.93907530  0.50761400  0.87012700  1
  C  3100  1  0.94983630  0.50768000  0.89121100  1
  C  3101  1  0.93860530  0.50768700  0.91210610  1
  C  3103  1  0.91203530  0.50760400  0.93879710  1
  C  3104  1  0.93287930  0.50774000  0.94918210  1
  C  3105  1  0.94910830  0.50774400  0.93287810  1
  C  3106  1  0.89118300  0.50753900  0.95013910  1
  C  3107  1  0.87005500  0.50742700  0.93944310  1
  C  3108  1  0.89143300  0.50756600  0.97393310  1
  C  3109  1  0.89000800  0.52773000  0.98592810  1
  C  3110  1  0.97363630  0.50772400  0.89135700  1
  C  3111  1  0.98559130  0.52791700  0.89277400  1
  C  3118  1  0.89315500  0.48742900  0.98593810  1
  C  3119  1  0.98567230  0.48756800  0.89008800  1
  C  3124  1  0.98580130  0.24395500  0.89298700  1
  C  3125  1  0.89033700  0.24375000  0.98606410  1
  C  3126  1  0.87094100  0.22333100  0.93903910  1
  C  3127  1  0.89183000  0.22351600  0.95030910  1
  C  3128  1  0.91292430  0.22362900  0.93954310  1
  C  3130  1  0.93931230  0.22375400  0.91307010  1
  C  3131  1  0.94992330  0.22384100  0.93377210  1
  C  3132  1  0.93368630  0.22380900  0.95006410  1
  C  3133  1  0.95000630  0.22374700  0.89195300  1
  C  3134  1  0.93871530  0.22364600  0.87109100  1
  C  3135  1  0.97380530  0.22377400  0.89175000  1
  C  3136  1  0.98579730  0.20359500  0.89047300  1
  C  3137  1  0.89169300  0.22356100  0.97410310  1
  C  3138  1  0.89317000  0.20342800  0.98614210  1
  N  5  1  0.99613400  0.64046100  0.99634200  1
  N  10  1  0.99573500  0.35633600  0.99588400  1
  N  18  1  0.66447700  0.97080300  0.99568800  1
  N  38  1  0.66450300  0.02495500  0.99508000  1
  N  54  1  0.38137400  0.97166900  0.99510000  1
  N  76  1  0.38139200  0.02582200  0.99566100  1
  N  96  1  0.05027500  0.64072500  0.99563900  1
  N  128  1  0.04987000  0.35676400  0.99643400  1
  N  209  1  0.99615000  0.97162700  0.66455900  1
  N  229  1  0.99540800  0.02582700  0.66452300  1
  N  269  1  0.64001500  0.00054300  0.63961500  1
  N  270  1  0.69075300  0.00039300  0.63902000  1
  N  271  1  0.69016200  0.00032500  0.68982900  1
  N  273  1  0.63940000  0.00047100  0.69039800  1
  N  314  1  0.40565000  0.00068400  0.63965100  1
  N  315  1  0.40620000  0.00076400  0.69043600  1
  N  323  1  0.35492000  0.00077400  0.63898000  1
  N  327  1  0.35544500  0.00089200  0.68979500  1
  N  355  1  0.05028800  0.97116700  0.66461600  1
  N  398  1  0.02618200  0.66583600  0.69042500  1
  N  403  1  0.02632000  0.66643400  0.63965500  1
  N  411  1  0.02639000  0.61569200  0.64023900  1
  N  415  1  0.02622200  0.61507300  0.69098700  1
  N  439  1  0.02663200  0.38134600  0.64040900  1
  N  443  1  0.02657700  0.38195300  0.69115100  1
  N  449  1  0.02647200  0.33118300  0.69057500  1
  N  454  1  0.02649200  0.33060100  0.63980600  1
  N  485  1  0.04954300  0.02536100  0.66460100  1
  N  600  1  0.99600000  0.97123900  0.38042500  1
  N  621  1  0.99649700  0.02543700  0.38052000  1
  N  655  1  0.64044800  0.00075300  0.40525800  1
  N  656  1  0.69118500  0.00073400  0.40589700  1
  N  693  1  0.40608500  0.00049000  0.40528000  1
  N  705  1  0.35535500  0.00051600  0.40587200  1
  N  726  1  0.05013700  0.97194300  0.38045800  1
  N  766  1  0.02649300  0.66666667  0.40648700  1
  N  773  1  0.02665000  0.61589200  0.40592100  1
  N  796  1  0.02647000  0.38148700  0.40611500  1
  N  809  1  0.02633700  0.33074000  0.40663200  1
  N  832  1  0.05063300  0.02614000  0.38058500  1
  N  867  1  0.69063500  0.00065400  0.35509100  1
  N  872  1  0.63987000  0.00063100  0.35448000  1
  N  898  1  0.40670400  0.00065800  0.35449500  1
  N  908  1  0.35594500  0.00066600  0.35506400  1
  N  932  1  0.02654000  0.66600600  0.35571800  1
  N  947  1  0.02665800  0.61523800  0.35517900  1
  N  957  1  0.02641200  0.38218100  0.35537500  1
  N  964  1  0.02629000  0.33141100  0.35586500  1
  N  1062  1  0.99563600  0.64054400  0.05054000  1
  N  1084  1  0.99638800  0.35641800  0.05008600  1
  N  1124  1  0.66459300  0.97021500  0.04984100  1
  N  1167  1  0.63948800  0.66554700  0.02556400  1
  N  1171  1  0.69025000  0.66497100  0.02556700  1
  N  1180  1  0.64008800  0.61476500  0.02570100  1
  N  1181  1  0.69083200  0.61416700  0.02566900  1
  N  1208  1  0.64032500  0.38046000  0.02573400  1
  N  1209  1  0.69106200  0.38097300  0.02561200  1
  N  1218  1  0.63960800  0.32968000  0.02570200  1
  N  1222  1  0.69037700  0.33016600  0.02559600  1
  N  1249  1  0.66461200  0.02436200  0.04922800  1
  N  1310  1  0.38165200  0.97231000  0.04924800  1
  N  1348  1  0.40639700  0.66685900  0.02589500  1
  N  1358  1  0.40565500  0.61606400  0.02594200  1
  N  1381  1  0.40589400  0.38178200  0.02555100  1
  N  1391  1  0.40650700  0.33100700  0.02539400  1
  N  1415  1  0.38166200  0.02645600  0.04981100  1
  N  1441  1  0.35564900  0.66640100  0.02579500  1
  N  1457  1  0.35493500  0.61557600  0.02584200  1
  N  1467  1  0.35515500  0.38237000  0.02546600  1
  N  1474  1  0.35574500  0.33156800  0.02532600  1
  N  1530  1  0.04977300  0.64079700  0.04983100  1
  N  1557  1  0.05052500  0.35681700  0.05062900  1
  N  1577  1  0.86280900  0.50726300  0.86314400  1
  N  1582  1  0.86241000  0.22313800  0.86268600  1
  N  1590  1  0.53115200  0.83760500  0.86249000  1
  N  1610  1  0.53117800  0.89175700  0.86188200  1
  N  1626  1  0.24804900  0.83847100  0.86190200  1
  N  1648  1  0.24806700  0.89262400  0.86246300  1
  N  1668  1  0.91695030  0.50752700  0.86244100  1
  N  1700  1  0.91654530  0.22356600  0.86323600  1
  N  1781  1  0.86282500  0.83842900  0.53136100  1
  N  1801  1  0.86208300  0.89262900  0.53132500  1
  N  1841  1  0.50669000  0.86734500  0.50641700  1
  N  1842  1  0.55742800  0.86719500  0.50582200  1
  N  1843  1  0.55683700  0.86712700  0.55663100  1
  N  1845  1  0.50607500  0.86727300  0.55720000  1
  N  1886  1  0.27232500  0.86748600  0.50645300  1
  N  1887  1  0.27287500  0.86756600  0.55723800  1
  N  1895  1  0.22159500  0.86757600  0.50578200  1
  N  1899  1  0.22212000  0.86769400  0.55659700  1
  N  1927  1  0.91696330  0.83796900  0.53141800  1
  N  1970  1  0.89285700  0.53263800  0.55722700  1
  N  1975  1  0.89299500  0.53323600  0.50645700  1
  N  1983  1  0.89306500  0.48249400  0.50704100  1
  N  1987  1  0.89289700  0.48187500  0.55778900  1
  N  2011  1  0.89330700  0.24814800  0.50721100  1
  N  2015  1  0.89325200  0.24875500  0.55795300  1
  N  2021  1  0.89314700  0.19798500  0.55737700  1
  N  2026  1  0.89316700  0.19740300  0.50660800  1
  N  2057  1  0.91621830  0.89216300  0.53140300  1
  N  2172  1  0.86267500  0.83804100  0.24722700  1
  N  2193  1  0.86317200  0.89223900  0.24732200  1
  N  2227  1  0.50712300  0.86755500  0.27206000  1
  N  2228  1  0.55786000  0.86753600  0.27269900  1
  N  2265  1  0.27276000  0.86729200  0.27208200  1
  N  2277  1  0.22203000  0.86731800  0.27267400  1
  N  2298  1  0.91681230  0.83874500  0.24726000  1
  N  2338  1  0.89316800  0.53343800  0.27328900  1
  N  2345  1  0.89332500  0.48269400  0.27272300  1
  N  2368  1  0.89314500  0.24828900  0.27291700  1
  N  2381  1  0.89301200  0.19754200  0.27343400  1
  N  2404  1  0.91730830  0.89294200  0.24738700  1
  N  2439  1  0.55731000  0.86745600  0.22189300  1
  N  2444  1  0.50654500  0.86743300  0.22128200  1
  N  2470  1  0.27337900  0.86746000  0.22129700  1
  N  2480  1  0.22262000  0.86746800  0.22186600  1
  N  2504  1  0.89321500  0.53280800  0.22252000  1
  N  2519  1  0.89333300  0.48204000  0.22198100  1
  N  2529  1  0.89308700  0.24898300  0.22217700  1
  N  2536  1  0.89296500  0.19821300  0.22266700  1
  N  2634  1  0.86231100  0.50734600  0.91734210  1
  N  2656  1  0.86306300  0.22322000  0.91688810  1
  N  2696  1  0.53126800  0.83701700  0.91664310  1
  N  2739  1  0.50616300  0.53234900  0.89236600  1
  N  2743  1  0.55692500  0.53177300  0.89236900  1
  N  2752  1  0.50676300  0.48156700  0.89250300  1
  N  2753  1  0.55750700  0.48096900  0.89247100  1
  N  2780  1  0.50700000  0.24726200  0.89253600  1
  N  2781  1  0.55773700  0.24777500  0.89241400  1
  N  2790  1  0.50628300  0.19648200  0.89250400  1
  N  2794  1  0.55705200  0.19696800  0.89239800  1
  N  2821  1  0.53128700  0.89116400  0.91603010  1
  N  2882  1  0.24832700  0.83911200  0.91605010  1
  N  2920  1  0.27307200  0.53366100  0.89269700  1
  N  2930  1  0.27233000  0.48286600  0.89274400  1
  N  2953  1  0.27256900  0.24858400  0.89235300  1
  N  2963  1  0.27318200  0.19780900  0.89219600  1
  N  2987  1  0.24833700  0.89325800  0.91661310  1
  N  3013  1  0.22232400  0.53320300  0.89259700  1
  N  3029  1  0.22161000  0.48237800  0.89264400  1
  N  3039  1  0.22183000  0.24917200  0.89226800  1
  N  3046  1  0.22242000  0.19837000  0.89212800  1
  N  3102  1  0.91644830  0.50759900  0.91663310  1
  N  3129  1  0.91720030  0.22361900  0.91743110  1
