# generated using pymatgen
data_H10C16N5O
_symmetry_space_group_name_H-M   'P 1'
_cell_length_a   36.68270000
_cell_length_b   36.68270000
_cell_length_c   36.68270000
_cell_angle_alpha   90.00000000
_cell_angle_beta   90.00000000
_cell_angle_gamma   90.00000000
_symmetry_Int_Tables_number   1
_chemical_formula_structural   H10C16N5O
_chemical_formula_sum   'H480 C768 N240 O48'
_cell_volume   49360.99235565
_cell_formula_units_Z   48
loop_
 _symmetry_equiv_pos_site_id
 _symmetry_equiv_pos_as_xyz
  1  'x, y, z'
loop_
 _atom_site_type_symbol
 _atom_site_label
 _atom_site_symmetry_multiplicity
 _atom_site_fract_x
 _atom_site_fract_y
 _atom_site_fract_z
 _atom_site_occupancy
  H  7  1  0.05760200  0.04143900  0.99753600  1
  H  16  1  0.95130700  0.00158400  0.03782200  1
  H  17  1  0.02350700  0.88744600  0.09363200  1
  H  18  1  0.98454300  0.90081700  0.10996800  1
  H  19  1  0.98084400  0.09942400  0.88626300  1
  H  20  1  0.02194500  0.11309200  0.89676900  1
  H  21  1  0.95024400  0.00967700  0.97303900  1
  H  22  1  0.05969700  0.97862500  0.01029300  1
  H  27  1  0.93808000  0.96906500  0.10849100  1
  H  28  1  0.93267400  0.03750200  0.90073500  1
  H  29  1  0.06871500  0.11173300  0.96111500  1
  H  30  1  0.09150000  0.93013600  0.03783600  1
  H  37  1  0.45001900  0.96614200  0.49751500  1
  H  46  1  0.55631100  0.00595100  0.53780400  1
  H  47  1  0.48413000  0.12007900  0.59365900  1
  H  48  1  0.52306400  0.10671900  0.61002600  1
  H  49  1  0.52675500  0.90811500  0.38624800  1
  H  50  1  0.48565400  0.89446000  0.39676500  1
  H  51  1  0.55737700  0.99789000  0.47299700  1
  H  52  1  0.44795000  0.02897700  0.51022400  1
  H  57  1  0.56956800  0.03848700  0.60850800  1
  H  58  1  0.57491400  0.97006000  0.40068200  1
  H  59  1  0.43883600  0.89579600  0.46101300  1
  H  60  1  0.41615500  0.07745700  0.53775500  1
  H  67  1  0.22109400  0.80245500  0.24976000  1
  H  76  1  0.25463200  0.69329400  0.28920700  1
  H  77  1  0.36312500  0.76514800  0.35755000  1
  H  78  1  0.34953500  0.72467200  0.37003800  1
  H  79  1  0.14543900  0.72598300  0.14980000  1
  H  80  1  0.13519200  0.76761000  0.16143900  1
  H  81  1  0.24468600  0.69309800  0.22508100  1
  H  82  1  0.28294000  0.80125300  0.26360400  1
  H  87  1  0.28512600  0.67686700  0.36052200  1
  H  88  1  0.21362800  0.68094200  0.15229700  1
  H  89  1  0.15690500  0.82491200  0.21839000  1
  H  90  1  0.34547600  0.82213400  0.29325000  1
  H  97  1  0.28647600  0.20525900  0.74975100  1
  H  106  1  0.25305000  0.31438300  0.78926300  1
  H  107  1  0.14449600  0.24264500  0.85759300  1
  H  108  1  0.15809200  0.28313600  0.87004500  1
  H  109  1  0.36226100  0.28188500  0.65002300  1
  H  110  1  0.37258700  0.24029400  0.66175400  1
  H  111  1  0.26282500  0.31459800  0.72507500  1
  H  112  1  0.22462600  0.20646300  0.76364100  1
  H  117  1  0.22224600  0.33016400  0.86123200  1
  H  118  1  0.29389100  0.32659000  0.65221000  1
  H  119  1  0.34955500  0.18203800  0.71874500  1
  H  120  1  0.16217300  0.18556300  0.79333100  1
  H  127  1  0.78476500  0.19716900  0.76201100  1
  H  136  1  0.75020900  0.30501300  0.72087700  1
  H  137  1  0.64180400  0.23214800  0.65379300  1
  H  138  1  0.65525700  0.27242600  0.64058000  1
  H  139  1  0.85316300  0.27460900  0.86667900  1
  H  140  1  0.86546800  0.23344000  0.85511400  1
  H  141  1  0.75895700  0.30640600  0.78482000  1
  H  142  1  0.72302200  0.19686800  0.74700100  1
  H  147  1  0.72066100  0.31954900  0.64869800  1
  H  148  1  0.78830100  0.32395100  0.85533300  1
  H  149  1  0.84869200  0.17680300  0.79401200  1
  H  150  1  0.66150300  0.17401700  0.71574100  1
  H  157  1  0.72284000  0.81039600  0.26198600  1
  H  166  1  0.75737900  0.70253800  0.22086100  1
  H  167  1  0.86573500  0.77543100  0.15371100  1
  H  168  1  0.85228500  0.73515300  0.14050000  1
  H  169  1  0.65442600  0.73301600  0.36668800  1
  H  170  1  0.64214800  0.77419300  0.35512700  1
  H  171  1  0.74857400  0.70113700  0.28478800  1
  H  172  1  0.78458300  0.81067700  0.24699700  1
  H  177  1  0.78701700  0.68797600  0.14861500  1
  H  178  1  0.71921700  0.68357000  0.35526000  1
  H  179  1  0.65889700  0.83077300  0.29398900  1
  H  180  1  0.84618900  0.83348600  0.21570400  1
  H  187  1  0.56077700  0.53450600  0.49845300  1
  H  196  1  0.45430700  0.49904700  0.54168100  1
  H  197  1  0.52549300  0.38169800  0.59363700  1
  H  198  1  0.48411400  0.39229100  0.60642800  1
  H  199  1  0.48486600  0.60085800  0.39164800  1
  H  200  1  0.52397700  0.61540700  0.40626000  1
  H  201  1  0.45211200  0.50738400  0.47576700  1
  H  202  1  0.56103600  0.47165600  0.51007700  1
  H  207  1  0.45488800  0.45382700  0.62012900  1
  H  208  1  0.42821300  0.52978700  0.41479800  1
  H  209  1  0.58213000  0.59704200  0.46670200  1
  H  210  1  0.58488300  0.40814100  0.53843700  1
  H  217  1  0.94678200  0.47316600  0.99845200  1
  H  226  1  0.05327900  0.50837300  0.04171400  1
  H  227  1  0.98237100  0.62587600  0.09356300  1
  H  228  1  0.02374400  0.61518900  0.10636900  1
  H  229  1  0.02263200  0.40650800  0.89179400  1
  H  230  1  0.98354800  0.39198900  0.90649800  1
  H  231  1  0.05549300  0.50009700  0.97576500  1
  H  232  1  0.94664300  0.53603200  0.01006200  1
  H  237  1  0.05266900  0.55344100  0.12021300  1
  H  238  1  0.07942400  0.47758800  0.91488900  1
  H  239  1  0.92509000  0.41095400  0.96685700  1
  H  240  1  0.92285500  0.59949000  0.03847400  1
  H  250  1  0.91631500  0.92363500  0.15482700  1
  H  251  1  0.87714900  0.88542300  0.18941400  1
  H  254  1  0.84910100  0.85703100  0.00166900  1
  H  255  1  0.88782700  0.89647500  0.03245700  1
  H  267  1  0.59130600  0.08389300  0.65483200  1
  H  268  1  0.63045800  0.12212200  0.68941200  1
  H  271  1  0.65844700  0.15054700  0.50166200  1
  H  272  1  0.61974700  0.11108000  0.53245500  1
  H  284  1  0.33110700  0.65447800  0.40658700  1
  H  285  1  0.37290100  0.61793500  0.43982900  1
  H  288  1  0.40192300  0.59811600  0.25110400  1
  H  289  1  0.35901700  0.63144200  0.28347400  1
  H  301  1  0.17663800  0.35308200  0.90664000  1
  H  302  1  0.13464300  0.38939600  0.93994500  1
  H  305  1  0.10601900  0.40981500  0.75118500  1
  H  306  1  0.14891800  0.37648000  0.78354400  1
  H  318  1  0.59701500  0.92534100  0.35304400  1
  H  319  1  0.63591800  0.88665000  0.31872000  1
  H  322  1  0.65724500  0.85293400  0.50655500  1
  H  323  1  0.62074000  0.89428800  0.47552100  1
  H  335  1  0.91058500  0.08224600  0.85308400  1
  H  336  1  0.87171400  0.12097100  0.81876800  1
  H  339  1  0.85036600  0.15461400  0.00662000  1
  H  340  1  0.88685200  0.11324900  0.97557500  1
  H  352  1  0.15265600  0.67342700  0.10755800  1
  H  353  1  0.11830400  0.63363100  0.07010100  1
  H  356  1  0.15121800  0.55279200  0.24092500  1
  H  357  1  0.16463100  0.61060700  0.21872500  1
  H  369  1  0.35457900  0.33434800  0.60749900  1
  H  370  1  0.38892500  0.37405400  0.56997200  1
  H  373  1  0.35671000  0.45497200  0.74087800  1
  H  374  1  0.34303600  0.39720600  0.71870400  1
  H  386  1  0.08412500  0.10020900  0.85032500  1
  H  387  1  0.12177500  0.14173800  0.81826300  1
  H  390  1  0.18053800  0.12603300  0.00032700  1
  H  391  1  0.13427300  0.09662400  0.96886600  1
  H  403  1  0.42352700  0.90745500  0.35030700  1
  H  404  1  0.38585800  0.86596700  0.31820700  1
  H  407  1  0.32697200  0.88170200  0.50022800  1
  H  408  1  0.37329300  0.91106700  0.46880700  1
  H  420  1  0.67626400  0.34081700  0.60139800  1
  H  421  1  0.63734700  0.37860100  0.56605200  1
  H  424  1  0.60353800  0.40480100  0.75325200  1
  H  425  1  0.64525300  0.36784100  0.72325900  1
  H  437  1  0.83137900  0.66676700  0.10139600  1
  H  438  1  0.87035900  0.62901100  0.06605000  1
  H  441  1  0.90416500  0.60291400  0.25327300  1
  H  442  1  0.86242300  0.63982200  0.22325800  1
  H  454  1  0.41274000  0.09003200  0.65463800  1
  H  455  1  0.37433500  0.12764400  0.69065300  1
  H  458  1  0.35719600  0.17540700  0.50551100  1
  H  459  1  0.39417500  0.13345600  0.53400100  1
  H  471  1  0.09501900  0.91765900  0.15470000  1
  H  472  1  0.13354500  0.88015600  0.19070200  1
  H  475  1  0.15030700  0.83208700  0.00559100  1
  H  476  1  0.11335900  0.87406100  0.03409300  1
  H  488  1  0.83384600  0.34371300  0.90466900  1
  H  489  1  0.87190400  0.38262200  0.93985500  1
  H  492  1  0.90702500  0.40645100  0.75265200  1
  H  493  1  0.86571900  0.36921200  0.78285400  1
  H  505  1  0.67359300  0.66392400  0.40465400  1
  H  506  1  0.63559100  0.62496200  0.43982600  1
  H  509  1  0.60048200  0.60112300  0.25262900  1
  H  510  1  0.64174700  0.63840700  0.28283100  1
  H  519  1  0.05760200  0.04143900  0.32466600  1
  H  528  1  0.95130700  0.00158400  0.36495200  1
  H  529  1  0.02350700  0.88744600  0.42076200  1
  H  530  1  0.98454300  0.90081700  0.43709800  1
  H  531  1  0.98084400  0.09942400  0.21339300  1
  H  532  1  0.02194500  0.11309200  0.22389900  1
  H  533  1  0.95024400  0.00967700  0.30016900  1
  H  534  1  0.05969700  0.97862500  0.33742300  1
  H  539  1  0.93808000  0.96906500  0.43562100  1
  H  540  1  0.93267400  0.03750200  0.22786500  1
  H  541  1  0.06871500  0.11173300  0.28824500  1
  H  542  1  0.09150000  0.93013600  0.36496600  1
  H  549  1  0.45001900  0.96614200  0.82464500  1
  H  558  1  0.55631100  0.00595100  0.86493400  1
  H  559  1  0.48413000  0.12007900  0.92078900  1
  H  560  1  0.52306400  0.10671900  0.93715600  1
  H  561  1  0.52675500  0.90811500  0.71337800  1
  H  562  1  0.48565400  0.89446000  0.72389500  1
  H  563  1  0.55737700  0.99789000  0.80012700  1
  H  564  1  0.44795000  0.02897700  0.83735400  1
  H  569  1  0.56956800  0.03848700  0.93563800  1
  H  570  1  0.57491400  0.97006000  0.72781200  1
  H  571  1  0.43883600  0.89579600  0.78814300  1
  H  572  1  0.41615500  0.07745700  0.86488500  1
  H  579  1  0.22109400  0.80245500  0.57689000  1
  H  588  1  0.25463200  0.69329400  0.61633700  1
  H  589  1  0.36312500  0.76514800  0.68468000  1
  H  590  1  0.34953500  0.72467200  0.69716800  1
  H  591  1  0.14543900  0.72598300  0.47693000  1
  H  592  1  0.13519200  0.76761000  0.48856900  1
  H  593  1  0.24468600  0.69309800  0.55221100  1
  H  594  1  0.28294000  0.80125300  0.59073400  1
  H  599  1  0.28512600  0.67686700  0.68765200  1
  H  600  1  0.21362800  0.68094200  0.47942700  1
  H  601  1  0.15690500  0.82491200  0.54552000  1
  H  602  1  0.34547600  0.82213400  0.62038000  1
  H  609  1  0.28647600  0.20525900  0.07688070  1
  H  618  1  0.25305000  0.31438300  0.11639300  1
  H  619  1  0.14449600  0.24264500  0.18472300  1
  H  620  1  0.15809200  0.28313600  0.19717500  1
  H  621  1  0.36226100  0.28188500  0.97715300  1
  H  622  1  0.37258700  0.24029400  0.98888400  1
  H  623  1  0.26282500  0.31459800  0.05220470  1
  H  624  1  0.22462600  0.20646300  0.09077070  1
  H  629  1  0.22224600  0.33016400  0.18836200  1
  H  630  1  0.29389100  0.32659000  0.97934000  1
  H  631  1  0.34955500  0.18203800  0.04587470  1
  H  632  1  0.16217300  0.18556300  0.12046100  1
  H  639  1  0.78476500  0.19716900  0.08914070  1
  H  648  1  0.75020900  0.30501300  0.04800670  1
  H  649  1  0.64180400  0.23214800  0.98092300  1
  H  650  1  0.65525700  0.27242600  0.96771000  1
  H  651  1  0.85316300  0.27460900  0.19380900  1
  H  652  1  0.86546800  0.23344000  0.18224400  1
  H  653  1  0.75895700  0.30640600  0.11195000  1
  H  654  1  0.72302200  0.19686800  0.07413070  1
  H  659  1  0.72066100  0.31954900  0.97582800  1
  H  660  1  0.78830100  0.32395100  0.18246300  1
  H  661  1  0.84869200  0.17680300  0.12114200  1
  H  662  1  0.66150300  0.17401700  0.04287070  1
  H  669  1  0.72284000  0.81039600  0.58911600  1
  H  678  1  0.75737900  0.70253800  0.54799100  1
  H  679  1  0.86573500  0.77543100  0.48084100  1
  H  680  1  0.85228500  0.73515300  0.46763000  1
  H  681  1  0.65442600  0.73301600  0.69381800  1
  H  682  1  0.64214800  0.77419300  0.68225700  1
  H  683  1  0.74857400  0.70113700  0.61191800  1
  H  684  1  0.78458300  0.81067700  0.57412700  1
  H  689  1  0.78701700  0.68797600  0.47574500  1
  H  690  1  0.71921700  0.68357000  0.68239000  1
  H  691  1  0.65889700  0.83077300  0.62111900  1
  H  692  1  0.84618900  0.83348600  0.54283400  1
  H  699  1  0.56077700  0.53450600  0.82558300  1
  H  708  1  0.45430700  0.49904700  0.86881100  1
  H  709  1  0.52549300  0.38169800  0.92076700  1
  H  710  1  0.48411400  0.39229100  0.93355800  1
  H  711  1  0.48486600  0.60085800  0.71877800  1
  H  712  1  0.52397700  0.61540700  0.73339000  1
  H  713  1  0.45211200  0.50738400  0.80289700  1
  H  714  1  0.56103600  0.47165600  0.83720700  1
  H  719  1  0.45488800  0.45382700  0.94725900  1
  H  720  1  0.42821300  0.52978700  0.74192800  1
  H  721  1  0.58213000  0.59704200  0.79383200  1
  H  722  1  0.58488300  0.40814100  0.86556700  1
  H  729  1  0.94678200  0.47316600  0.32558200  1
  H  738  1  0.05327900  0.50837300  0.36884400  1
  H  739  1  0.98237100  0.62587600  0.42069300  1
  H  740  1  0.02374400  0.61518900  0.43349900  1
  H  741  1  0.02263200  0.40650800  0.21892400  1
  H  742  1  0.98354800  0.39198900  0.23362800  1
  H  743  1  0.05549300  0.50009700  0.30289500  1
  H  744  1  0.94664300  0.53603200  0.33719200  1
  H  749  1  0.05266900  0.55344100  0.44734300  1
  H  750  1  0.07942400  0.47758800  0.24201900  1
  H  751  1  0.92509000  0.41095400  0.29398700  1
  H  752  1  0.92285500  0.59949000  0.36560400  1
  H  762  1  0.91631500  0.92363500  0.48195700  1
  H  763  1  0.87714900  0.88542300  0.51654400  1
  H  766  1  0.84910100  0.85703100  0.32879900  1
  H  767  1  0.88782700  0.89647500  0.35958700  1
  H  779  1  0.59130600  0.08389300  0.98196200  1
  H  780  1  0.63045800  0.12212200  0.01654170  1
  H  783  1  0.65844700  0.15054700  0.82879200  1
  H  784  1  0.61974700  0.11108000  0.85958500  1
  H  796  1  0.33110700  0.65447800  0.73371700  1
  H  797  1  0.37290100  0.61793500  0.76695900  1
  H  800  1  0.40192300  0.59811600  0.57823400  1
  H  801  1  0.35901700  0.63144200  0.61060400  1
  H  813  1  0.17663800  0.35308200  0.23377000  1
  H  814  1  0.13464300  0.38939600  0.26707500  1
  H  817  1  0.10601900  0.40981500  0.07831470  1
  H  818  1  0.14891800  0.37648000  0.11067400  1
  H  830  1  0.59701500  0.92534100  0.68017400  1
  H  831  1  0.63591800  0.88665000  0.64585000  1
  H  834  1  0.65724500  0.85293400  0.83368500  1
  H  835  1  0.62074000  0.89428800  0.80265100  1
  H  847  1  0.91058500  0.08224600  0.18021400  1
  H  848  1  0.87171400  0.12097100  0.14589800  1
  H  851  1  0.85036600  0.15461400  0.33375000  1
  H  852  1  0.88685200  0.11324900  0.30270500  1
  H  864  1  0.15265600  0.67342700  0.43468800  1
  H  865  1  0.11830400  0.63363100  0.39723100  1
  H  868  1  0.15121800  0.55279200  0.56805500  1
  H  869  1  0.16463100  0.61060700  0.54585500  1
  H  881  1  0.35457900  0.33434800  0.93462900  1
  H  882  1  0.38892500  0.37405400  0.89710200  1
  H  885  1  0.35671000  0.45497200  0.06800770  1
  H  886  1  0.34303600  0.39720600  0.04583370  1
  H  898  1  0.08412500  0.10020900  0.17745500  1
  H  899  1  0.12177500  0.14173800  0.14539300  1
  H  902  1  0.18053800  0.12603300  0.32745700  1
  H  903  1  0.13427300  0.09662400  0.29599600  1
  H  915  1  0.42352700  0.90745500  0.67743700  1
  H  916  1  0.38585800  0.86596700  0.64533700  1
  H  919  1  0.32697200  0.88170200  0.82735800  1
  H  920  1  0.37329300  0.91106700  0.79593700  1
  H  932  1  0.67626400  0.34081700  0.92852800  1
  H  933  1  0.63734700  0.37860100  0.89318200  1
  H  936  1  0.60353800  0.40480100  0.08038170  1
  H  937  1  0.64525300  0.36784100  0.05038870  1
  H  949  1  0.83137900  0.66676700  0.42852600  1
  H  950  1  0.87035900  0.62901100  0.39318000  1
  H  953  1  0.90416500  0.60291400  0.58040300  1
  H  954  1  0.86242300  0.63982200  0.55038800  1
  H  966  1  0.41274000  0.09003200  0.98176800  1
  H  967  1  0.37433500  0.12764400  0.01778270  1
  H  970  1  0.35719600  0.17540700  0.83264100  1
  H  971  1  0.39417500  0.13345600  0.86113100  1
  H  983  1  0.09501900  0.91765900  0.48183000  1
  H  984  1  0.13354500  0.88015600  0.51783200  1
  H  987  1  0.15030700  0.83208700  0.33272100  1
  H  988  1  0.11335900  0.87406100  0.36122300  1
  H  1000  1  0.83384600  0.34371300  0.23179900  1
  H  1001  1  0.87190400  0.38262200  0.26698500  1
  H  1004  1  0.90702500  0.40645100  0.07978170  1
  H  1005  1  0.86571900  0.36921200  0.10998400  1
  H  1017  1  0.67359300  0.66392400  0.73178400  1
  H  1018  1  0.63559100  0.62496200  0.76695600  1
  H  1021  1  0.60048200  0.60112300  0.57975900  1
  H  1022  1  0.64174700  0.63840700  0.60996100  1
  H  1031  1  0.05760200  0.04143900  0.65179500  1
  H  1040  1  0.95130700  0.00158400  0.69208100  1
  H  1041  1  0.02350700  0.88744600  0.74789100  1
  H  1042  1  0.98454300  0.90081700  0.76422700  1
  H  1043  1  0.98084400  0.09942400  0.54052200  1
  H  1044  1  0.02194500  0.11309200  0.55102800  1
  H  1045  1  0.95024400  0.00967700  0.62729800  1
  H  1046  1  0.05969700  0.97862500  0.66455200  1
  H  1051  1  0.93808000  0.96906500  0.76275000  1
  H  1052  1  0.93267400  0.03750200  0.55499400  1
  H  1053  1  0.06871500  0.11173300  0.61537400  1
  H  1054  1  0.09150000  0.93013600  0.69209500  1
  H  1061  1  0.45001900  0.96614200  0.15177400  1
  H  1070  1  0.55631100  0.00595100  0.19206300  1
  H  1071  1  0.48413000  0.12007900  0.24791800  1
  H  1072  1  0.52306400  0.10671900  0.26428500  1
  H  1073  1  0.52675500  0.90811500  0.04050740  1
  H  1074  1  0.48565400  0.89446000  0.05102440  1
  H  1075  1  0.55737700  0.99789000  0.12725600  1
  H  1076  1  0.44795000  0.02897700  0.16448300  1
  H  1081  1  0.56956800  0.03848700  0.26276700  1
  H  1082  1  0.57491400  0.97006000  0.05494140  1
  H  1083  1  0.43883600  0.89579600  0.11527200  1
  H  1084  1  0.41615500  0.07745700  0.19201400  1
  H  1091  1  0.22109400  0.80245500  0.90401900  1
  H  1100  1  0.25463200  0.69329400  0.94346600  1
  H  1101  1  0.36312500  0.76514800  0.01180940  1
  H  1102  1  0.34953500  0.72467200  0.02429740  1
  H  1103  1  0.14543900  0.72598300  0.80405900  1
  H  1104  1  0.13519200  0.76761000  0.81569800  1
  H  1105  1  0.24468600  0.69309800  0.87934000  1
  H  1106  1  0.28294000  0.80125300  0.91786300  1
  H  1111  1  0.28512600  0.67686700  0.01478140  1
  H  1112  1  0.21362800  0.68094200  0.80655600  1
  H  1113  1  0.15690500  0.82491200  0.87264900  1
  H  1114  1  0.34547600  0.82213400  0.94750900  1
  H  1121  1  0.28647600  0.20525900  0.40401000  1
  H  1130  1  0.25305000  0.31438300  0.44352200  1
  H  1131  1  0.14449600  0.24264500  0.51185200  1
  H  1132  1  0.15809200  0.28313600  0.52430400  1
  H  1133  1  0.36226100  0.28188500  0.30428200  1
  H  1134  1  0.37258700  0.24029400  0.31601300  1
  H  1135  1  0.26282500  0.31459800  0.37933400  1
  H  1136  1  0.22462600  0.20646300  0.41790000  1
  H  1141  1  0.22224600  0.33016400  0.51549100  1
  H  1142  1  0.29389100  0.32659000  0.30646900  1
  H  1143  1  0.34955500  0.18203800  0.37300400  1
  H  1144  1  0.16217300  0.18556300  0.44759000  1
  H  1151  1  0.78476500  0.19716900  0.41627000  1
  H  1160  1  0.75020900  0.30501300  0.37513600  1
  H  1161  1  0.64180400  0.23214800  0.30805200  1
  H  1162  1  0.65525700  0.27242600  0.29483900  1
  H  1163  1  0.85316300  0.27460900  0.52093800  1
  H  1164  1  0.86546800  0.23344000  0.50937300  1
  H  1165  1  0.75895700  0.30640600  0.43907900  1
  H  1166  1  0.72302200  0.19686800  0.40126000  1
  H  1171  1  0.72066100  0.31954900  0.30295700  1
  H  1172  1  0.78830100  0.32395100  0.50959200  1
  H  1173  1  0.84869200  0.17680300  0.44827100  1
  H  1174  1  0.66150300  0.17401700  0.37000000  1
  H  1181  1  0.72284000  0.81039600  0.91624500  1
  H  1190  1  0.75737900  0.70253800  0.87512000  1
  H  1191  1  0.86573500  0.77543100  0.80797000  1
  H  1192  1  0.85228500  0.73515300  0.79475900  1
  H  1193  1  0.65442600  0.73301600  0.02094740  1
  H  1194  1  0.64214800  0.77419300  0.00938636  1
  H  1195  1  0.74857400  0.70113700  0.93904700  1
  H  1196  1  0.78458300  0.81067700  0.90125600  1
  H  1201  1  0.78701700  0.68797600  0.80287400  1
  H  1202  1  0.71921700  0.68357000  0.00951936  1
  H  1203  1  0.65889700  0.83077300  0.94824800  1
  H  1204  1  0.84618900  0.83348600  0.86996300  1
  H  1211  1  0.56077700  0.53450600  0.15271200  1
  H  1220  1  0.45430700  0.49904700  0.19594000  1
  H  1221  1  0.52549300  0.38169800  0.24789600  1
  H  1222  1  0.48411400  0.39229100  0.26068700  1
  H  1223  1  0.48486600  0.60085800  0.04590740  1
  H  1224  1  0.52397700  0.61540700  0.06051940  1
  H  1225  1  0.45211200  0.50738400  0.13002600  1
  H  1226  1  0.56103600  0.47165600  0.16433600  1
  H  1231  1  0.45488800  0.45382700  0.27438800  1
  H  1232  1  0.42821300  0.52978700  0.06905740  1
  H  1233  1  0.58213000  0.59704200  0.12096100  1
  H  1234  1  0.58488300  0.40814100  0.19269600  1
  H  1241  1  0.94678200  0.47316600  0.65271100  1
  H  1250  1  0.05327900  0.50837300  0.69597300  1
  H  1251  1  0.98237100  0.62587600  0.74782200  1
  H  1252  1  0.02374400  0.61518900  0.76062800  1
  H  1253  1  0.02263200  0.40650800  0.54605300  1
  H  1254  1  0.98354800  0.39198900  0.56075700  1
  H  1255  1  0.05549300  0.50009700  0.63002400  1
  H  1256  1  0.94664300  0.53603200  0.66432100  1
  H  1261  1  0.05266900  0.55344100  0.77447200  1
  H  1262  1  0.07942400  0.47758800  0.56914800  1
  H  1263  1  0.92509000  0.41095400  0.62111600  1
  H  1264  1  0.92285500  0.59949000  0.69273300  1
  H  1274  1  0.91631500  0.92363500  0.80908600  1
  H  1275  1  0.87714900  0.88542300  0.84367300  1
  H  1278  1  0.84910100  0.85703100  0.65592800  1
  H  1279  1  0.88782700  0.89647500  0.68671600  1
  H  1291  1  0.59130600  0.08389300  0.30909100  1
  H  1292  1  0.63045800  0.12212200  0.34367100  1
  H  1295  1  0.65844700  0.15054700  0.15592100  1
  H  1296  1  0.61974700  0.11108000  0.18671400  1
  H  1308  1  0.33110700  0.65447800  0.06084640  1
  H  1309  1  0.37290100  0.61793500  0.09408840  1
  H  1312  1  0.40192300  0.59811600  0.90536300  1
  H  1313  1  0.35901700  0.63144200  0.93773300  1
  H  1325  1  0.17663800  0.35308200  0.56089900  1
  H  1326  1  0.13464300  0.38939600  0.59420400  1
  H  1329  1  0.10601900  0.40981500  0.40544400  1
  H  1330  1  0.14891800  0.37648000  0.43780300  1
  H  1342  1  0.59701500  0.92534100  0.00730336  1
  H  1343  1  0.63591800  0.88665000  0.97297900  1
  H  1346  1  0.65724500  0.85293400  0.16081400  1
  H  1347  1  0.62074000  0.89428800  0.12978000  1
  H  1359  1  0.91058500  0.08224600  0.50734300  1
  H  1360  1  0.87171400  0.12097100  0.47302700  1
  H  1363  1  0.85036600  0.15461400  0.66087900  1
  H  1364  1  0.88685200  0.11324900  0.62983400  1
  H  1376  1  0.15265600  0.67342700  0.76181700  1
  H  1377  1  0.11830400  0.63363100  0.72436000  1
  H  1380  1  0.15121800  0.55279200  0.89518400  1
  H  1381  1  0.16463100  0.61060700  0.87298400  1
  H  1393  1  0.35457900  0.33434800  0.26175800  1
  H  1394  1  0.38892500  0.37405400  0.22423100  1
  H  1397  1  0.35671000  0.45497200  0.39513700  1
  H  1398  1  0.34303600  0.39720600  0.37296300  1
  H  1410  1  0.08412500  0.10020900  0.50458400  1
  H  1411  1  0.12177500  0.14173800  0.47252200  1
  H  1414  1  0.18053800  0.12603300  0.65458600  1
  H  1415  1  0.13427300  0.09662400  0.62312500  1
  H  1427  1  0.42352700  0.90745500  0.00456636  1
  H  1428  1  0.38585800  0.86596700  0.97246600  1
  H  1431  1  0.32697200  0.88170200  0.15448700  1
  H  1432  1  0.37329300  0.91106700  0.12306600  1
  H  1444  1  0.67626400  0.34081700  0.25565700  1
  H  1445  1  0.63734700  0.37860100  0.22031100  1
  H  1448  1  0.60353800  0.40480100  0.40751100  1
  H  1449  1  0.64525300  0.36784100  0.37751800  1
  H  1461  1  0.83137900  0.66676700  0.75565500  1
  H  1462  1  0.87035900  0.62901100  0.72030900  1
  H  1465  1  0.90416500  0.60291400  0.90753200  1
  H  1466  1  0.86242300  0.63982200  0.87751700  1
  H  1478  1  0.41274000  0.09003200  0.30889700  1
  H  1479  1  0.37433500  0.12764400  0.34491200  1
  H  1482  1  0.35719600  0.17540700  0.15977000  1
  H  1483  1  0.39417500  0.13345600  0.18826000  1
  H  1495  1  0.09501900  0.91765900  0.80895900  1
  H  1496  1  0.13354500  0.88015600  0.84496100  1
  H  1499  1  0.15030700  0.83208700  0.65985000  1
  H  1500  1  0.11335900  0.87406100  0.68835200  1
  H  1512  1  0.83384600  0.34371300  0.55892800  1
  H  1513  1  0.87190400  0.38262200  0.59411400  1
  H  1516  1  0.90702500  0.40645100  0.40691100  1
  H  1517  1  0.86571900  0.36921200  0.43711300  1
  H  1529  1  0.67359300  0.66392400  0.05891340  1
  H  1530  1  0.63559100  0.62496200  0.09408540  1
  H  1533  1  0.60048200  0.60112300  0.90688800  1
  H  1534  1  0.64174700  0.63840700  0.93709000  1
  C  1  1  0.00413700  0.02104900  0.99012600  1
  C  2  1  0.03468800  0.04327200  0.98167800  1
  C  3  1  0.03465000  0.06823600  0.95221200  1
  C  4  1  0.00251100  0.07271200  0.93068400  1
  C  5  1  0.97119100  0.05123900  0.93938600  1
  C  6  1  0.97265800  0.02563000  0.96819200  1
  C  9  1  0.00516700  0.99401900  0.01890800  1
  C  10  1  0.03708000  0.97347000  0.02584900  1
  C  11  1  0.03900500  0.94552000  0.05257100  1
  C  12  1  0.00655500  0.93624500  0.07235200  1
  C  13  1  0.97449000  0.95791800  0.06722100  1
  C  14  1  0.97446200  0.98629100  0.04103800  1
  C  23  1  0.94294600  0.95244700  0.08766400  1
  C  24  1  0.93869100  0.05508900  0.92042900  1
  C  25  1  0.06554800  0.08934700  0.94615700  1
  C  26  1  0.07328600  0.92910000  0.05781400  1
  C  31  1  0.50348500  0.98652500  0.49008700  1
  C  32  1  0.47292900  0.96430500  0.48165200  1
  C  33  1  0.47296100  0.93933700  0.45219100  1
  C  34  1  0.50509700  0.93485000  0.43066100  1
  C  35  1  0.53641900  0.95632600  0.43935200  1
  C  36  1  0.53496300  0.98193200  0.46816100  1
  C  39  1  0.50246300  0.01355100  0.51886900  1
  C  40  1  0.47055700  0.03411000  0.52580100  1
  C  41  1  0.46863500  0.06205800  0.55252500  1
  C  42  1  0.50107800  0.07130500  0.57233000  1
  C  43  1  0.53313400  0.04962100  0.56720500  1
  C  44  1  0.53316200  0.02125700  0.54101300  1
  C  53  1  0.56467000  0.05506800  0.58766100  1
  C  54  1  0.56891100  0.95247600  0.42038600  1
  C  55  1  0.44206100  0.91823100  0.44615600  1
  C  56  1  0.43436300  0.07849900  0.55774000  1
  C  61  1  0.23688400  0.74741000  0.24291400  1
  C  62  1  0.21644200  0.77923900  0.23496100  1
  C  63  1  0.18942800  0.78022100  0.20745100  1
  C  64  1  0.18039900  0.74764100  0.18801800  1
  C  65  1  0.20131200  0.71545500  0.19473500  1
  C  66  1  0.22927100  0.71609300  0.22142400  1
  C  69  1  0.26440700  0.74722700  0.27134100  1
  C  70  1  0.28608300  0.77832600  0.27921900  1
  C  71  1  0.31227800  0.77900500  0.30765700  1
  C  72  1  0.31883200  0.74664600  0.32839500  1
  C  73  1  0.29722200  0.71505100  0.32099900  1
  C  74  1  0.27035800  0.71601100  0.29332400  1
  C  83  1  0.30204700  0.68279100  0.34021800  1
  C  84  1  0.19697100  0.68429300  0.17342500  1
  C  85  1  0.17298100  0.81358500  0.19980300  1
  C  86  1  0.33133300  0.81142600  0.31368700  1
  C  91  1  0.27068500  0.26030100  0.74292300  1
  C  92  1  0.29113500  0.22848100  0.73496200  1
  C  93  1  0.31815000  0.22750800  0.70745100  1
  C  94  1  0.32717300  0.26010600  0.68803800  1
  C  95  1  0.30621000  0.29226900  0.69472500  1
  C  96  1  0.27826500  0.29161700  0.72142500  1
  C  99  1  0.24318900  0.26047700  0.77136900  1
  C  100  1  0.22151000  0.22938700  0.77926700  1
  C  101  1  0.19534900  0.22871400  0.80773500  1
  C  102  1  0.18884700  0.26106900  0.82849700  1
  C  103  1  0.21048600  0.29264200  0.82110100  1
  C  104  1  0.23729800  0.29168500  0.79337700  1
  C  113  1  0.20578800  0.32488300  0.84038500  1
  C  114  1  0.31052500  0.32341700  0.67338800  1
  C  115  1  0.33455800  0.19413400  0.69973600  1
  C  116  1  0.17628100  0.19630100  0.81377900  1
  C  121  1  0.76752600  0.25180000  0.76831600  1
  C  122  1  0.78845100  0.22048200  0.77693600  1
  C  123  1  0.81461600  0.22014900  0.80528700  1
  C  124  1  0.82206900  0.25283200  0.82521200  1
  C  125  1  0.80131000  0.28479600  0.81705300  1
  C  126  1  0.77425600  0.28351800  0.78948400  1
  C  129  1  0.74062700  0.25123600  0.73932100  1
  C  130  1  0.71959000  0.21972200  0.73133900  1
  C  131  1  0.69366200  0.21854000  0.70268300  1
  C  132  1  0.68662100  0.25081700  0.68193700  1
  C  133  1  0.70801800  0.28260500  0.68903900  1
  C  134  1  0.73467300  0.28214100  0.71690800  1
  C  143  1  0.70355500  0.31444800  0.66906800  1
  C  144  1  0.80628500  0.31721500  0.83623100  1
  C  145  1  0.83221000  0.18736900  0.81269900  1
  C  146  1  0.67578500  0.18557700  0.69586800  1
  C  151  1  0.74005200  0.75575700  0.26829500  1
  C  152  1  0.71914300  0.78708500  0.27691300  1
  C  153  1  0.69297300  0.78743100  0.30525800  1
  C  154  1  0.68550000  0.75475400  0.32518300  1
  C  155  1  0.70623200  0.72277400  0.31701900  1
  C  156  1  0.73329100  0.72403900  0.28945500  1
  C  159  1  0.76695600  0.75631600  0.23930300  1
  C  160  1  0.78800400  0.78782700  0.23132900  1
  C  161  1  0.81392900  0.78901000  0.20266900  1
  C  162  1  0.82096200  0.75673800  0.18191400  1
  C  163  1  0.79957300  0.72494700  0.18902400  1
  C  164  1  0.77291500  0.72541000  0.21689300  1
  C  173  1  0.80402500  0.69310300  0.16905500  1
  C  174  1  0.70122200  0.69035000  0.33618600  1
  C  175  1  0.67539500  0.82021800  0.31266500  1
  C  176  1  0.83181700  0.82196800  0.19587200  1
  C  181  1  0.50625800  0.51703700  0.49224900  1
  C  182  1  0.53741700  0.53821800  0.48360400  1
  C  183  1  0.53767300  0.56428500  0.45510300  1
  C  184  1  0.50488400  0.57108400  0.43497400  1
  C  185  1  0.47303800  0.54978000  0.44291200  1
  C  186  1  0.47465400  0.52319800  0.47096100  1
  C  189  1  0.50689800  0.48896100  0.52003000  1
  C  190  1  0.53832700  0.46717400  0.52569800  1
  C  191  1  0.53945900  0.43894000  0.55194400  1
  C  192  1  0.50737000  0.43021400  0.57221000  1
  C  193  1  0.47633900  0.45348100  0.56896900  1
  C  194  1  0.47656000  0.48224700  0.54317700  1
  C  203  1  0.44811100  0.45043600  0.59409500  1
  C  204  1  0.44012300  0.55247000  0.42372300  1
  C  205  1  0.57065300  0.58189800  0.44742900  1
  C  206  1  0.57263200  0.42167000  0.55841600  1
  C  211  1  0.00133100  0.49053400  0.99224700  1
  C  212  1  0.97013900  0.46939900  0.98361400  1
  C  213  1  0.96985300  0.44329900  0.95514500  1
  C  214  1  0.00264200  0.43641600  0.93504000  1
  C  215  1  0.03451200  0.45770400  0.94294100  1
  C  216  1  0.03292900  0.48431000  0.97097000  1
  C  219  1  0.00073900  0.51861200  0.02002500  1
  C  220  1  0.96935400  0.54046200  0.02569300  1
  C  221  1  0.96826300  0.56866100  0.05197900  1
  C  222  1  0.00036000  0.57730800  0.07226900  1
  C  223  1  0.03135300  0.55398300  0.06901000  1
  C  224  1  0.03107500  0.52524200  0.04319300  1
  C  233  1  0.05954200  0.55685400  0.09421900  1
  C  234  1  0.06743700  0.45492800  0.92377900  1
  C  235  1  0.93684500  0.42572900  0.94746300  1
  C  236  1  0.93511100  0.58597400  0.05845900  1
  C  241  1  0.89735800  0.90731100  0.10269400  1
  C  242  1  0.87285600  0.88323700  0.08471200  1
  C  243  1  0.84910100  0.86024800  0.10556900  1
  C  244  1  0.85045000  0.86081700  0.14441000  1
  C  245  1  0.87447800  0.88543400  0.16167400  1
  C  246  1  0.89747800  0.90822700  0.14120400  1
  C  247  1  0.82593500  0.83656900  0.08544500  1
  C  249  1  0.84939000  0.85808300  0.02952100  1
  C  258  1  0.61023900  0.10023500  0.60269600  1
  C  259  1  0.63472200  0.12432500  0.58470900  1
  C  260  1  0.65847100  0.14732200  0.60556100  1
  C  261  1  0.65713600  0.14674400  0.64440200  1
  C  262  1  0.63312400  0.12211200  0.66167200  1
  C  263  1  0.61013000  0.09931300  0.64120400  1
  C  264  1  0.68162100  0.17101400  0.58543400  1
  C  266  1  0.65816300  0.14949300  0.52951400  1
  C  275  1  0.34836900  0.63795800  0.35394400  1
  C  276  1  0.37419600  0.61603400  0.33510900  1
  C  277  1  0.39948800  0.59389000  0.35509700  1
  C  278  1  0.39855600  0.59388000  0.39402800  1
  C  279  1  0.37238500  0.61552500  0.41200400  1
  C  280  1  0.34750700  0.63694600  0.39238400  1
  C  281  1  0.42542400  0.57435800  0.33391200  1
  C  283  1  0.40105300  0.59728400  0.27895200  1
  C  292  1  0.15935500  0.36965100  0.85402100  1
  C  293  1  0.13351700  0.39158500  0.83520300  1
  C  294  1  0.10808400  0.41356300  0.85520700  1
  C  295  1  0.10891900  0.41334500  0.89414100  1
  C  296  1  0.13517600  0.39184100  0.91212500  1
  C  297  1  0.16010000  0.37051000  0.89247300  1
  C  298  1  0.08215000  0.43310300  0.83402300  1
  C  300  1  0.10679100  0.41052100  0.77904000  1
  C  309  1  0.61371200  0.90682000  0.40521600  1
  C  310  1  0.63678500  0.88159000  0.42345300  1
  C  311  1  0.66032500  0.85827400  0.40278900  1
  C  312  1  0.65991900  0.85970000  0.36396200  1
  C  313  1  0.63754600  0.88571700  0.34652300  1
  C  314  1  0.61482100  0.90885900  0.36680200  1
  C  315  1  0.68209000  0.83339600  0.42303600  1
  C  317  1  0.65777600  0.85454700  0.47873500  1
  C  326  1  0.89389600  0.10075600  0.90526100  1
  C  327  1  0.87083300  0.12598700  0.92350600  1
  C  328  1  0.84731500  0.14933100  0.90285100  1
  C  329  1  0.84774600  0.14793000  0.86402900  1
  C  330  1  0.87002300  0.12184300  0.84656800  1
  C  331  1  0.89277800  0.09872500  0.86684800  1
  C  332  1  0.82557500  0.17422700  0.92310000  1
  C  334  1  0.84984200  0.15301600  0.97879700  1
  C  343  1  0.15501600  0.63880300  0.15374800  1
  C  344  1  0.14440500  0.60398500  0.16703400  1
  C  345  1  0.12566000  0.57885300  0.14356700  1
  C  346  1  0.11445700  0.59006000  0.10796000  1
  C  347  1  0.12641800  0.62431100  0.09517100  1
  C  348  1  0.14659000  0.64803300  0.11737900  1
  C  349  1  0.11967400  0.54342300  0.15786200  1
  C  351  1  0.14434300  0.56018500  0.21494400  1
  C  360  1  0.35238400  0.36898300  0.65369800  1
  C  361  1  0.36312200  0.40377400  0.66695200  1
  C  362  1  0.38188300  0.42884500  0.64343700  1
  C  363  1  0.39294000  0.41765200  0.60778000  1
  C  364  1  0.38088300  0.38340700  0.59505200  1
  C  365  1  0.36072900  0.35972300  0.61731800  1
  C  366  1  0.38803300  0.46425200  0.65772200  1
  C  368  1  0.36347700  0.44756500  0.71487100  1
  C  377  1  0.11053200  0.10525900  0.90148000  1
  C  378  1  0.14025600  0.12241100  0.91967100  1
  C  379  1  0.16274400  0.14795300  0.90032700  1
  C  380  1  0.15633100  0.15529900  0.86268200  1
  C  381  1  0.12786600  0.13643100  0.84493000  1
  C  382  1  0.10554200  0.11188000  0.86395500  1
  C  383  1  0.19079000  0.16520600  0.92073900  1
  C  385  1  0.17527700  0.13194700  0.97360100  1
  C  394  1  0.39707800  0.90241200  0.40144000  1
  C  395  1  0.36732300  0.88528700  0.41960700  1
  C  396  1  0.34482500  0.85977300  0.40024100  1
  C  397  1  0.35125600  0.85243200  0.36259600  1
  C  398  1  0.37975100  0.87127700  0.34486800  1
  C  399  1  0.40208600  0.89580100  0.36391600  1
  C  400  1  0.31674600  0.84254500  0.42062900  1
  C  402  1  0.33225200  0.87578100  0.47350400  1
  C  411  1  0.65789300  0.35897600  0.65316100  1
  C  412  1  0.63249700  0.38237100  0.67075800  1
  C  413  1  0.60902000  0.40517200  0.64946200  1
  C  414  1  0.61060400  0.40386900  0.61067000  1
  C  415  1  0.63659500  0.38107600  0.59380300  1
  C  416  1  0.65984000  0.35900900  0.61470400  1
  C  417  1  0.58391300  0.42724800  0.66907900  1
  C  419  1  0.60519800  0.40461600  0.72542900  1
  C  428  1  0.84979000  0.64866000  0.15315600  1
  C  429  1  0.87520800  0.62529800  0.17076500  1
  C  430  1  0.89871800  0.60251900  0.14948000  1
  C  431  1  0.89712900  0.60380500  0.11068400  1
  C  432  1  0.87112200  0.62656500  0.09380400  1
  C  433  1  0.84789000  0.64864900  0.11469800  1
  C  434  1  0.92384200  0.58047000  0.16911000  1
  C  436  1  0.90251300  0.60309100  0.22544900  1
  C  445  1  0.39743800  0.11193100  0.60336600  1
  C  446  1  0.37493200  0.13865600  0.58619700  1
  C  447  1  0.35067800  0.16029500  0.60799000  1
  C  448  1  0.35061500  0.15673100  0.64667600  1
  C  449  1  0.37299600  0.13005500  0.66291500  1
  C  450  1  0.39574300  0.10795500  0.64156700  1
  C  451  1  0.32871900  0.18622600  0.58930000  1
  C  453  1  0.35539100  0.17088300  0.53296300  1
  C  462  1  0.11020400  0.89566200  0.10343400  1
  C  463  1  0.13267800  0.86890800  0.08626900  1
  C  464  1  0.15698400  0.84731000  0.10804300  1
  C  465  1  0.15709800  0.85092200  0.14672000  1
  C  466  1  0.13481400  0.87768400  0.16296800  1
  C  467  1  0.11197400  0.89969700  0.14162700  1
  C  468  1  0.17890200  0.82134900  0.08935100  1
  C  470  1  0.15215000  0.83664000  0.03303600  1
  C  479  1  0.85243500  0.36129300  0.85284400  1
  C  480  1  0.87766700  0.38485500  0.83522000  1
  C  481  1  0.90052800  0.40845400  0.85639600  1
  C  482  1  0.89870700  0.40779500  0.89522300  1
  C  483  1  0.87289700  0.38473500  0.91208400  1
  C  484  1  0.85016700  0.36194500  0.89128400  1
  C  485  1  0.92538700  0.43067500  0.83662100  1
  C  487  1  0.90509400  0.40669000  0.78045800  1
  C  496  1  0.65503400  0.64632900  0.35281800  1
  C  497  1  0.62982300  0.62274100  0.33519600  1
  C  498  1  0.60699200  0.59911100  0.35637500  1
  C  499  1  0.60881600  0.59974100  0.39520800  1
  C  500  1  0.63457700  0.62287100  0.41205500  1
  C  501  1  0.65726400  0.64570200  0.39125800  1
  C  502  1  0.58216300  0.57686100  0.33659700  1
  C  504  1  0.60242000  0.60087700  0.28043500  1
  C  513  1  0.00413700  0.02104900  0.31725600  1
  C  514  1  0.03468800  0.04327200  0.30880800  1
  C  515  1  0.03465000  0.06823600  0.27934200  1
  C  516  1  0.00251100  0.07271200  0.25781400  1
  C  517  1  0.97119100  0.05123900  0.26651600  1
  C  518  1  0.97265800  0.02563000  0.29532200  1
  C  521  1  0.00516700  0.99401900  0.34603800  1
  C  522  1  0.03708000  0.97347000  0.35297900  1
  C  523  1  0.03900500  0.94552000  0.37970100  1
  C  524  1  0.00655500  0.93624500  0.39948200  1
  C  525  1  0.97449000  0.95791800  0.39435100  1
  C  526  1  0.97446200  0.98629100  0.36816800  1
  C  535  1  0.94294600  0.95244700  0.41479400  1
  C  536  1  0.93869100  0.05508900  0.24755900  1
  C  537  1  0.06554800  0.08934700  0.27328700  1
  C  538  1  0.07328600  0.92910000  0.38494400  1
  C  543  1  0.50348500  0.98652500  0.81721700  1
  C  544  1  0.47292900  0.96430500  0.80878200  1
  C  545  1  0.47296100  0.93933700  0.77932100  1
  C  546  1  0.50509700  0.93485000  0.75779100  1
  C  547  1  0.53641900  0.95632600  0.76648200  1
  C  548  1  0.53496300  0.98193200  0.79529100  1
  C  551  1  0.50246300  0.01355100  0.84599900  1
  C  552  1  0.47055700  0.03411000  0.85293100  1
  C  553  1  0.46863500  0.06205800  0.87965500  1
  C  554  1  0.50107800  0.07130500  0.89946000  1
  C  555  1  0.53313400  0.04962100  0.89433500  1
  C  556  1  0.53316200  0.02125700  0.86814300  1
  C  565  1  0.56467000  0.05506800  0.91479100  1
  C  566  1  0.56891100  0.95247600  0.74751600  1
  C  567  1  0.44206100  0.91823100  0.77328600  1
  C  568  1  0.43436300  0.07849900  0.88487000  1
  C  573  1  0.23688400  0.74741000  0.57004400  1
  C  574  1  0.21644200  0.77923900  0.56209100  1
  C  575  1  0.18942800  0.78022100  0.53458100  1
  C  576  1  0.18039900  0.74764100  0.51514800  1
  C  577  1  0.20131200  0.71545500  0.52186500  1
  C  578  1  0.22927100  0.71609300  0.54855400  1
  C  581  1  0.26440700  0.74722700  0.59847100  1
  C  582  1  0.28608300  0.77832600  0.60634900  1
  C  583  1  0.31227800  0.77900500  0.63478700  1
  C  584  1  0.31883200  0.74664600  0.65552500  1
  C  585  1  0.29722200  0.71505100  0.64812900  1
  C  586  1  0.27035800  0.71601100  0.62045400  1
  C  595  1  0.30204700  0.68279100  0.66734800  1
  C  596  1  0.19697100  0.68429300  0.50055500  1
  C  597  1  0.17298100  0.81358500  0.52693300  1
  C  598  1  0.33133300  0.81142600  0.64081700  1
  C  603  1  0.27068500  0.26030100  0.07005270  1
  C  604  1  0.29113500  0.22848100  0.06209170  1
  C  605  1  0.31815000  0.22750800  0.03458070  1
  C  606  1  0.32717300  0.26010600  0.01516770  1
  C  607  1  0.30621000  0.29226900  0.02185470  1
  C  608  1  0.27826500  0.29161700  0.04855470  1
  C  611  1  0.24318900  0.26047700  0.09849870  1
  C  612  1  0.22151000  0.22938700  0.10639700  1
  C  613  1  0.19534900  0.22871400  0.13486500  1
  C  614  1  0.18884700  0.26106900  0.15562700  1
  C  615  1  0.21048600  0.29264200  0.14823100  1
  C  616  1  0.23729800  0.29168500  0.12050700  1
  C  625  1  0.20578800  0.32488300  0.16751500  1
  C  626  1  0.31052500  0.32341700  0.00051768  1
  C  627  1  0.33455800  0.19413400  0.02686570  1
  C  628  1  0.17628100  0.19630100  0.14090900  1
  C  633  1  0.76752600  0.25180000  0.09544570  1
  C  634  1  0.78845100  0.22048200  0.10406600  1
  C  635  1  0.81461600  0.22014900  0.13241700  1
  C  636  1  0.82206900  0.25283200  0.15234200  1
  C  637  1  0.80131000  0.28479600  0.14418300  1
  C  638  1  0.77425600  0.28351800  0.11661400  1
  C  641  1  0.74062700  0.25123600  0.06645070  1
  C  642  1  0.71959000  0.21972200  0.05846870  1
  C  643  1  0.69366200  0.21854000  0.02981270  1
  C  644  1  0.68662100  0.25081700  0.00906668  1
  C  645  1  0.70801800  0.28260500  0.01616870  1
  C  646  1  0.73467300  0.28214100  0.04403770  1
  C  655  1  0.70355500  0.31444800  0.99619800  1
  C  656  1  0.80628500  0.31721500  0.16336100  1
  C  657  1  0.83221000  0.18736900  0.13982900  1
  C  658  1  0.67578500  0.18557700  0.02299770  1
  C  663  1  0.74005200  0.75575700  0.59542500  1
  C  664  1  0.71914300  0.78708500  0.60404300  1
  C  665  1  0.69297300  0.78743100  0.63238800  1
  C  666  1  0.68550000  0.75475400  0.65231300  1
  C  667  1  0.70623200  0.72277400  0.64414900  1
  C  668  1  0.73329100  0.72403900  0.61658500  1
  C  671  1  0.76695600  0.75631600  0.56643300  1
  C  672  1  0.78800400  0.78782700  0.55845900  1
  C  673  1  0.81392900  0.78901000  0.52979900  1
  C  674  1  0.82096200  0.75673800  0.50904400  1
  C  675  1  0.79957300  0.72494700  0.51615400  1
  C  676  1  0.77291500  0.72541000  0.54402300  1
  C  685  1  0.80402500  0.69310300  0.49618500  1
  C  686  1  0.70122200  0.69035000  0.66331600  1
  C  687  1  0.67539500  0.82021800  0.63979500  1
  C  688  1  0.83181700  0.82196800  0.52300200  1
  C  693  1  0.50625800  0.51703700  0.81937900  1
  C  694  1  0.53741700  0.53821800  0.81073400  1
  C  695  1  0.53767300  0.56428500  0.78223300  1
  C  696  1  0.50488400  0.57108400  0.76210400  1
  C  697  1  0.47303800  0.54978000  0.77004200  1
  C  698  1  0.47465400  0.52319800  0.79809100  1
  C  701  1  0.50689800  0.48896100  0.84716000  1
  C  702  1  0.53832700  0.46717400  0.85282800  1
  C  703  1  0.53945900  0.43894000  0.87907400  1
  C  704  1  0.50737000  0.43021400  0.89934000  1
  C  705  1  0.47633900  0.45348100  0.89609900  1
  C  706  1  0.47656000  0.48224700  0.87030700  1
  C  715  1  0.44811100  0.45043600  0.92122500  1
  C  716  1  0.44012300  0.55247000  0.75085300  1
  C  717  1  0.57065300  0.58189800  0.77455900  1
  C  718  1  0.57263200  0.42167000  0.88554600  1
  C  723  1  0.00133100  0.49053400  0.31937700  1
  C  724  1  0.97013900  0.46939900  0.31074400  1
  C  725  1  0.96985300  0.44329900  0.28227500  1
  C  726  1  0.00264200  0.43641600  0.26217000  1
  C  727  1  0.03451200  0.45770400  0.27007100  1
  C  728  1  0.03292900  0.48431000  0.29810000  1
  C  731  1  0.00073900  0.51861200  0.34715500  1
  C  732  1  0.96935400  0.54046200  0.35282300  1
  C  733  1  0.96826300  0.56866100  0.37910900  1
  C  734  1  0.00036000  0.57730800  0.39939900  1
  C  735  1  0.03135300  0.55398300  0.39614000  1
  C  736  1  0.03107500  0.52524200  0.37032300  1
  C  745  1  0.05954200  0.55685400  0.42134900  1
  C  746  1  0.06743700  0.45492800  0.25090900  1
  C  747  1  0.93684500  0.42572900  0.27459300  1
  C  748  1  0.93511100  0.58597400  0.38558900  1
  C  753  1  0.89735800  0.90731100  0.42982400  1
  C  754  1  0.87285600  0.88323700  0.41184200  1
  C  755  1  0.84910100  0.86024800  0.43269900  1
  C  756  1  0.85045000  0.86081700  0.47154000  1
  C  757  1  0.87447800  0.88543400  0.48880400  1
  C  758  1  0.89747800  0.90822700  0.46833400  1
  C  759  1  0.82593500  0.83656900  0.41257500  1
  C  761  1  0.84939000  0.85808300  0.35665100  1
  C  770  1  0.61023900  0.10023500  0.92982600  1
  C  771  1  0.63472200  0.12432500  0.91183900  1
  C  772  1  0.65847100  0.14732200  0.93269100  1
  C  773  1  0.65713600  0.14674400  0.97153200  1
  C  774  1  0.63312400  0.12211200  0.98880200  1
  C  775  1  0.61013000  0.09931300  0.96833400  1
  C  776  1  0.68162100  0.17101400  0.91256400  1
  C  778  1  0.65816300  0.14949300  0.85664400  1
  C  787  1  0.34836900  0.63795800  0.68107400  1
  C  788  1  0.37419600  0.61603400  0.66223900  1
  C  789  1  0.39948800  0.59389000  0.68222700  1
  C  790  1  0.39855600  0.59388000  0.72115800  1
  C  791  1  0.37238500  0.61552500  0.73913400  1
  C  792  1  0.34750700  0.63694600  0.71951400  1
  C  793  1  0.42542400  0.57435800  0.66104200  1
  C  795  1  0.40105300  0.59728400  0.60608200  1
  C  804  1  0.15935500  0.36965100  0.18115100  1
  C  805  1  0.13351700  0.39158500  0.16233300  1
  C  806  1  0.10808400  0.41356300  0.18233700  1
  C  807  1  0.10891900  0.41334500  0.22127100  1
  C  808  1  0.13517600  0.39184100  0.23925500  1
  C  809  1  0.16010000  0.37051000  0.21960300  1
  C  810  1  0.08215000  0.43310300  0.16115300  1
  C  812  1  0.10679100  0.41052100  0.10617000  1
  C  821  1  0.61371200  0.90682000  0.73234600  1
  C  822  1  0.63678500  0.88159000  0.75058300  1
  C  823  1  0.66032500  0.85827400  0.72991900  1
  C  824  1  0.65991900  0.85970000  0.69109200  1
  C  825  1  0.63754600  0.88571700  0.67365300  1
  C  826  1  0.61482100  0.90885900  0.69393200  1
  C  827  1  0.68209000  0.83339600  0.75016600  1
  C  829  1  0.65777600  0.85454700  0.80586500  1
  C  838  1  0.89389600  0.10075600  0.23239100  1
  C  839  1  0.87083300  0.12598700  0.25063600  1
  C  840  1  0.84731500  0.14933100  0.22998100  1
  C  841  1  0.84774600  0.14793000  0.19115900  1
  C  842  1  0.87002300  0.12184300  0.17369800  1
  C  843  1  0.89277800  0.09872500  0.19397800  1
  C  844  1  0.82557500  0.17422700  0.25023000  1
  C  846  1  0.84984200  0.15301600  0.30592700  1
  C  855  1  0.15501600  0.63880300  0.48087800  1
  C  856  1  0.14440500  0.60398500  0.49416400  1
  C  857  1  0.12566000  0.57885300  0.47069700  1
  C  858  1  0.11445700  0.59006000  0.43509000  1
  C  859  1  0.12641800  0.62431100  0.42230100  1
  C  860  1  0.14659000  0.64803300  0.44450900  1
  C  861  1  0.11967400  0.54342300  0.48499200  1
  C  863  1  0.14434300  0.56018500  0.54207400  1
  C  872  1  0.35238400  0.36898300  0.98082800  1
  C  873  1  0.36312200  0.40377400  0.99408200  1
  C  874  1  0.38188300  0.42884500  0.97056700  1
  C  875  1  0.39294000  0.41765200  0.93491000  1
  C  876  1  0.38088300  0.38340700  0.92218200  1
  C  877  1  0.36072900  0.35972300  0.94444800  1
  C  878  1  0.38803300  0.46425200  0.98485200  1
  C  880  1  0.36347700  0.44756500  0.04200070  1
  C  889  1  0.11053200  0.10525900  0.22861000  1
  C  890  1  0.14025600  0.12241100  0.24680100  1
  C  891  1  0.16274400  0.14795300  0.22745700  1
  C  892  1  0.15633100  0.15529900  0.18981200  1
  C  893  1  0.12786600  0.13643100  0.17206000  1
  C  894  1  0.10554200  0.11188000  0.19108500  1
  C  895  1  0.19079000  0.16520600  0.24786900  1
  C  897  1  0.17527700  0.13194700  0.30073100  1
  C  906  1  0.39707800  0.90241200  0.72857000  1
  C  907  1  0.36732300  0.88528700  0.74673700  1
  C  908  1  0.34482500  0.85977300  0.72737100  1
  C  909  1  0.35125600  0.85243200  0.68972600  1
  C  910  1  0.37975100  0.87127700  0.67199800  1
  C  911  1  0.40208600  0.89580100  0.69104600  1
  C  912  1  0.31674600  0.84254500  0.74775900  1
  C  914  1  0.33225200  0.87578100  0.80063400  1
  C  923  1  0.65789300  0.35897600  0.98029100  1
  C  924  1  0.63249700  0.38237100  0.99788800  1
  C  925  1  0.60902000  0.40517200  0.97659200  1
  C  926  1  0.61060400  0.40386900  0.93780000  1
  C  927  1  0.63659500  0.38107600  0.92093300  1
  C  928  1  0.65984000  0.35900900  0.94183400  1
  C  929  1  0.58391300  0.42724800  0.99620900  1
  C  931  1  0.60519800  0.40461600  0.05255870  1
  C  940  1  0.84979000  0.64866000  0.48028600  1
  C  941  1  0.87520800  0.62529800  0.49789500  1
  C  942  1  0.89871800  0.60251900  0.47661000  1
  C  943  1  0.89712900  0.60380500  0.43781400  1
  C  944  1  0.87112200  0.62656500  0.42093400  1
  C  945  1  0.84789000  0.64864900  0.44182800  1
  C  946  1  0.92384200  0.58047000  0.49624000  1
  C  948  1  0.90251300  0.60309100  0.55257900  1
  C  957  1  0.39743800  0.11193100  0.93049600  1
  C  958  1  0.37493200  0.13865600  0.91332700  1
  C  959  1  0.35067800  0.16029500  0.93512000  1
  C  960  1  0.35061500  0.15673100  0.97380600  1
  C  961  1  0.37299600  0.13005500  0.99004500  1
  C  962  1  0.39574300  0.10795500  0.96869700  1
  C  963  1  0.32871900  0.18622600  0.91643000  1
  C  965  1  0.35539100  0.17088300  0.86009300  1
  C  974  1  0.11020400  0.89566200  0.43056400  1
  C  975  1  0.13267800  0.86890800  0.41339900  1
  C  976  1  0.15698400  0.84731000  0.43517300  1
  C  977  1  0.15709800  0.85092200  0.47385000  1
  C  978  1  0.13481400  0.87768400  0.49009800  1
  C  979  1  0.11197400  0.89969700  0.46875700  1
  C  980  1  0.17890200  0.82134900  0.41648100  1
  C  982  1  0.15215000  0.83664000  0.36016600  1
  C  991  1  0.85243500  0.36129300  0.17997400  1
  C  992  1  0.87766700  0.38485500  0.16235000  1
  C  993  1  0.90052800  0.40845400  0.18352600  1
  C  994  1  0.89870700  0.40779500  0.22235300  1
  C  995  1  0.87289700  0.38473500  0.23921400  1
  C  996  1  0.85016700  0.36194500  0.21841400  1
  C  997  1  0.92538700  0.43067500  0.16375100  1
  C  999  1  0.90509400  0.40669000  0.10758800  1
  C  1008  1  0.65503400  0.64632900  0.67994800  1
  C  1009  1  0.62982300  0.62274100  0.66232600  1
  C  1010  1  0.60699200  0.59911100  0.68350500  1
  C  1011  1  0.60881600  0.59974100  0.72233800  1
  C  1012  1  0.63457700  0.62287100  0.73918500  1
  C  1013  1  0.65726400  0.64570200  0.71838800  1
  C  1014  1  0.58216300  0.57686100  0.66372700  1
  C  1016  1  0.60242000  0.60087700  0.60756500  1
  C  1025  1  0.00413700  0.02104900  0.64438500  1
  C  1026  1  0.03468800  0.04327200  0.63593700  1
  C  1027  1  0.03465000  0.06823600  0.60647100  1
  C  1028  1  0.00251100  0.07271200  0.58494300  1
  C  1029  1  0.97119100  0.05123900  0.59364500  1
  C  1030  1  0.97265800  0.02563000  0.62245100  1
  C  1033  1  0.00516700  0.99401900  0.67316700  1
  C  1034  1  0.03708000  0.97347000  0.68010800  1
  C  1035  1  0.03900500  0.94552000  0.70683000  1
  C  1036  1  0.00655500  0.93624500  0.72661100  1
  C  1037  1  0.97449000  0.95791800  0.72148000  1
  C  1038  1  0.97446200  0.98629100  0.69529700  1
  C  1047  1  0.94294600  0.95244700  0.74192300  1
  C  1048  1  0.93869100  0.05508900  0.57468800  1
  C  1049  1  0.06554800  0.08934700  0.60041600  1
  C  1050  1  0.07328600  0.92910000  0.71207300  1
  C  1055  1  0.50348500  0.98652500  0.14434600  1
  C  1056  1  0.47292900  0.96430500  0.13591100  1
  C  1057  1  0.47296100  0.93933700  0.10645000  1
  C  1058  1  0.50509700  0.93485000  0.08492040  1
  C  1059  1  0.53641900  0.95632600  0.09361140  1
  C  1060  1  0.53496300  0.98193200  0.12242000  1
  C  1063  1  0.50246300  0.01355100  0.17312800  1
  C  1064  1  0.47055700  0.03411000  0.18006000  1
  C  1065  1  0.46863500  0.06205800  0.20678400  1
  C  1066  1  0.50107800  0.07130500  0.22658900  1
  C  1067  1  0.53313400  0.04962100  0.22146400  1
  C  1068  1  0.53316200  0.02125700  0.19527200  1
  C  1077  1  0.56467000  0.05506800  0.24192000  1
  C  1078  1  0.56891100  0.95247600  0.07464540  1
  C  1079  1  0.44206100  0.91823100  0.10041500  1
  C  1080  1  0.43436300  0.07849900  0.21199900  1
  C  1085  1  0.23688400  0.74741000  0.89717300  1
  C  1086  1  0.21644200  0.77923900  0.88922000  1
  C  1087  1  0.18942800  0.78022100  0.86171000  1
  C  1088  1  0.18039900  0.74764100  0.84227700  1
  C  1089  1  0.20131200  0.71545500  0.84899400  1
  C  1090  1  0.22927100  0.71609300  0.87568300  1
  C  1093  1  0.26440700  0.74722700  0.92560000  1
  C  1094  1  0.28608300  0.77832600  0.93347800  1
  C  1095  1  0.31227800  0.77900500  0.96191600  1
  C  1096  1  0.31883200  0.74664600  0.98265400  1
  C  1097  1  0.29722200  0.71505100  0.97525800  1
  C  1098  1  0.27035800  0.71601100  0.94758300  1
  C  1107  1  0.30204700  0.68279100  0.99447700  1
  C  1108  1  0.19697100  0.68429300  0.82768400  1
  C  1109  1  0.17298100  0.81358500  0.85406200  1
  C  1110  1  0.33133300  0.81142600  0.96794600  1
  C  1115  1  0.27068500  0.26030100  0.39718200  1
  C  1116  1  0.29113500  0.22848100  0.38922100  1
  C  1117  1  0.31815000  0.22750800  0.36171000  1
  C  1118  1  0.32717300  0.26010600  0.34229700  1
  C  1119  1  0.30621000  0.29226900  0.34898400  1
  C  1120  1  0.27826500  0.29161700  0.37568400  1
  C  1123  1  0.24318900  0.26047700  0.42562800  1
  C  1124  1  0.22151000  0.22938700  0.43352600  1
  C  1125  1  0.19534900  0.22871400  0.46199400  1
  C  1126  1  0.18884700  0.26106900  0.48275600  1
  C  1127  1  0.21048600  0.29264200  0.47536000  1
  C  1128  1  0.23729800  0.29168500  0.44763600  1
  C  1137  1  0.20578800  0.32488300  0.49464400  1
  C  1138  1  0.31052500  0.32341700  0.32764700  1
  C  1139  1  0.33455800  0.19413400  0.35399500  1
  C  1140  1  0.17628100  0.19630100  0.46803800  1
  C  1145  1  0.76752600  0.25180000  0.42257500  1
  C  1146  1  0.78845100  0.22048200  0.43119500  1
  C  1147  1  0.81461600  0.22014900  0.45954600  1
  C  1148  1  0.82206900  0.25283200  0.47947100  1
  C  1149  1  0.80131000  0.28479600  0.47131200  1
  C  1150  1  0.77425600  0.28351800  0.44374300  1
  C  1153  1  0.74062700  0.25123600  0.39358000  1
  C  1154  1  0.71959000  0.21972200  0.38559800  1
  C  1155  1  0.69366200  0.21854000  0.35694200  1
  C  1156  1  0.68662100  0.25081700  0.33619600  1
  C  1157  1  0.70801800  0.28260500  0.34329800  1
  C  1158  1  0.73467300  0.28214100  0.37116700  1
  C  1167  1  0.70355500  0.31444800  0.32332700  1
  C  1168  1  0.80628500  0.31721500  0.49049000  1
  C  1169  1  0.83221000  0.18736900  0.46695800  1
  C  1170  1  0.67578500  0.18557700  0.35012700  1
  C  1175  1  0.74005200  0.75575700  0.92255400  1
  C  1176  1  0.71914300  0.78708500  0.93117200  1
  C  1177  1  0.69297300  0.78743100  0.95951700  1
  C  1178  1  0.68550000  0.75475400  0.97944200  1
  C  1179  1  0.70623200  0.72277400  0.97127800  1
  C  1180  1  0.73329100  0.72403900  0.94371400  1
  C  1183  1  0.76695600  0.75631600  0.89356200  1
  C  1184  1  0.78800400  0.78782700  0.88558800  1
  C  1185  1  0.81392900  0.78901000  0.85692800  1
  C  1186  1  0.82096200  0.75673800  0.83617300  1
  C  1187  1  0.79957300  0.72494700  0.84328300  1
  C  1188  1  0.77291500  0.72541000  0.87115200  1
  C  1197  1  0.80402500  0.69310300  0.82331400  1
  C  1198  1  0.70122200  0.69035000  0.99044500  1
  C  1199  1  0.67539500  0.82021800  0.96692400  1
  C  1200  1  0.83181700  0.82196800  0.85013100  1
  C  1205  1  0.50625800  0.51703700  0.14650800  1
  C  1206  1  0.53741700  0.53821800  0.13786300  1
  C  1207  1  0.53767300  0.56428500  0.10936200  1
  C  1208  1  0.50488400  0.57108400  0.08923340  1
  C  1209  1  0.47303800  0.54978000  0.09717140  1
  C  1210  1  0.47465400  0.52319800  0.12522000  1
  C  1213  1  0.50689800  0.48896100  0.17428900  1
  C  1214  1  0.53832700  0.46717400  0.17995700  1
  C  1215  1  0.53945900  0.43894000  0.20620300  1
  C  1216  1  0.50737000  0.43021400  0.22646900  1
  C  1217  1  0.47633900  0.45348100  0.22322800  1
  C  1218  1  0.47656000  0.48224700  0.19743600  1
  C  1227  1  0.44811100  0.45043600  0.24835400  1
  C  1228  1  0.44012300  0.55247000  0.07798240  1
  C  1229  1  0.57065300  0.58189800  0.10168800  1
  C  1230  1  0.57263200  0.42167000  0.21267500  1
  C  1235  1  0.00133100  0.49053400  0.64650600  1
  C  1236  1  0.97013900  0.46939900  0.63787300  1
  C  1237  1  0.96985300  0.44329900  0.60940400  1
  C  1238  1  0.00264200  0.43641600  0.58929900  1
  C  1239  1  0.03451200  0.45770400  0.59720000  1
  C  1240  1  0.03292900  0.48431000  0.62522900  1
  C  1243  1  0.00073900  0.51861200  0.67428400  1
  C  1244  1  0.96935400  0.54046200  0.67995200  1
  C  1245  1  0.96826300  0.56866100  0.70623800  1
  C  1246  1  0.00036000  0.57730800  0.72652800  1
  C  1247  1  0.03135300  0.55398300  0.72326900  1
  C  1248  1  0.03107500  0.52524200  0.69745200  1
  C  1257  1  0.05954200  0.55685400  0.74847800  1
  C  1258  1  0.06743700  0.45492800  0.57803800  1
  C  1259  1  0.93684500  0.42572900  0.60172200  1
  C  1260  1  0.93511100  0.58597400  0.71271800  1
  C  1265  1  0.89735800  0.90731100  0.75695300  1
  C  1266  1  0.87285600  0.88323700  0.73897100  1
  C  1267  1  0.84910100  0.86024800  0.75982800  1
  C  1268  1  0.85045000  0.86081700  0.79866900  1
  C  1269  1  0.87447800  0.88543400  0.81593300  1
  C  1270  1  0.89747800  0.90822700  0.79546300  1
  C  1271  1  0.82593500  0.83656900  0.73970400  1
  C  1273  1  0.84939000  0.85808300  0.68378000  1
  C  1282  1  0.61023900  0.10023500  0.25695500  1
  C  1283  1  0.63472200  0.12432500  0.23896800  1
  C  1284  1  0.65847100  0.14732200  0.25982000  1
  C  1285  1  0.65713600  0.14674400  0.29866100  1
  C  1286  1  0.63312400  0.12211200  0.31593100  1
  C  1287  1  0.61013000  0.09931300  0.29546300  1
  C  1288  1  0.68162100  0.17101400  0.23969300  1
  C  1290  1  0.65816300  0.14949300  0.18377300  1
  C  1299  1  0.34836900  0.63795800  0.00820336  1
  C  1300  1  0.37419600  0.61603400  0.98936800  1
  C  1301  1  0.39948800  0.59389000  0.00935636  1
  C  1302  1  0.39855600  0.59388000  0.04828740  1
  C  1303  1  0.37238500  0.61552500  0.06626340  1
  C  1304  1  0.34750700  0.63694600  0.04664340  1
  C  1305  1  0.42542400  0.57435800  0.98817100  1
  C  1307  1  0.40105300  0.59728400  0.93321100  1
  C  1316  1  0.15935500  0.36965100  0.50828000  1
  C  1317  1  0.13351700  0.39158500  0.48946200  1
  C  1318  1  0.10808400  0.41356300  0.50946600  1
  C  1319  1  0.10891900  0.41334500  0.54840000  1
  C  1320  1  0.13517600  0.39184100  0.56638400  1
  C  1321  1  0.16010000  0.37051000  0.54673200  1
  C  1322  1  0.08215000  0.43310300  0.48828200  1
  C  1324  1  0.10679100  0.41052100  0.43329900  1
  C  1333  1  0.61371200  0.90682000  0.05947540  1
  C  1334  1  0.63678500  0.88159000  0.07771240  1
  C  1335  1  0.66032500  0.85827400  0.05704840  1
  C  1336  1  0.65991900  0.85970000  0.01822140  1
  C  1337  1  0.63754600  0.88571700  0.00078237  1
  C  1338  1  0.61482100  0.90885900  0.02106140  1
  C  1339  1  0.68209000  0.83339600  0.07729540  1
  C  1341  1  0.65777600  0.85454700  0.13299400  1
  C  1350  1  0.89389600  0.10075600  0.55952000  1
  C  1351  1  0.87083300  0.12598700  0.57776500  1
  C  1352  1  0.84731500  0.14933100  0.55711000  1
  C  1353  1  0.84774600  0.14793000  0.51828800  1
  C  1354  1  0.87002300  0.12184300  0.50082700  1
  C  1355  1  0.89277800  0.09872500  0.52110700  1
  C  1356  1  0.82557500  0.17422700  0.57735900  1
  C  1358  1  0.84984200  0.15301600  0.63305600  1
  C  1367  1  0.15501600  0.63880300  0.80800700  1
  C  1368  1  0.14440500  0.60398500  0.82129300  1
  C  1369  1  0.12566000  0.57885300  0.79782600  1
  C  1370  1  0.11445700  0.59006000  0.76221900  1
  C  1371  1  0.12641800  0.62431100  0.74943000  1
  C  1372  1  0.14659000  0.64803300  0.77163800  1
  C  1373  1  0.11967400  0.54342300  0.81212100  1
  C  1375  1  0.14434300  0.56018500  0.86920300  1
  C  1384  1  0.35238400  0.36898300  0.30795700  1
  C  1385  1  0.36312200  0.40377400  0.32121100  1
  C  1386  1  0.38188300  0.42884500  0.29769600  1
  C  1387  1  0.39294000  0.41765200  0.26203900  1
  C  1388  1  0.38088300  0.38340700  0.24931100  1
  C  1389  1  0.36072900  0.35972300  0.27157700  1
  C  1390  1  0.38803300  0.46425200  0.31198100  1
  C  1392  1  0.36347700  0.44756500  0.36913000  1
  C  1401  1  0.11053200  0.10525900  0.55573900  1
  C  1402  1  0.14025600  0.12241100  0.57393000  1
  C  1403  1  0.16274400  0.14795300  0.55458600  1
  C  1404  1  0.15633100  0.15529900  0.51694100  1
  C  1405  1  0.12786600  0.13643100  0.49918900  1
  C  1406  1  0.10554200  0.11188000  0.51821400  1
  C  1407  1  0.19079000  0.16520600  0.57499800  1
  C  1409  1  0.17527700  0.13194700  0.62786000  1
  C  1418  1  0.39707800  0.90241200  0.05569940  1
  C  1419  1  0.36732300  0.88528700  0.07386640  1
  C  1420  1  0.34482500  0.85977300  0.05450040  1
  C  1421  1  0.35125600  0.85243200  0.01685540  1
  C  1422  1  0.37975100  0.87127700  0.99912700  1
  C  1423  1  0.40208600  0.89580100  0.01817540  1
  C  1424  1  0.31674600  0.84254500  0.07488840  1
  C  1426  1  0.33225200  0.87578100  0.12776300  1
  C  1435  1  0.65789300  0.35897600  0.30742000  1
  C  1436  1  0.63249700  0.38237100  0.32501700  1
  C  1437  1  0.60902000  0.40517200  0.30372100  1
  C  1438  1  0.61060400  0.40386900  0.26492900  1
  C  1439  1  0.63659500  0.38107600  0.24806200  1
  C  1440  1  0.65984000  0.35900900  0.26896300  1
  C  1441  1  0.58391300  0.42724800  0.32333800  1
  C  1443  1  0.60519800  0.40461600  0.37968800  1
  C  1452  1  0.84979000  0.64866000  0.80741500  1
  C  1453  1  0.87520800  0.62529800  0.82502400  1
  C  1454  1  0.89871800  0.60251900  0.80373900  1
  C  1455  1  0.89712900  0.60380500  0.76494300  1
  C  1456  1  0.87112200  0.62656500  0.74806300  1
  C  1457  1  0.84789000  0.64864900  0.76895700  1
  C  1458  1  0.92384200  0.58047000  0.82336900  1
  C  1460  1  0.90251300  0.60309100  0.87970800  1
  C  1469  1  0.39743800  0.11193100  0.25762500  1
  C  1470  1  0.37493200  0.13865600  0.24045600  1
  C  1471  1  0.35067800  0.16029500  0.26224900  1
  C  1472  1  0.35061500  0.15673100  0.30093500  1
  C  1473  1  0.37299600  0.13005500  0.31717400  1
  C  1474  1  0.39574300  0.10795500  0.29582600  1
  C  1475  1  0.32871900  0.18622600  0.24355900  1
  C  1477  1  0.35539100  0.17088300  0.18722200  1
  C  1486  1  0.11020400  0.89566200  0.75769300  1
  C  1487  1  0.13267800  0.86890800  0.74052800  1
  C  1488  1  0.15698400  0.84731000  0.76230200  1
  C  1489  1  0.15709800  0.85092200  0.80097900  1
  C  1490  1  0.13481400  0.87768400  0.81722700  1
  C  1491  1  0.11197400  0.89969700  0.79588600  1
  C  1492  1  0.17890200  0.82134900  0.74361000  1
  C  1494  1  0.15215000  0.83664000  0.68729500  1
  C  1503  1  0.85243500  0.36129300  0.50710300  1
  C  1504  1  0.87766700  0.38485500  0.48947900  1
  C  1505  1  0.90052800  0.40845400  0.51065500  1
  C  1506  1  0.89870700  0.40779500  0.54948200  1
  C  1507  1  0.87289700  0.38473500  0.56634300  1
  C  1508  1  0.85016700  0.36194500  0.54554300  1
  C  1509  1  0.92538700  0.43067500  0.49088000  1
  C  1511  1  0.90509400  0.40669000  0.43471700  1
  C  1520  1  0.65503400  0.64632900  0.00707736  1
  C  1521  1  0.62982300  0.62274100  0.98945500  1
  C  1522  1  0.60699200  0.59911100  0.01063440  1
  C  1523  1  0.60881600  0.59974100  0.04946740  1
  C  1524  1  0.63457700  0.62287100  0.06631440  1
  C  1525  1  0.65726400  0.64570200  0.04551740  1
  C  1526  1  0.58216300  0.57686100  0.99085600  1
  C  1528  1  0.60242000  0.60087700  0.93469400  1
  N  8  1  0.00164700  0.09714500  0.90240900  1
  N  15  1  0.00564900  0.90675700  0.09527500  1
  N  38  1  0.50595300  0.91041300  0.40238900  1
  N  45  1  0.50201100  0.10077300  0.59526700  1
  N  68  1  0.15207000  0.74739300  0.16365200  1
  N  75  1  0.34558800  0.74565400  0.35447800  1
  N  98  1  0.35554900  0.26040000  0.66372200  1
  N  105  1  0.16210200  0.26208800  0.85459100  1
  N  128  1  0.84869500  0.25351300  0.85144000  1
  N  135  1  0.65962700  0.25149800  0.65608100  1
  N  158  1  0.65888300  0.75409100  0.35141900  1
  N  165  1  0.84794200  0.75605700  0.15604600  1
  N  188  1  0.50461100  0.59762000  0.40865300  1
  N  195  1  0.50618700  0.39978000  0.59388800  1
  N  218  1  0.00289000  0.40982000  0.90878600  1
  N  225  1  0.00156800  0.60768400  0.09403100  1
  N  248  1  0.82669000  0.83631000  0.04859000  1
  N  253  1  0.87213100  0.88110200  0.04737200  1
  N  256  1  0.92444400  0.92287400  0.08385300  1
  N  257  1  0.83366300  0.83443400  0.16310300  1
  N  265  1  0.68085800  0.17127500  0.54858000  1
  N  270  1  0.63543000  0.12646900  0.54737000  1
  N  273  1  0.58316100  0.08465300  0.58385800  1
  N  274  1  0.67390400  0.17313500  0.66309500  1
  N  282  1  0.42527700  0.57646300  0.29711800  1
  N  287  1  0.37604100  0.61688500  0.29774500  1
  N  290  1  0.33211600  0.66524300  0.33622900  1
  N  291  1  0.42651200  0.58343000  0.41463700  1
  N  299  1  0.08243100  0.43116800  0.79722100  1
  N  304  1  0.13180100  0.39090900  0.79782900  1
  N  307  1  0.17583300  0.34257600  0.83618200  1
  N  308  1  0.08097600  0.42393800  0.91469800  1
  N  316  1  0.68028300  0.83241700  0.45984400  1
  N  321  1  0.63631400  0.87866000  0.46074300  1
  N  324  1  0.58626000  0.92217600  0.42338200  1
  N  325  1  0.67618800  0.83309600  0.34527700  1
  N  333  1  0.82736300  0.17517900  0.95991100  1
  N  338  1  0.87129400  0.12889900  0.96079900  1
  N  341  1  0.92135300  0.08539600  0.92341900  1
  N  342  1  0.83145800  0.17451100  0.84532000  1
  N  350  1  0.12922600  0.53522000  0.19252800  1
  N  355  1  0.15227300  0.59393400  0.20214900  1
  N  358  1  0.16774900  0.66493500  0.17584200  1
  N  359  1  0.08842700  0.57531200  0.08675100  1
  N  367  1  0.37862000  0.47248200  0.69241900  1
  N  372  1  0.35537700  0.41385200  0.70208900  1
  N  375  1  0.33966700  0.34288400  0.67583900  1
  N  376  1  0.41906700  0.43224500  0.58658500  1
  N  384  1  0.19615900  0.15674200  0.95621700  1
  N  389  1  0.14787600  0.11500600  0.95549200  1
  N  392  1  0.08434800  0.08499200  0.91681700  1
  N  393  1  0.17404400  0.18252700  0.84602300  1
  N  401  1  0.31135700  0.85101200  0.45610100  1
  N  406  1  0.35969800  0.89268000  0.45542700  1
  N  409  1  0.42327000  0.92264500  0.41681000  1
  N  410  1  0.33354400  0.82521200  0.34592900  1
  N  418  1  0.58288500  0.42640300  0.70591900  1
  N  423  1  0.62952300  0.38288900  0.70804500  1
  N  426  1  0.67348100  0.33218100  0.67215600  1
  N  427  1  0.58423200  0.41974300  0.59144800  1
  N  435  1  0.92485600  0.58132600  0.20595200  1
  N  440  1  0.87817200  0.62478800  0.20805400  1
  N  443  1  0.83412600  0.67541400  0.17215300  1
  N  444  1  0.92350900  0.58791200  0.09149100  1
  N  452  1  0.33155700  0.19053000  0.55284100  1
  N  457  1  0.37685900  0.14577700  0.54952300  1
  N  460  1  0.42474500  0.09358500  0.58787100  1
  N  461  1  0.33493700  0.18279700  0.66655400  1
  N  469  1  0.17601100  0.81700900  0.05290100  1
  N  474  1  0.13070100  0.86175800  0.04960400  1
  N  477  1  0.08288500  0.91400600  0.08794900  1
  N  478  1  0.17307300  0.82506800  0.16666400  1
  N  486  1  0.92678300  0.42923200  0.79981000  1
  N  491  1  0.88100400  0.38481100  0.79796200  1
  N  494  1  0.83702400  0.33403200  0.83413700  1
  N  495  1  0.92485300  0.42439600  0.91447500  1
  N  503  1  0.58075900  0.57830800  0.29978700  1
  N  508  1  0.62649200  0.62277900  0.29793900  1
  N  511  1  0.67045500  0.67358200  0.33410900  1
  N  512  1  0.58271900  0.58305700  0.41446000  1
  N  520  1  0.00164700  0.09714500  0.22953900  1
  N  527  1  0.00564900  0.90675700  0.42240500  1
  N  550  1  0.50595300  0.91041300  0.72951900  1
  N  557  1  0.50201100  0.10077300  0.92239700  1
  N  580  1  0.15207000  0.74739300  0.49078200  1
  N  587  1  0.34558800  0.74565400  0.68160800  1
  N  610  1  0.35554900  0.26040000  0.99085200  1
  N  617  1  0.16210200  0.26208800  0.18172100  1
  N  640  1  0.84869500  0.25351300  0.17857000  1
  N  647  1  0.65962700  0.25149800  0.98321100  1
  N  670  1  0.65888300  0.75409100  0.67854900  1
  N  677  1  0.84794200  0.75605700  0.48317600  1
  N  700  1  0.50461100  0.59762000  0.73578300  1
  N  707  1  0.50618700  0.39978000  0.92101800  1
  N  730  1  0.00289000  0.40982000  0.23591600  1
  N  737  1  0.00156800  0.60768400  0.42116100  1
  N  760  1  0.82669000  0.83631000  0.37572000  1
  N  765  1  0.87213100  0.88110200  0.37450200  1
  N  768  1  0.92444400  0.92287400  0.41098300  1
  N  769  1  0.83366300  0.83443400  0.49023300  1
  N  777  1  0.68085800  0.17127500  0.87571000  1
  N  782  1  0.63543000  0.12646900  0.87450000  1
  N  785  1  0.58316100  0.08465300  0.91098800  1
  N  786  1  0.67390400  0.17313500  0.99022500  1
  N  794  1  0.42527700  0.57646300  0.62424800  1
  N  799  1  0.37604100  0.61688500  0.62487500  1
  N  802  1  0.33211600  0.66524300  0.66335900  1
  N  803  1  0.42651200  0.58343000  0.74176700  1
  N  811  1  0.08243100  0.43116800  0.12435100  1
  N  816  1  0.13180100  0.39090900  0.12495900  1
  N  819  1  0.17583300  0.34257600  0.16331200  1
  N  820  1  0.08097600  0.42393800  0.24182800  1
  N  828  1  0.68028300  0.83241700  0.78697400  1
  N  833  1  0.63631400  0.87866000  0.78787300  1
  N  836  1  0.58626000  0.92217600  0.75051200  1
  N  837  1  0.67618800  0.83309600  0.67240700  1
  N  845  1  0.82736300  0.17517900  0.28704100  1
  N  850  1  0.87129400  0.12889900  0.28792900  1
  N  853  1  0.92135300  0.08539600  0.25054900  1
  N  854  1  0.83145800  0.17451100  0.17245000  1
  N  862  1  0.12922600  0.53522000  0.51965800  1
  N  867  1  0.15227300  0.59393400  0.52927900  1
  N  870  1  0.16774900  0.66493500  0.50297200  1
  N  871  1  0.08842700  0.57531200  0.41388100  1
  N  879  1  0.37862000  0.47248200  0.01954870  1
  N  884  1  0.35537700  0.41385200  0.02921870  1
  N  887  1  0.33966700  0.34288400  0.00296868  1
  N  888  1  0.41906700  0.43224500  0.91371500  1
  N  896  1  0.19615900  0.15674200  0.28334700  1
  N  901  1  0.14787600  0.11500600  0.28262200  1
  N  904  1  0.08434800  0.08499200  0.24394700  1
  N  905  1  0.17404400  0.18252700  0.17315300  1
  N  913  1  0.31135700  0.85101200  0.78323100  1
  N  918  1  0.35969800  0.89268000  0.78255700  1
  N  921  1  0.42327000  0.92264500  0.74394000  1
  N  922  1  0.33354400  0.82521200  0.67305900  1
  N  930  1  0.58288500  0.42640300  0.03304870  1
  N  935  1  0.62952300  0.38288900  0.03517470  1
  N  938  1  0.67348100  0.33218100  0.99928600  1
  N  939  1  0.58423200  0.41974300  0.91857800  1
  N  947  1  0.92485600  0.58132600  0.53308200  1
  N  952  1  0.87817200  0.62478800  0.53518400  1
  N  955  1  0.83412600  0.67541400  0.49928300  1
  N  956  1  0.92350900  0.58791200  0.41862100  1
  N  964  1  0.33155700  0.19053000  0.87997100  1
  N  969  1  0.37685900  0.14577700  0.87665300  1
  N  972  1  0.42474500  0.09358500  0.91500100  1
  N  973  1  0.33493700  0.18279700  0.99368400  1
  N  981  1  0.17601100  0.81700900  0.38003100  1
  N  986  1  0.13070100  0.86175800  0.37673400  1
  N  989  1  0.08288500  0.91400600  0.41507900  1
  N  990  1  0.17307300  0.82506800  0.49379400  1
  N  998  1  0.92678300  0.42923200  0.12694000  1
  N  1003  1  0.88100400  0.38481100  0.12509200  1
  N  1006  1  0.83702400  0.33403200  0.16126700  1
  N  1007  1  0.92485300  0.42439600  0.24160500  1
  N  1015  1  0.58075900  0.57830800  0.62691700  1
  N  1020  1  0.62649200  0.62277900  0.62506900  1
  N  1023  1  0.67045500  0.67358200  0.66123900  1
  N  1024  1  0.58271900  0.58305700  0.74159000  1
  N  1032  1  0.00164700  0.09714500  0.55666800  1
  N  1039  1  0.00564900  0.90675700  0.74953400  1
  N  1062  1  0.50595300  0.91041300  0.05664840  1
  N  1069  1  0.50201100  0.10077300  0.24952600  1
  N  1092  1  0.15207000  0.74739300  0.81791100  1
  N  1099  1  0.34558800  0.74565400  0.00873736  1
  N  1122  1  0.35554900  0.26040000  0.31798100  1
  N  1129  1  0.16210200  0.26208800  0.50885000  1
  N  1152  1  0.84869500  0.25351300  0.50569900  1
  N  1159  1  0.65962700  0.25149800  0.31034000  1
  N  1182  1  0.65888300  0.75409100  0.00567836  1
  N  1189  1  0.84794200  0.75605700  0.81030500  1
  N  1212  1  0.50461100  0.59762000  0.06291240  1
  N  1219  1  0.50618700  0.39978000  0.24814700  1
  N  1242  1  0.00289000  0.40982000  0.56304500  1
  N  1249  1  0.00156800  0.60768400  0.74829000  1
  N  1272  1  0.82669000  0.83631000  0.70284900  1
  N  1277  1  0.87213100  0.88110200  0.70163100  1
  N  1280  1  0.92444400  0.92287400  0.73811200  1
  N  1281  1  0.83366300  0.83443400  0.81736200  1
  N  1289  1  0.68085800  0.17127500  0.20283900  1
  N  1294  1  0.63543000  0.12646900  0.20162900  1
  N  1297  1  0.58316100  0.08465300  0.23811700  1
  N  1298  1  0.67390400  0.17313500  0.31735400  1
  N  1306  1  0.42527700  0.57646300  0.95137700  1
  N  1311  1  0.37604100  0.61688500  0.95200400  1
  N  1314  1  0.33211600  0.66524300  0.99048800  1
  N  1315  1  0.42651200  0.58343000  0.06889640  1
  N  1323  1  0.08243100  0.43116800  0.45148000  1
  N  1328  1  0.13180100  0.39090900  0.45208800  1
  N  1331  1  0.17583300  0.34257600  0.49044100  1
  N  1332  1  0.08097600  0.42393800  0.56895700  1
  N  1340  1  0.68028300  0.83241700  0.11410300  1
  N  1345  1  0.63631400  0.87866000  0.11500200  1
  N  1348  1  0.58626000  0.92217600  0.07764140  1
  N  1349  1  0.67618800  0.83309600  0.99953600  1
  N  1357  1  0.82736300  0.17517900  0.61417000  1
  N  1362  1  0.87129400  0.12889900  0.61505800  1
  N  1365  1  0.92135300  0.08539600  0.57767800  1
  N  1366  1  0.83145800  0.17451100  0.49957900  1
  N  1374  1  0.12922600  0.53522000  0.84678700  1
  N  1379  1  0.15227300  0.59393400  0.85640800  1
  N  1382  1  0.16774900  0.66493500  0.83010100  1
  N  1383  1  0.08842700  0.57531200  0.74101000  1
  N  1391  1  0.37862000  0.47248200  0.34667800  1
  N  1396  1  0.35537700  0.41385200  0.35634800  1
  N  1399  1  0.33966700  0.34288400  0.33009800  1
  N  1400  1  0.41906700  0.43224500  0.24084400  1
  N  1408  1  0.19615900  0.15674200  0.61047600  1
  N  1413  1  0.14787600  0.11500600  0.60975100  1
  N  1416  1  0.08434800  0.08499200  0.57107600  1
  N  1417  1  0.17404400  0.18252700  0.50028200  1
  N  1425  1  0.31135700  0.85101200  0.11036000  1
  N  1430  1  0.35969800  0.89268000  0.10968600  1
  N  1433  1  0.42327000  0.92264500  0.07106940  1
  N  1434  1  0.33354400  0.82521200  0.00018836  1
  N  1442  1  0.58288500  0.42640300  0.36017800  1
  N  1447  1  0.62952300  0.38288900  0.36230400  1
  N  1450  1  0.67348100  0.33218100  0.32641500  1
  N  1451  1  0.58423200  0.41974300  0.24570700  1
  N  1459  1  0.92485600  0.58132600  0.86021100  1
  N  1464  1  0.87817200  0.62478800  0.86231300  1
  N  1467  1  0.83412600  0.67541400  0.82641200  1
  N  1468  1  0.92350900  0.58791200  0.74575000  1
  N  1476  1  0.33155700  0.19053000  0.20710000  1
  N  1481  1  0.37685900  0.14577700  0.20378200  1
  N  1484  1  0.42474500  0.09358500  0.24213000  1
  N  1485  1  0.33493700  0.18279700  0.32081300  1
  N  1493  1  0.17601100  0.81700900  0.70716000  1
  N  1498  1  0.13070100  0.86175800  0.70386300  1
  N  1501  1  0.08288500  0.91400600  0.74220800  1
  N  1502  1  0.17307300  0.82506800  0.82092300  1
  N  1510  1  0.92678300  0.42923200  0.45406900  1
  N  1515  1  0.88100400  0.38481100  0.45222100  1
  N  1518  1  0.83702400  0.33403200  0.48839600  1
  N  1519  1  0.92485300  0.42439600  0.56873400  1
  N  1527  1  0.58075900  0.57830800  0.95404600  1
  N  1532  1  0.62649200  0.62277900  0.95219800  1
  N  1535  1  0.67045500  0.67358200  0.98836800  1
  N  1536  1  0.58271900  0.58305700  0.06871940  1
  O  252  1  0.80155800  0.81362900  0.10091500  1
  O  269  1  0.70599200  0.19396300  0.60090200  1
  O  286  1  0.45122600  0.55201800  0.34766300  1
  O  303  1  0.05618800  0.45525600  0.84777600  1
  O  320  1  0.70612300  0.80997900  0.40774300  1
  O  337  1  0.80156100  0.19766400  0.90781000  1
  O  354  1  0.10862500  0.51487200  0.13736500  1
  O  371  1  0.39915000  0.49275600  0.63719400  1
  O  388  1  0.21410100  0.19008100  0.90668400  1
  O  405  1  0.29341900  0.81769900  0.40654900  1
  O  422  1  0.56022600  0.45057500  0.65311700  1
  O  439  1  0.94755300  0.55715700  0.15316900  1
  O  456  1  0.30360600  0.20765700  0.60573500  1
  O  473  1  0.20402800  0.79992200  0.10577100  1
  O  490  1  0.94839600  0.45480900  0.85236700  1
  O  507  1  0.55918200  0.55269400  0.35233200  1
  O  764  1  0.80155800  0.81362900  0.42804500  1
  O  781  1  0.70599200  0.19396300  0.92803200  1
  O  798  1  0.45122600  0.55201800  0.67479300  1
  O  815  1  0.05618800  0.45525600  0.17490600  1
  O  832  1  0.70612300  0.80997900  0.73487300  1
  O  849  1  0.80156100  0.19766400  0.23494000  1
  O  866  1  0.10862500  0.51487200  0.46449500  1
  O  883  1  0.39915000  0.49275600  0.96432400  1
  O  900  1  0.21410100  0.19008100  0.23381400  1
  O  917  1  0.29341900  0.81769900  0.73367900  1
  O  934  1  0.56022600  0.45057500  0.98024700  1
  O  951  1  0.94755300  0.55715700  0.48029900  1
  O  968  1  0.30360600  0.20765700  0.93286500  1
  O  985  1  0.20402800  0.79992200  0.43290100  1
  O  1002  1  0.94839600  0.45480900  0.17949700  1
  O  1019  1  0.55918200  0.55269400  0.67946200  1
  O  1276  1  0.80155800  0.81362900  0.75517400  1
  O  1293  1  0.70599200  0.19396300  0.25516100  1
  O  1310  1  0.45122600  0.55201800  0.00192236  1
  O  1327  1  0.05618800  0.45525600  0.50203500  1
  O  1344  1  0.70612300  0.80997900  0.06200240  1
  O  1361  1  0.80156100  0.19766400  0.56206900  1
  O  1378  1  0.10862500  0.51487200  0.79162400  1
  O  1395  1  0.39915000  0.49275600  0.29145300  1
  O  1412  1  0.21410100  0.19008100  0.56094300  1
  O  1429  1  0.29341900  0.81769900  0.06080840  1
  O  1446  1  0.56022600  0.45057500  0.30737600  1
  O  1463  1  0.94755300  0.55715700  0.80742800  1
  O  1480  1  0.30360600  0.20765700  0.25999400  1
  O  1497  1  0.20402800  0.79992200  0.76003000  1
  O  1514  1  0.94839600  0.45480900  0.50662600  1
  O  1531  1  0.55918200  0.55269400  0.00659136  1
