# generated using pymatgen
data_H40C55(NO)8
_symmetry_space_group_name_H-M   'P 1'
_cell_length_a   38.51260000
_cell_length_b   48.37640000
_cell_length_c   48.37640000
_cell_angle_alpha   90.00000000
_cell_angle_beta   90.00020000
_cell_angle_gamma   90.00000000
_symmetry_Int_Tables_number   1
_chemical_formula_structural   H40C55(NO)8
_chemical_formula_sum   'H640 C880 N128 O128'
_cell_volume   90130.11644098
_cell_formula_units_Z   16
loop_
 _symmetry_equiv_pos_site_id
 _symmetry_equiv_pos_as_xyz
  1  'x, y, z'
loop_
 _atom_site_type_symbol
 _atom_site_label
 _atom_site_symmetry_multiplicity
 _atom_site_fract_x
 _atom_site_fract_y
 _atom_site_fract_z
 _atom_site_occupancy
  H  25  1  0.97382400  0.08672800  0.12349800  1
  H  26  1  0.98679400  0.09937800  0.07687600  1
  H  27  1  0.01444400  0.17017700  0.00550200  1
  H  28  1  0.02642300  0.21685800  0.99237300  1
  H  29  1  0.01219100  0.24251100  0.07457200  1
  H  30  1  0.98584900  0.16943500  0.14826500  1
  H  31  1  0.93388100  0.18604700  0.07947900  1
  H  32  1  0.88224100  0.24575200  0.12737300  1
  H  33  1  0.93554100  0.25794200  0.14899700  1
  H  34  1  0.06542400  0.17424700  0.09251900  1
  H  35  1  0.06197700  0.24474500  0.16340600  1
  H  36  1  0.11571000  0.22339000  0.15193300  1
  H  39  1  0.02313500  0.13711400  0.04859800  1
  H  40  1  0.97802000  0.14186600  0.04311300  1
  H  42  1  0.00322900  0.25919300  0.13869500  1
  H  43  1  0.99439900  0.23390300  0.16427300  1
  H  45  1  0.12590600  0.17007100  0.09546600  1
  H  46  1  0.13935000  0.17140600  0.12969500  1
  H  48  1  0.87341500  0.18843500  0.07479800  1
  H  49  1  0.85944300  0.22254200  0.07559400  1
  H  51  1  0.05316200  0.26312200  0.01317800  1
  H  52  1  0.03264400  0.27562400  0.04278700  1
  H  54  1  0.96610700  0.13793200  0.18170000  1
  H  55  1  0.94436600  0.10900500  0.16895300  1
  H  80  1  0.97382400  0.91342700  0.68761500  1
  H  81  1  0.98679700  0.90077600  0.73423500  1
  H  82  1  0.01446600  0.82998100  0.80560800  1
  H  83  1  0.02645600  0.78330400  0.81873600  1
  H  84  1  0.01220400  0.75764500  0.73654100  1
  H  85  1  0.98584400  0.83071900  0.66284900  1
  H  86  1  0.93388400  0.81410600  0.73163600  1
  H  87  1  0.88224400  0.75439900  0.68374300  1
  H  88  1  0.93553800  0.74221100  0.66211900  1
  H  89  1  0.06542500  0.82591100  0.71858800  1
  H  90  1  0.06197000  0.75542000  0.64769400  1
  H  91  1  0.11570300  0.77677800  0.65916100  1
  H  94  1  0.02313900  0.86304500  0.76251300  1
  H  95  1  0.97802500  0.85828700  0.76799900  1
  H  97  1  0.00323100  0.74096500  0.67241100  1
  H  98  1  0.99439100  0.76625800  0.64683700  1
  H  100  1  0.12590500  0.83009700  0.71562800  1
  H  101  1  0.13934600  0.82875800  0.68139900  1
  H  103  1  0.87341800  0.81171600  0.73632000  1
  H  104  1  0.85944300  0.77760900  0.73552900  1
  H  106  1  0.05319100  0.73703500  0.79792700  1
  H  107  1  0.03265400  0.72453100  0.76832500  1
  H  109  1  0.96609900  0.86222400  0.62941300  1
  H  110  1  0.94436600  0.89115400  0.64216100  1
  H  135  1  0.97384800  0.78210100  0.99220800  1
  H  136  1  0.98682300  0.82872300  0.00485100  1
  H  137  1  0.01448000  0.90010700  0.07563700  1
  H  138  1  0.02645900  0.91324300  0.12231500  1
  H  139  1  0.01220300  0.83105200  0.14798500  1
  H  140  1  0.98586700  0.75734700  0.07492000  1
  H  141  1  0.93389700  0.82613700  0.09151500  1
  H  142  1  0.88225200  0.77825600  0.15122900  1
  H  143  1  0.93554600  0.75663600  0.16342700  1
  H  144  1  0.06544400  0.81309900  0.07973600  1
  H  145  1  0.06198500  0.74222200  0.15024100  1
  H  146  1  0.11572200  0.75369600  0.12889900  1
  H  149  1  0.02316600  0.85700500  0.04258500  1
  H  150  1  0.97805100  0.86249500  0.04733000  1
  H  152  1  0.00323200  0.76693000  0.16467800  1
  H  153  1  0.99441000  0.74134900  0.13938900  1
  H  155  1  0.12592700  0.81015800  0.07557400  1
  H  156  1  0.13937500  0.77592800  0.07691100  1
  H  158  1  0.87343600  0.83082900  0.09390700  1
  H  159  1  0.85945900  0.83003500  0.12801400  1
  H  161  1  0.05318500  0.89244000  0.16858700  1
  H  162  1  0.03264900  0.86284300  0.18109500  1
  H  164  1  0.96613100  0.72390500  0.04342100  1
  H  165  1  0.94438400  0.73664900  0.01449500  1
  H  190  1  0.97387100  0.21801300  0.81890600  1
  H  191  1  0.98682800  0.17138900  0.80625200  1
  H  192  1  0.01447700  0.10001400  0.73545400  1
  H  193  1  0.02646700  0.08688700  0.68877600  1
  H  194  1  0.01221000  0.16908100  0.66311700  1
  H  195  1  0.98586200  0.24277500  0.73619300  1
  H  196  1  0.93388700  0.17397900  0.71957300  1
  H  197  1  0.88225200  0.22185400  0.65984900  1
  H  198  1  0.93554600  0.24348700  0.64766800  1
  H  199  1  0.06542700  0.18703300  0.73138200  1
  H  200  1  0.06197600  0.25791300  0.66087800  1
  H  201  1  0.11570800  0.24644500  0.68223200  1
  H  204  1  0.02314900  0.14311200  0.76851400  1
  H  205  1  0.97803600  0.13761900  0.76376400  1
  H  207  1  0.00323300  0.23319900  0.64643100  1
  H  208  1  0.99439700  0.25877700  0.67171900  1
  H  210  1  0.12591000  0.18998100  0.73555600  1
  H  211  1  0.13935500  0.22421100  0.73422000  1
  H  213  1  0.87342600  0.16927400  0.71716400  1
  H  214  1  0.85945900  0.17007900  0.68305700  1
  H  216  1  0.05320400  0.10768400  0.64252200  1
  H  217  1  0.03270100  0.13729800  0.63001400  1
  H  219  1  0.96616700  0.27621900  0.76770200  1
  H  220  1  0.94441300  0.26348200  0.79662700  1
  H  245  1  0.48538100  0.58738200  0.62643700  1
  H  246  1  0.49297400  0.60050200  0.57921200  1
  H  247  1  0.50825700  0.67288800  0.50667200  1
  H  248  1  0.51473800  0.72019600  0.49339700  1
  H  249  1  0.50244100  0.74473100  0.57610300  1
  H  250  1  0.49540700  0.67036400  0.65074900  1
  H  251  1  0.43327100  0.68169800  0.58697400  1
  H  252  1  0.38005500  0.73113400  0.64443300  1
  H  253  1  0.43391800  0.75031400  0.65972400  1
  H  254  1  0.56595000  0.68159100  0.58826000  1
  H  255  1  0.56333800  0.75455400  0.65660900  1
  H  256  1  0.61768100  0.73967500  0.63795400  1
  H  259  1  0.52355300  0.64048800  0.54869100  1
  H  260  1  0.47767200  0.64206700  0.54634000  1
  H  262  1  0.49845200  0.76075600  0.64059900  1
  H  263  1  0.49892500  0.73489800  0.66654600  1
  H  265  1  0.64099300  0.71870400  0.58804100  1
  H  266  1  0.62598200  0.68513200  0.58260800  1
  H  268  1  0.35771900  0.68095400  0.62338400  1
  H  269  1  0.37326200  0.67557800  0.58996000  1
  H  271  1  0.53961300  0.76788100  0.51570800  1
  H  272  1  0.51573800  0.77932500  0.54410600  1
  H  274  1  0.48240800  0.63847100  0.68537500  1
  H  275  1  0.45743200  0.61090600  0.67344400  1
  H  300  1  0.48537100  0.41277200  0.18466600  1
  H  301  1  0.49297600  0.39965200  0.23188900  1
  H  302  1  0.50829900  0.32726700  0.30442900  1
  H  303  1  0.51478500  0.27996100  0.31770200  1
  H  304  1  0.50244900  0.25542400  0.23499800  1
  H  305  1  0.49538900  0.32978900  0.16035300  1
  H  306  1  0.43327900  0.31845300  0.22413300  1
  H  307  1  0.38005700  0.26900700  0.16667900  1
  H  308  1  0.43392000  0.24982900  0.15138900  1
  H  309  1  0.56595000  0.31857500  0.22282900  1
  H  310  1  0.56334300  0.24558500  0.15450500  1
  H  311  1  0.61768400  0.26047400  0.17315500  1
  H  314  1  0.52356900  0.35966900  0.26240400  1
  H  315  1  0.47769000  0.35808400  0.26476700  1
  H  317  1  0.49845800  0.23939400  0.17051300  1
  H  318  1  0.49892800  0.26524300  0.14455900  1
  H  320  1  0.64099300  0.28146200  0.22306900  1
  H  321  1  0.62597700  0.31503200  0.22848900  1
  H  323  1  0.35771700  0.31919300  0.18773400  1
  H  324  1  0.37326700  0.32456100  0.22115600  1
  H  326  1  0.53965500  0.23226600  0.29536900  1
  H  327  1  0.51574600  0.22082900  0.26698500  1
  H  329  1  0.48237700  0.36168500  0.12572900  1
  H  330  1  0.45740600  0.38925200  0.13766700  1
  H  355  1  0.48534000  0.27918000  0.49286200  1
  H  356  1  0.49295800  0.32640300  0.50598000  1
  H  357  1  0.50828800  0.39894100  0.57836800  1
  H  358  1  0.51474600  0.41221400  0.62567700  1
  H  359  1  0.50242000  0.32950800  0.65020900  1
  H  360  1  0.49538300  0.25487000  0.57584400  1
  H  361  1  0.43328900  0.31864100  0.58717800  1
  H  362  1  0.38006300  0.26117500  0.63660500  1
  H  363  1  0.43392600  0.24588200  0.65578600  1
  H  364  1  0.56595500  0.31734100  0.58705900  1
  H  365  1  0.56334800  0.24900000  0.66003200  1
  H  366  1  0.61769100  0.26765100  0.64514300  1
  H  369  1  0.52356400  0.35691800  0.54596000  1
  H  370  1  0.47768500  0.35927900  0.54755000  1
  H  372  1  0.49845800  0.26500900  0.66623400  1
  H  373  1  0.49893800  0.23906300  0.64037600  1
  H  375  1  0.64100300  0.31757200  0.62416000  1
  H  376  1  0.62598200  0.32299000  0.59059000  1
  H  378  1  0.35773500  0.28223700  0.58641700  1
  H  379  1  0.37328300  0.31566200  0.58105500  1
  H  381  1  0.53960300  0.38988000  0.67338800  1
  H  382  1  0.51567800  0.36150100  0.68481300  1
  H  384  1  0.48234300  0.22024800  0.54395900  1
  H  385  1  0.45737500  0.23218800  0.51639200  1
  H  410  1  0.48531400  0.72094100  0.31823700  1
  H  411  1  0.49296600  0.67371700  0.30511700  1
  H  412  1  0.50829900  0.60119000  0.23272400  1
  H  413  1  0.51475900  0.58792100  0.18541300  1
  H  414  1  0.50245100  0.67063100  0.16089200  1
  H  415  1  0.49536500  0.74526400  0.23526300  1
  H  416  1  0.43330500  0.68150000  0.22393500  1
  H  417  1  0.38008300  0.73896600  0.17451100  1
  H  418  1  0.43394100  0.75425200  0.15532000  1
  H  419  1  0.56597300  0.68279200  0.22404500  1
  H  420  1  0.56336600  0.75112500  0.15106200  1
  H  421  1  0.61770400  0.73246900  0.16594600  1
  H  424  1  0.52358200  0.64321100  0.26513500  1
  H  425  1  0.47770300  0.64085200  0.26354700  1
  H  427  1  0.49848400  0.73512700  0.14487300  1
  H  428  1  0.49894800  0.76107400  0.17073000  1
  H  430  1  0.64101400  0.68255400  0.18692300  1
  H  431  1  0.62599800  0.67712400  0.22049400  1
  H  433  1  0.35776600  0.71791400  0.22469700  1
  H  434  1  0.37330600  0.68449100  0.23006800  1
  H  436  1  0.53962100  0.61024800  0.13771100  1
  H  437  1  0.51572200  0.63864200  0.12628700  1
  H  439  1  0.48228100  0.77987200  0.26714600  1
  H  440  1  0.45732300  0.76791200  0.29470900  1
  H  447  1  0.04168000  0.98285600  0.20198500  1
  H  448  1  0.04303700  0.93346200  0.20457700  1
  H  455  1  0.94920100  0.06743100  0.20221300  1
  H  456  1  0.04293500  0.07023000  0.15774900  1
  H  457  1  0.04319700  0.02076600  0.15459700  1
  H  458  1  0.95355500  0.97869500  0.15046800  1
  H  466  1  0.02025000  0.11075500  0.18170500  1
  H  468  1  0.97730900  0.88800400  0.18180200  1
  H  475  1  0.04172100  0.01729700  0.60910300  1
  H  476  1  0.04307700  0.06669300  0.60650700  1
  H  483  1  0.94921900  0.93271500  0.60888000  1
  H  484  1  0.04293600  0.92992900  0.65336900  1
  H  485  1  0.04320700  0.97939500  0.65649200  1
  H  486  1  0.95357100  0.02146200  0.66059400  1
  H  494  1  0.02024800  0.88939700  0.62940800  1
  H  496  1  0.97733700  0.11216300  0.62926600  1
  H  503  1  0.04169000  0.70362600  0.88833600  1
  H  504  1  0.04304400  0.70104000  0.83894300  1
  H  511  1  0.94921400  0.70339700  0.97291700  1
  H  512  1  0.04295600  0.74784800  0.97571400  1
  H  513  1  0.04321400  0.75100500  0.92625200  1
  H  514  1  0.95356600  0.75514300  0.88418400  1
  H  522  1  0.02026900  0.72389700  0.01624000  1
  H  524  1  0.97731400  0.72382200  0.79348700  1
  H  531  1  0.04171100  0.29652700  0.92279500  1
  H  532  1  0.04303800  0.29912300  0.97219100  1
  H  539  1  0.94927600  0.29675400  0.83818200  1
  H  540  1  0.04296500  0.25222600  0.83542800  1
  H  541  1  0.04320900  0.24910900  0.88489700  1
  H  542  1  0.95357100  0.24502200  0.92692800  1
  H  550  1  0.02031000  0.27618000  0.79488400  1
  H  552  1  0.97728300  0.27633900  0.01764200  1
  H  559  1  0.53702200  0.47884500  0.70639200  1
  H  560  1  0.53133000  0.42963100  0.70863900  1
  H  567  1  0.46042100  0.57071000  0.70683000  1
  H  568  1  0.55041200  0.56554900  0.65782900  1
  H  569  1  0.54390300  0.51629700  0.65514800  1
  H  570  1  0.45200500  0.48266100  0.65163500  1
  H  578  1  0.53429800  0.60825500  0.68101100  1
  H  580  1  0.46236800  0.38961800  0.68073400  1
  H  587  1  0.53702400  0.52131000  0.10467900  1
  H  588  1  0.53133800  0.57052600  0.10243500  1
  H  595  1  0.46039700  0.42944100  0.10426900  1
  H  596  1  0.55039100  0.43460900  0.15326700  1
  H  597  1  0.54389500  0.48386200  0.15592600  1
  H  598  1  0.45201300  0.51749600  0.15944100  1
  H  606  1  0.53426900  0.39189800  0.13008200  1
  H  608  1  0.46238400  0.61055000  0.13035200  1
  H  615  1  0.53705300  0.19925700  0.38434400  1
  H  616  1  0.53139500  0.19700900  0.33512800  1
  H  623  1  0.46033800  0.19882100  0.47618000  1
  H  624  1  0.55039700  0.24774700  0.47105800  1
  H  625  1  0.54392100  0.25044000  0.42180400  1
  H  626  1  0.45199800  0.25397700  0.38812900  1
  H  634  1  0.53423300  0.22456400  0.51375200  1
  H  636  1  0.46242800  0.22486800  0.29509400  1
  H  643  1  0.53700100  0.80091600  0.42676300  1
  H  644  1  0.53134300  0.80316300  0.47598200  1
  H  651  1  0.46026000  0.80130200  0.33491500  1
  H  652  1  0.55034700  0.75241100  0.34005800  1
  H  653  1  0.54387400  0.74974200  0.38931300  1
  H  654  1  0.45195100  0.74618900  0.42298000  1
  H  662  1  0.53417300  0.77559100  0.29735700  1
  H  664  1  0.46238400  0.77528900  0.51602600  1
  H  671  1  0.78251000  0.27770000  0.12196300  1
  H  672  1  0.82838900  0.25176300  0.10211500  1
  H  679  1  0.70767500  0.28594900  0.21792200  1
  H  680  1  0.66291000  0.29807700  0.13957600  1
  H  681  1  0.70690100  0.26962100  0.11903100  1
  H  682  1  0.74506800  0.20616700  0.16160800  1
  H  690  1  0.64497600  0.32533900  0.17974700  1
  H  692  1  0.85470200  0.18571600  0.12451300  1
  H  699  1  0.78251800  0.72244300  0.68916100  1
  H  700  1  0.82838900  0.74838600  0.70901600  1
  H  707  1  0.70768000  0.71419400  0.59318400  1
  H  708  1  0.66291300  0.70207800  0.67153200  1
  H  709  1  0.70691900  0.73052200  0.69207500  1
  H  710  1  0.74509400  0.79396600  0.64948600  1
  H  718  1  0.64497300  0.67481900  0.63135500  1
  H  720  1  0.85470700  0.81443500  0.68660800  1
  H  727  1  0.78252600  0.78366500  0.18317200  1
  H  728  1  0.82840200  0.80351800  0.15723400  1
  H  735  1  0.70769800  0.68769700  0.19141700  1
  H  736  1  0.66293100  0.76604100  0.20355700  1
  H  737  1  0.70692200  0.78659000  0.17510100  1
  H  738  1  0.74508600  0.74401600  0.11164100  1
  H  746  1  0.64499900  0.72586700  0.23081100  1
  H  748  1  0.85471500  0.78111700  0.09118600  1
  H  755  1  0.78252300  0.21645100  0.62790400  1
  H  756  1  0.82839100  0.19659300  0.65384200  1
  H  763  1  0.70767800  0.31241700  0.61966600  1
  H  764  1  0.66291800  0.23407100  0.60753800  1
  H  765  1  0.70692200  0.21352600  0.63598200  1
  H  766  1  0.74508300  0.25610000  0.69943600  1
  H  774  1  0.64497300  0.27424500  0.58028700  1
  H  776  1  0.85469700  0.21897900  0.71990700  1
  H  783  1  0.21553000  0.72084600  0.12411400  1
  H  784  1  0.16970000  0.74675700  0.10413000  1
  H  791  1  0.29136200  0.71376600  0.21963700  1
  H  792  1  0.33534700  0.70021200  0.14124400  1
  H  793  1  0.29133800  0.72849800  0.12049500  1
  H  794  1  0.25422300  0.79281000  0.16218900  1
  H  802  1  0.35373900  0.67371700  0.18171100  1
  H  804  1  0.14422400  0.81318400  0.12550600  1
  H  811  1  0.21550900  0.27930200  0.68702400  1
  H  812  1  0.16968800  0.25338400  0.70701300  1
  H  819  1  0.29133800  0.28639400  0.59149200  1
  H  820  1  0.33533700  0.29992100  0.66988600  1
  H  821  1  0.29131500  0.27164100  0.69063100  1
  H  822  1  0.25419300  0.20734500  0.64892500  1
  H  830  1  0.35373100  0.32641800  0.62942000  1
  H  832  1  0.14421500  0.18694700  0.68563200  1
  H  839  1  0.21550800  0.21859400  0.18478900  1
  H  840  1  0.16968200  0.19861400  0.15887000  1
  H  847  1  0.29132500  0.31411800  0.19189500  1
  H  848  1  0.33534000  0.23572900  0.20541700  1
  H  849  1  0.29133100  0.21498100  0.17712700  1
  H  850  1  0.25421200  0.25667900  0.11283100  1
  H  858  1  0.35373600  0.27618800  0.23191400  1
  H  860  1  0.14422000  0.21999800  0.09243700  1
  H  867  1  0.21550000  0.78156100  0.62630800  1
  H  868  1  0.16968300  0.80155400  0.65222800  1
  H  875  1  0.29131800  0.68602300  0.61921400  1
  H  876  1  0.33532700  0.76441400  0.60568700  1
  H  877  1  0.29131000  0.78516200  0.63396700  1
  H  878  1  0.25418800  0.74346200  0.69826300  1
  H  886  1  0.35371800  0.72394400  0.57919100  1
  H  888  1  0.14421900  0.78017600  0.71867100  1
  H  913  1  0.20751400  0.31411200  0.33021000  1
  H  914  1  0.22048400  0.32676200  0.28358800  1
  H  915  1  0.24813400  0.39756100  0.21221400  1
  H  916  1  0.26011300  0.44424200  0.19908500  1
  H  917  1  0.24588100  0.46989500  0.28128400  1
  H  918  1  0.21953900  0.39681900  0.35497700  1
  H  919  1  0.16757100  0.41343100  0.28619100  1
  H  920  1  0.11593100  0.47313600  0.33408500  1
  H  921  1  0.16923100  0.48532600  0.35570900  1
  H  922  1  0.29911400  0.40163100  0.29923100  1
  H  923  1  0.29566700  0.47212900  0.37011800  1
  H  924  1  0.34940000  0.45077400  0.35864500  1
  H  927  1  0.25682500  0.36449800  0.25531000  1
  H  928  1  0.21171000  0.36925000  0.24982500  1
  H  930  1  0.23691900  0.48657700  0.34540700  1
  H  931  1  0.22808900  0.46128700  0.37098500  1
  H  933  1  0.35959600  0.39745500  0.30217800  1
  H  934  1  0.37304000  0.39879000  0.33640700  1
  H  936  1  0.10710500  0.41581900  0.28151000  1
  H  937  1  0.09313280  0.44992600  0.28230600  1
  H  939  1  0.28685200  0.49050600  0.21989000  1
  H  940  1  0.26633400  0.50300800  0.24949900  1
  H  942  1  0.19979700  0.36531600  0.38841200  1
  H  943  1  0.17805600  0.33638900  0.37566500  1
  H  968  1  0.20751400  0.14081100  0.89432700  1
  H  969  1  0.22048700  0.12816000  0.94094700  1
  H  970  1  0.24815600  0.05736460  0.01232040  1
  H  971  1  0.26014600  0.01068760  0.02544840  1
  H  972  1  0.24589400  0.98502900  0.94325300  1
  H  973  1  0.21953400  0.05810260  0.86956100  1
  H  974  1  0.16757400  0.04148960  0.93834800  1
  H  975  1  0.11593400  0.98178300  0.89045500  1
  H  976  1  0.16922800  0.96959500  0.86883100  1
  H  977  1  0.29911500  0.05329460  0.92530000  1
  H  978  1  0.29566000  0.98280400  0.85440600  1
  H  979  1  0.34939300  0.00416160  0.86587300  1
  H  982  1  0.25682900  0.09042860  0.96922500  1
  H  983  1  0.21171500  0.08567060  0.97471100  1
  H  985  1  0.23692100  0.96834900  0.87912300  1
  H  986  1  0.22808100  0.99364200  0.85354900  1
  H  988  1  0.35959500  0.05748060  0.92234000  1
  H  989  1  0.37303600  0.05614160  0.88811100  1
  H  991  1  0.10710800  0.03909960  0.94303200  1
  H  992  1  0.09313280  0.00499260  0.94224100  1
  H  994  1  0.28688100  0.96441900  0.00463936  1
  H  995  1  0.26634400  0.95191500  0.97503700  1
  H  997  1  0.19978900  0.08960760  0.83612500  1
  H  998  1  0.17805600  0.11853800  0.84887300  1
  H  1023  1  0.20753800  0.00948460  0.19892000  1
  H  1024  1  0.22051300  0.05610660  0.21156300  1
  H  1025  1  0.24817000  0.12749100  0.28234900  1
  H  1026  1  0.26014900  0.14062700  0.32902700  1
  H  1027  1  0.24589300  0.05843560  0.35469700  1
  H  1028  1  0.21955700  0.98473100  0.28163200  1
  H  1029  1  0.16758700  0.05352060  0.29822700  1
  H  1030  1  0.11594200  0.00563960  0.35794100  1
  H  1031  1  0.16923600  0.98402000  0.37013900  1
  H  1032  1  0.29913400  0.04048260  0.28644800  1
  H  1033  1  0.29567500  0.96960600  0.35695300  1
  H  1034  1  0.34941200  0.98108000  0.33561100  1
  H  1037  1  0.25685600  0.08438860  0.24929700  1
  H  1038  1  0.21174100  0.08987860  0.25404200  1
  H  1040  1  0.23692200  0.99431400  0.37139000  1
  H  1041  1  0.22810000  0.96873300  0.34610100  1
  H  1043  1  0.35961700  0.03754160  0.28228600  1
  H  1044  1  0.37306500  0.00331160  0.28362300  1
  H  1046  1  0.10712600  0.05821260  0.30061900  1
  H  1047  1  0.09314880  0.05741860  0.33472600  1
  H  1049  1  0.28687500  0.11982400  0.37529900  1
  H  1050  1  0.26633900  0.09022660  0.38780700  1
  H  1052  1  0.19982100  0.95128900  0.25013300  1
  H  1053  1  0.17807400  0.96403300  0.22120700  1
  H  1078  1  0.20756100  0.44539700  0.02561840  1
  H  1079  1  0.22051800  0.39877300  0.01296440  1
  H  1080  1  0.24816700  0.32739800  0.94216600  1
  H  1081  1  0.26015700  0.31427100  0.89548800  1
  H  1082  1  0.24590000  0.39646500  0.86982900  1
  H  1083  1  0.21955200  0.47015900  0.94290500  1
  H  1084  1  0.16757700  0.40136300  0.92628500  1
  H  1085  1  0.11594200  0.44923800  0.86656100  1
  H  1086  1  0.16923600  0.47087100  0.85438000  1
  H  1087  1  0.29911700  0.41441700  0.93809400  1
  H  1088  1  0.29566600  0.48529700  0.86759000  1
  H  1089  1  0.34939800  0.47382900  0.88894400  1
  H  1092  1  0.25683900  0.37049600  0.97522600  1
  H  1093  1  0.21172600  0.36500300  0.97047600  1
  H  1095  1  0.23692300  0.46058300  0.85314300  1
  H  1096  1  0.22808700  0.48616100  0.87843100  1
  H  1098  1  0.35960000  0.41736500  0.94226800  1
  H  1099  1  0.37304500  0.45159500  0.94093200  1
  H  1101  1  0.10711600  0.39665800  0.92387600  1
  H  1102  1  0.09314880  0.39746300  0.88976900  1
  H  1104  1  0.28689400  0.33506800  0.84923400  1
  H  1105  1  0.26639100  0.36468200  0.83672600  1
  H  1107  1  0.19985700  0.50360300  0.97441400  1
  H  1108  1  0.17810300  0.49086600  0.00333936  1
  H  1133  1  0.71907100  0.81476600  0.83314900  1
  H  1134  1  0.72666400  0.82788600  0.78592400  1
  H  1135  1  0.74194700  0.90027200  0.71338400  1
  H  1136  1  0.74842800  0.94758000  0.70010900  1
  H  1137  1  0.73613100  0.97211500  0.78281500  1
  H  1138  1  0.72909700  0.89774800  0.85746100  1
  H  1139  1  0.66696100  0.90908200  0.79368600  1
  H  1140  1  0.61374500  0.95851800  0.85114500  1
  H  1141  1  0.66760800  0.97769800  0.86643600  1
  H  1142  1  0.79964000  0.90897500  0.79497200  1
  H  1143  1  0.79702800  0.98193800  0.86332100  1
  H  1144  1  0.85137100  0.96705900  0.84466600  1
  H  1147  1  0.75724300  0.86787200  0.75540300  1
  H  1148  1  0.71136200  0.86945100  0.75305200  1
  H  1150  1  0.73214200  0.98814000  0.84731100  1
  H  1151  1  0.73261500  0.96228200  0.87325800  1
  H  1153  1  0.87468300  0.94608800  0.79475300  1
  H  1154  1  0.85967200  0.91251600  0.78932000  1
  H  1156  1  0.59140900  0.90833800  0.83009600  1
  H  1157  1  0.60695200  0.90296200  0.79667200  1
  H  1159  1  0.77330300  0.99526500  0.72242000  1
  H  1160  1  0.74942800  0.00670860  0.75081800  1
  H  1162  1  0.71609800  0.86585500  0.89208700  1
  H  1163  1  0.69112200  0.83829000  0.88015600  1
  H  1188  1  0.71906100  0.64015600  0.39137800  1
  H  1189  1  0.72666600  0.62703600  0.43860100  1
  H  1190  1  0.74198900  0.55465100  0.51114100  1
  H  1191  1  0.74847500  0.50734500  0.52441400  1
  H  1192  1  0.73613900  0.48280800  0.44171000  1
  H  1193  1  0.72907900  0.55717300  0.36706500  1
  H  1194  1  0.66696900  0.54583700  0.43084500  1
  H  1195  1  0.61374700  0.49639100  0.37339100  1
  H  1196  1  0.66761000  0.47721300  0.35810100  1
  H  1197  1  0.79964000  0.54595900  0.42954100  1
  H  1198  1  0.79703300  0.47296900  0.36121700  1
  H  1199  1  0.85137400  0.48785800  0.37986700  1
  H  1202  1  0.75725900  0.58705300  0.46911600  1
  H  1203  1  0.71138000  0.58546800  0.47147900  1
  H  1205  1  0.73214800  0.46677800  0.37722500  1
  H  1206  1  0.73261800  0.49262700  0.35127100  1
  H  1208  1  0.87468300  0.50884600  0.42978100  1
  H  1209  1  0.85966700  0.54241600  0.43520100  1
  H  1211  1  0.59140700  0.54657700  0.39444600  1
  H  1212  1  0.60695700  0.55194500  0.42786800  1
  H  1214  1  0.77334500  0.45965000  0.50208100  1
  H  1215  1  0.74943600  0.44821300  0.47369700  1
  H  1217  1  0.71606700  0.58906900  0.33244100  1
  H  1218  1  0.69109600  0.61663600  0.34437900  1
  H  1243  1  0.71903000  0.50656400  0.69957400  1
  H  1244  1  0.72664800  0.55378700  0.71269200  1
  H  1245  1  0.74197800  0.62632500  0.78508000  1
  H  1246  1  0.74843600  0.63959800  0.83238900  1
  H  1247  1  0.73611000  0.55689200  0.85692100  1
  H  1248  1  0.72907300  0.48225400  0.78255600  1
  H  1249  1  0.66697900  0.54602500  0.79389000  1
  H  1250  1  0.61375300  0.48855900  0.84331700  1
  H  1251  1  0.66761600  0.47326600  0.86249800  1
  H  1252  1  0.79964500  0.54472500  0.79377100  1
  H  1253  1  0.79703800  0.47638400  0.86674400  1
  H  1254  1  0.85138100  0.49503500  0.85185500  1
  H  1257  1  0.75725400  0.58430200  0.75267200  1
  H  1258  1  0.71137500  0.58666300  0.75426200  1
  H  1260  1  0.73214800  0.49239300  0.87294600  1
  H  1261  1  0.73262800  0.46644700  0.84708800  1
  H  1263  1  0.87469300  0.54495600  0.83087200  1
  H  1264  1  0.85967200  0.55037400  0.79730200  1
  H  1266  1  0.59142500  0.50962100  0.79312900  1
  H  1267  1  0.60697300  0.54304600  0.78776700  1
  H  1269  1  0.77329300  0.61726400  0.88010000  1
  H  1270  1  0.74936800  0.58888500  0.89152500  1
  H  1272  1  0.71603300  0.44763200  0.75067100  1
  H  1273  1  0.69106500  0.45957200  0.72310400  1
  H  1298  1  0.71900400  0.94832500  0.52494900  1
  H  1299  1  0.72665600  0.90110100  0.51182900  1
  H  1300  1  0.74198900  0.82857400  0.43943600  1
  H  1301  1  0.74844900  0.81530500  0.39212500  1
  H  1302  1  0.73614100  0.89801500  0.36760400  1
  H  1303  1  0.72905500  0.97264800  0.44197500  1
  H  1304  1  0.66699500  0.90888400  0.43064700  1
  H  1305  1  0.61377300  0.96635000  0.38122300  1
  H  1306  1  0.66763100  0.98163600  0.36203200  1
  H  1307  1  0.79966300  0.91017600  0.43075700  1
  H  1308  1  0.79705600  0.97850900  0.35777400  1
  H  1309  1  0.85139400  0.95985300  0.37265800  1
  H  1312  1  0.75727200  0.87059500  0.47184700  1
  H  1313  1  0.71139300  0.86823600  0.47025900  1
  H  1315  1  0.73217400  0.96251100  0.35158500  1
  H  1316  1  0.73263800  0.98845800  0.37744200  1
  H  1318  1  0.87470400  0.90993800  0.39363500  1
  H  1319  1  0.85968800  0.90450800  0.42720600  1
  H  1321  1  0.59145600  0.94529800  0.43140900  1
  H  1322  1  0.60699600  0.91187500  0.43678000  1
  H  1324  1  0.77331100  0.83763200  0.34442300  1
  H  1325  1  0.74941200  0.86602600  0.33299900  1
  H  1327  1  0.71597100  0.00725560  0.47385800  1
  H  1328  1  0.69101300  0.99529600  0.50142100  1
  H  1335  1  0.27537000  0.21024000  0.40869700  1
  H  1336  1  0.27672700  0.16084600  0.41128900  1
  H  1343  1  0.18289100  0.29481500  0.40892500  1
  H  1344  1  0.27662500  0.29761400  0.36446100  1
  H  1345  1  0.27688700  0.24815000  0.36130900  1
  H  1346  1  0.18724500  0.20607900  0.35718000  1
  H  1354  1  0.25394000  0.33813900  0.38841700  1
  H  1356  1  0.21099900  0.11538800  0.38851400  1
  H  1363  1  0.27541100  0.24468100  0.81581500  1
  H  1364  1  0.27676700  0.29407700  0.81321900  1
  H  1371  1  0.18290900  0.16009900  0.81559200  1
  H  1372  1  0.27662600  0.15731300  0.86008100  1
  H  1373  1  0.27689700  0.20677900  0.86320400  1
  H  1374  1  0.18726100  0.24884600  0.86730600  1
  H  1382  1  0.25393800  0.11678100  0.83612000  1
  H  1384  1  0.21102700  0.33954700  0.83597800  1
  H  1391  1  0.27538000  0.93101000  0.09504840  1
  H  1392  1  0.27673400  0.92842400  0.04565540  1
  H  1399  1  0.18290400  0.93078100  0.17962900  1
  H  1400  1  0.27664600  0.97523200  0.18242600  1
  H  1401  1  0.27690400  0.97838900  0.13296400  1
  H  1402  1  0.18725600  0.98252700  0.09089640  1
  H  1410  1  0.25395900  0.95128100  0.22295200  1
  H  1412  1  0.21100400  0.95120600  0.00019936  1
  H  1419  1  0.27540100  0.52391100  0.12950700  1
  H  1420  1  0.27672800  0.52650700  0.17890300  1
  H  1427  1  0.18296600  0.52413800  0.04489440  1
  H  1428  1  0.27665500  0.47961000  0.04214040  1
  H  1429  1  0.27689900  0.47649300  0.09160940  1
  H  1430  1  0.18726100  0.47240600  0.13364000  1
  H  1438  1  0.25400000  0.50356400  0.00159636  1
  H  1440  1  0.21097300  0.50372300  0.22435400  1
  H  1447  1  0.77071200  0.70622900  0.91310400  1
  H  1448  1  0.76502000  0.65701500  0.91535100  1
  H  1455  1  0.69411100  0.79809400  0.91354200  1
  H  1456  1  0.78410200  0.79293300  0.86454100  1
  H  1457  1  0.77759300  0.74368100  0.86186000  1
  H  1458  1  0.68569500  0.71004500  0.85834700  1
  H  1466  1  0.76798800  0.83563900  0.88772300  1
  H  1468  1  0.69605800  0.61700200  0.88744600  1
  H  1475  1  0.77071400  0.74869400  0.31139100  1
  H  1476  1  0.76502800  0.79791000  0.30914700  1
  H  1483  1  0.69408700  0.65682500  0.31098100  1
  H  1484  1  0.78408100  0.66199300  0.35997900  1
  H  1485  1  0.77758500  0.71124600  0.36263800  1
  H  1486  1  0.68570300  0.74488000  0.36615300  1
  H  1494  1  0.76795900  0.61928200  0.33679400  1
  H  1496  1  0.69607400  0.83793400  0.33706400  1
  H  1503  1  0.77074300  0.42664100  0.59105600  1
  H  1504  1  0.76508500  0.42439300  0.54184000  1
  H  1511  1  0.69402800  0.42620500  0.68289200  1
  H  1512  1  0.78408700  0.47513100  0.67777000  1
  H  1513  1  0.77761100  0.47782400  0.62851600  1
  H  1514  1  0.68568800  0.48136100  0.59484100  1
  H  1522  1  0.76792300  0.45194800  0.72046400  1
  H  1524  1  0.69611800  0.45225200  0.50180600  1
  H  1531  1  0.77069100  0.02829960  0.63347500  1
  H  1532  1  0.76503300  0.03054660  0.68269400  1
  H  1539  1  0.69395000  0.02868560  0.54162700  1
  H  1540  1  0.78403700  0.97979500  0.54677000  1
  H  1541  1  0.77756400  0.97712600  0.59602500  1
  H  1542  1  0.68564100  0.97357300  0.62969200  1
  H  1550  1  0.76786300  0.00297460  0.50406900  1
  H  1552  1  0.69607400  0.00267260  0.72273800  1
  H  1559  1  0.01619980  0.50508400  0.32867500  1
  H  1560  1  0.06207880  0.47914700  0.30882700  1
  H  1567  1  0.94136500  0.51333300  0.42463400  1
  H  1568  1  0.89660000  0.52546100  0.34628800  1
  H  1569  1  0.94059100  0.49700500  0.32574300  1
  H  1570  1  0.97875800  0.43355100  0.36832000  1
  H  1578  1  0.87866600  0.55272300  0.38645900  1
  H  1580  1  0.08839180  0.41310000  0.33122500  1
  H  1587  1  0.01620780  0.94982700  0.89587300  1
  H  1588  1  0.06207880  0.97577000  0.91572800  1
  H  1595  1  0.94137000  0.94157800  0.79989600  1
  H  1596  1  0.89660300  0.92946200  0.87824400  1
  H  1597  1  0.94060900  0.95790600  0.89878700  1
  H  1598  1  0.97878400  0.02134960  0.85619800  1
  H  1606  1  0.87866300  0.90220300  0.83806700  1
  H  1608  1  0.08839680  0.04181860  0.89332000  1
  H  1615  1  0.01621580  0.01104860  0.38988400  1
  H  1616  1  0.06209180  0.03090160  0.36394600  1
  H  1623  1  0.94138800  0.91508100  0.39812900  1
  H  1624  1  0.89662100  0.99342500  0.41026900  1
  H  1625  1  0.94061200  0.01397360  0.38181300  1
  H  1626  1  0.97877600  0.97140000  0.31835300  1
  H  1634  1  0.87868900  0.95325100  0.43752300  1
  H  1636  1  0.08840480  0.00850060  0.29789800  1
  H  1643  1  0.01621280  0.44383500  0.83461600  1
  H  1644  1  0.06208080  0.42397700  0.86055400  1
  H  1651  1  0.94136800  0.53980100  0.82637800  1
  H  1652  1  0.89660800  0.46145500  0.81425000  1
  H  1653  1  0.94061200  0.44091000  0.84269400  1
  H  1654  1  0.97877300  0.48348400  0.90614800  1
  H  1662  1  0.87866300  0.50162900  0.78699900  1
  H  1664  1  0.08838680  0.44636300  0.92661900  1
  H  1671  1  0.44922000  0.94823000  0.33082600  1
  H  1672  1  0.40339000  0.97414100  0.31084200  1
  H  1679  1  0.52505200  0.94115000  0.42634900  1
  H  1680  1  0.56903700  0.92759600  0.34795600  1
  H  1681  1  0.52502800  0.95588200  0.32720700  1
  H  1682  1  0.48791300  0.02019360  0.36890100  1
  H  1690  1  0.58742900  0.90110100  0.38842300  1
  H  1692  1  0.37791400  0.04056760  0.33221800  1
  H  1699  1  0.44919900  0.50668600  0.89373600  1
  H  1700  1  0.40337800  0.48076800  0.91372500  1
  H  1707  1  0.52502800  0.51377800  0.79820400  1
  H  1708  1  0.56902700  0.52730500  0.87659800  1
  H  1709  1  0.52500500  0.49902500  0.89734300  1
  H  1710  1  0.48788300  0.43472900  0.85563700  1
  H  1718  1  0.58742100  0.55380200  0.83613200  1
  H  1720  1  0.37790500  0.41433100  0.89234400  1
  H  1727  1  0.44919800  0.44597800  0.39150100  1
  H  1728  1  0.40337200  0.42599800  0.36558200  1
  H  1735  1  0.52501500  0.54150200  0.39860700  1
  H  1736  1  0.56903000  0.46311300  0.41212900  1
  H  1737  1  0.52502100  0.44236500  0.38383900  1
  H  1738  1  0.48790200  0.48406300  0.31954300  1
  H  1746  1  0.58742600  0.50357200  0.43862600  1
  H  1748  1  0.37791000  0.44738200  0.29914900  1
  H  1755  1  0.44919000  0.00894460  0.83302000  1
  H  1756  1  0.40337300  0.02893760  0.85894000  1
  H  1763  1  0.52500800  0.91340700  0.82592600  1
  H  1764  1  0.56901700  0.99179800  0.81239900  1
  H  1765  1  0.52500000  0.01254560  0.84067900  1
  H  1766  1  0.48787800  0.97084600  0.90497500  1
  H  1774  1  0.58740800  0.95132800  0.78590300  1
  H  1776  1  0.37790900  0.00755960  0.92538300  1
  C  1  1  0.03205000  0.20149800  0.11402200  1
  C  2  1  0.03128800  0.22232100  0.13465600  1
  C  3  1  0.96686500  0.22911800  0.12723900  1
  C  4  1  0.96662100  0.20819300  0.10670100  1
  C  5  1  0.93441400  0.20134700  0.09407300  1
  C  6  1  0.90296200  0.21457600  0.10131500  1
  C  7  1  0.90425700  0.23571400  0.12135600  1
  C  8  1  0.93568100  0.24283500  0.13417400  1
  C  9  1  0.06221600  0.22971500  0.14850500  1
  C  10  1  0.09389200  0.21706300  0.14180900  1
  C  11  1  0.09569900  0.19672700  0.12097700  1
  C  12  1  0.06450600  0.18904600  0.10760800  1
  C  13  1  0.99346200  0.16286700  0.10546700  1
  C  14  1  0.99369000  0.14224000  0.08462300  1
  C  15  1  0.00649400  0.17838500  0.04816400  1
  C  16  1  0.00584200  0.19949800  0.06851300  1
  C  17  1  0.01360600  0.18526400  0.02032600  1
  C  18  1  0.02047300  0.21268400  0.01255200  1
  C  19  1  0.01982100  0.23407700  0.03231900  1
  C  20  1  0.01236700  0.22713800  0.06004600  1
  C  21  1  0.98639100  0.15468800  0.13310900  1
  C  22  1  0.97914200  0.12698300  0.14030000  1
  C  23  1  0.97959400  0.10690500  0.11918800  1
  C  24  1  0.98700700  0.11440300  0.09177700  1
  C  37  1  0.99948900  0.19301100  0.09867700  1
  C  38  1  0.00036000  0.14892700  0.05516400  1
  C  41  1  0.99893300  0.23711000  0.14217800  1
  C  44  1  0.12968700  0.18420700  0.11282300  1
  C  47  1  0.86922700  0.20593700  0.08868100  1
  C  50  1  0.02847100  0.26300600  0.02434000  1
  C  53  1  0.96961800  0.11933600  0.16917600  1
  C  56  1  0.03204900  0.79865800  0.69708600  1
  C  57  1  0.03128500  0.77783800  0.67645000  1
  C  58  1  0.96686500  0.77103300  0.68387800  1
  C  59  1  0.96662400  0.79195900  0.70441700  1
  C  60  1  0.93441600  0.79880300  0.71704700  1
  C  61  1  0.90296400  0.78557100  0.70980800  1
  C  62  1  0.90426300  0.76442300  0.68977700  1
  C  63  1  0.93568100  0.75731400  0.67694700  1
  C  64  1  0.06221100  0.77044800  0.66259600  1
  C  65  1  0.09388700  0.78310300  0.66929000  1
  C  66  1  0.09569600  0.80343500  0.69012200  1
  C  67  1  0.06450600  0.81111300  0.70349800  1
  C  68  1  0.99345900  0.83728700  0.70564700  1
  C  69  1  0.99369300  0.85791500  0.72648900  1
  C  70  1  0.00650800  0.82177100  0.76294700  1
  C  71  1  0.00585000  0.80065700  0.74260000  1
  C  72  1  0.01362500  0.81489600  0.79078500  1
  C  73  1  0.02049800  0.78747500  0.79855900  1
  C  74  1  0.01984100  0.76608000  0.77879300  1
  C  75  1  0.01237400  0.77301800  0.75106700  1
  C  76  1  0.98637300  0.84546400  0.67800700  1
  C  77  1  0.97913900  0.87317200  0.67081400  1
  C  78  1  0.97960900  0.89325200  0.69192300  1
  C  79  1  0.98700900  0.88575200  0.71933500  1
  C  92  1  0.99948900  0.80714400  0.71243500  1
  C  93  1  0.00036600  0.85122900  0.75594700  1
  C  96  1  0.99893000  0.76304800  0.66893200  1
  C  99  1  0.12968400  0.81595800  0.69827300  1
  C  102  1  0.86923000  0.79421200  0.72244000  1
  C  105  1  0.02849300  0.73715300  0.78677200  1
  C  108  1  0.96961500  0.88082000  0.64193800  1
  C  111  1  0.03206400  0.79159500  0.10698100  1
  C  112  1  0.03129900  0.77096700  0.12781000  1
  C  113  1  0.96687600  0.77838400  0.13459900  1
  C  114  1  0.96663400  0.79891700  0.11366800  1
  C  115  1  0.93442900  0.81154500  0.10681900  1
  C  116  1  0.90297500  0.80430800  0.12004700  1
  C  117  1  0.90426800  0.78427500  0.14119400  1
  C  118  1  0.93568600  0.77144500  0.14830700  1
  C  119  1  0.06222700  0.75712200  0.13521100  1
  C  120  1  0.09390200  0.76380500  0.12254900  1
  C  121  1  0.09571500  0.78464300  0.10222200  1
  C  122  1  0.06452200  0.79800700  0.09453100  1
  C  123  1  0.99348300  0.80014300  0.06834600  1
  C  124  1  0.99371400  0.82098300  0.04771400  1
  C  125  1  0.00651700  0.85744700  0.08385400  1
  C  126  1  0.00585700  0.83710500  0.10497100  1
  C  127  1  0.01363300  0.88528700  0.09072700  1
  C  128  1  0.02049000  0.89306600  0.11814900  1
  C  129  1  0.01983600  0.87330400  0.13954500  1
  C  130  1  0.01237300  0.84557800  0.13261000  1
  C  131  1  0.98641000  0.77250100  0.06017100  1
  C  132  1  0.97916000  0.76530500  0.03246600  1
  C  133  1  0.97960900  0.78641500  0.01238600  1
  C  134  1  0.98703300  0.81382500  0.01987900  1
  C  147  1  0.99950400  0.80693900  0.09848800  1
  C  148  1  0.00038800  0.85044200  0.05439600  1
  C  151  1  0.99894100  0.76344500  0.14259400  1
  C  154  1  0.12970500  0.79280000  0.08971000  1
  C  157  1  0.86924500  0.81694600  0.11140900  1
  C  160  1  0.02848800  0.88128700  0.16847200  1
  C  163  1  0.96963600  0.73642800  0.02482300  1
  C  166  1  0.03205100  0.20853400  0.70413100  1
  C  167  1  0.03128900  0.22916600  0.68330500  1
  C  168  1  0.96686800  0.22174000  0.67650200  1
  C  169  1  0.96662400  0.20120600  0.69743200  1
  C  170  1  0.93441900  0.18857300  0.70427400  1
  C  171  1  0.90296700  0.19580700  0.69103800  1
  C  172  1  0.90426300  0.21585100  0.66990200  1
  C  173  1  0.93568100  0.22867800  0.66278900  1
  C  174  1  0.06221400  0.24301900  0.67591700  1
  C  175  1  0.09388800  0.23633400  0.68857800  1
  C  176  1  0.09570000  0.21549400  0.70890200  1
  C  177  1  0.06450900  0.20212000  0.71658100  1
  C  178  1  0.99346200  0.19997500  0.74275800  1
  C  179  1  0.99369600  0.17913200  0.76338800  1
  C  180  1  0.00650500  0.14267400  0.72724300  1
  C  181  1  0.00584900  0.16302100  0.70613000  1
  C  182  1  0.01361500  0.11483500  0.72036600  1
  C  183  1  0.02049200  0.10706200  0.69294600  1
  C  184  1  0.01984500  0.12682800  0.67155300  1
  C  185  1  0.01237500  0.15455400  0.67849000  1
  C  186  1  0.98638400  0.22761700  0.75093700  1
  C  187  1  0.97916000  0.23481100  0.77864500  1
  C  188  1  0.97960900  0.21369900  0.79872300  1
  C  189  1  0.98700400  0.18628500  0.79122100  1
  C  202  1  0.99949100  0.19318500  0.71261500  1
  C  203  1  0.00037200  0.14967400  0.75670200  1
  C  206  1  0.99893500  0.23668200  0.66851300  1
  C  209  1  0.12968900  0.20733900  0.72142100  1
  C  212  1  0.86923800  0.18316200  0.69966600  1
  C  215  1  0.02851500  0.11885100  0.64262800  1
  C  218  1  0.96966400  0.26369100  0.78629800  1
  C  221  1  0.53252700  0.70595800  0.61292200  1
  C  222  1  0.53187800  0.72731400  0.63300500  1
  C  223  1  0.46607300  0.72690200  0.63283700  1
  C  224  1  0.46599600  0.70673100  0.61155800  1
  C  225  1  0.43352600  0.69659200  0.60199100  1
  C  226  1  0.40166900  0.70503800  0.61372400  1
  C  227  1  0.40248600  0.72498000  0.63496400  1
  C  228  1  0.43419300  0.73607800  0.64407000  1
  C  229  1  0.56347500  0.73886500  0.64241200  1
  C  230  1  0.59546200  0.73000100  0.63162800  1
  C  231  1  0.59684100  0.70871600  0.61175900  1
  C  232  1  0.56527000  0.69664800  0.60310000  1
  C  233  1  0.49842700  0.66413000  0.60756600  1
  C  234  1  0.49780600  0.64358700  0.58665300  1
  C  235  1  0.50231600  0.68046400  0.54964800  1
  C  236  1  0.50076900  0.70146600  0.57007300  1
  C  237  1  0.50652800  0.68785400  0.52156800  1
  C  238  1  0.51004100  0.71565900  0.51369600  1
  C  239  1  0.50816600  0.73693600  0.53355100  1
  C  240  1  0.50298900  0.72947800  0.56145700  1
  C  241  1  0.49555500  0.65563000  0.63557600  1
  C  242  1  0.49053600  0.62771500  0.64309600  1
  C  243  1  0.48979600  0.60771600  0.62190400  1
  C  244  1  0.49398400  0.61549200  0.59412600  1
  C  257  1  0.49942600  0.69457200  0.60053400  1
  C  258  1  0.50036900  0.65067700  0.55686400  1
  C  261  1  0.49881900  0.73843700  0.64421200  1
  C  264  1  0.63039900  0.70062300  0.59867000  1
  C  267  1  0.36840900  0.69163500  0.60537100  1
  C  270  1  0.51420300  0.76632000  0.52566900  1
  C  273  1  0.48338700  0.61999700  0.67239300  1
  C  276  1  0.53253000  0.29419900  0.19817300  1
  C  277  1  0.53188300  0.27283800  0.17809700  1
  C  278  1  0.46607900  0.27324900  0.17826800  1
  C  279  1  0.46599800  0.29342000  0.19954800  1
  C  280  1  0.43353100  0.30354900  0.20912600  1
  C  281  1  0.40167600  0.29511300  0.19738000  1
  C  282  1  0.40249200  0.27518200  0.17613200  1
  C  283  1  0.43419600  0.26406900  0.16703900  1
  C  284  1  0.56347800  0.26129100  0.16868400  1
  C  285  1  0.59546000  0.27013600  0.17949100  1
  C  286  1  0.59684400  0.29144000  0.19934300  1
  C  287  1  0.56527200  0.30351000  0.20799400  1
  C  288  1  0.49842100  0.33602300  0.20353500  1
  C  289  1  0.49780900  0.35656900  0.22444800  1
  C  290  1  0.50234000  0.31969100  0.26145300  1
  C  291  1  0.50077900  0.29869100  0.24102800  1
  C  292  1  0.50656900  0.31230300  0.28953300  1
  C  293  1  0.51010800  0.28449800  0.29740100  1
  C  294  1  0.50820300  0.26321900  0.27755000  1
  C  295  1  0.50300900  0.27068000  0.24964400  1
  C  296  1  0.49554200  0.34452600  0.17552600  1
  C  297  1  0.49052000  0.37243800  0.16800700  1
  C  298  1  0.48978500  0.39243700  0.18920000  1
  C  299  1  0.49398100  0.38466300  0.21697700  1
  C  312  1  0.49942900  0.30558100  0.21056700  1
  C  313  1  0.50038200  0.34947800  0.25423700  1
  C  316  1  0.49882400  0.26171200  0.16689400  1
  C  319  1  0.63039600  0.29953700  0.21243400  1
  C  322  1  0.36841500  0.30850800  0.20574100  1
  C  325  1  0.51423400  0.23383100  0.28542400  1
  C  328  1  0.48336100  0.38015900  0.13871200  1
  C  331  1  0.53253700  0.29268200  0.61143200  1
  C  332  1  0.53188600  0.27260600  0.63279400  1
  C  333  1  0.46608400  0.27276900  0.63237600  1
  C  334  1  0.46600600  0.29405700  0.61221300  1
  C  335  1  0.43353600  0.30363200  0.60207800  1
  C  336  1  0.40168200  0.29188400  0.61051200  1
  C  337  1  0.40249700  0.27063000  0.63043700  1
  C  338  1  0.43420100  0.26153700  0.64155000  1
  C  339  1  0.56348300  0.26320100  0.64434500  1
  C  340  1  0.59546700  0.27399500  0.63548900  1
  C  341  1  0.59684900  0.29385000  0.61419000  1
  C  342  1  0.56527700  0.30250500  0.60212200  1
  C  343  1  0.49843200  0.29804800  0.56960800  1
  C  344  1  0.49780600  0.31896100  0.54906300  1
  C  345  1  0.50234200  0.35596300  0.58594000  1
  C  346  1  0.50078400  0.33553800  0.60694200  1
  C  347  1  0.50656200  0.38404300  0.59333200  1
  C  348  1  0.51008500  0.39191000  0.62113900  1
  C  349  1  0.50817700  0.37206000  0.64241800  1
  C  350  1  0.50303000  0.34415100  0.63495200  1
  C  351  1  0.49555700  0.27003700  0.56110600  1
  C  352  1  0.49051000  0.26252100  0.53319300  1
  C  353  1  0.48976700  0.28371300  0.51319400  1
  C  354  1  0.49397300  0.31148900  0.52096800  1
  C  367  1  0.49943700  0.30507700  0.60005000  1
  C  368  1  0.50037900  0.34874900  0.55615500  1
  C  371  1  0.49882900  0.26139600  0.64391300  1
  C  374  1  0.63040100  0.30693700  0.60608500  1
  C  377  1  0.36842500  0.30024400  0.59710600  1
  C  380  1  0.51418200  0.37993700  0.67180900  1
  C  383  1  0.48333300  0.23322500  0.52548300  1
  C  386  1  0.53255600  0.70745500  0.19967400  1
  C  387  1  0.53190600  0.72753700  0.17831800  1
  C  388  1  0.46610200  0.72736300  0.17872500  1
  C  389  1  0.46602400  0.70607600  0.19888800  1
  C  390  1  0.43355700  0.69649300  0.20901600  1
  C  391  1  0.40170200  0.70825300  0.20059700  1
  C  392  1  0.40251500  0.72950100  0.18066600  1
  C  393  1  0.43421900  0.73859600  0.16955300  1
  C  394  1  0.56350400  0.73695900  0.16677900  1
  C  395  1  0.59548300  0.72613700  0.17561200  1
  C  396  1  0.59686400  0.70628100  0.19690900  1
  C  397  1  0.56529600  0.69763000  0.20898400  1
  C  398  1  0.49844500  0.70208400  0.24149500  1
  C  399  1  0.49782700  0.68116900  0.26203800  1
  C  400  1  0.50236000  0.64417000  0.22515700  1
  C  401  1  0.50080500  0.66459500  0.20415700  1
  C  402  1  0.50658000  0.61609000  0.21776300  1
  C  403  1  0.51010100  0.60822400  0.18995400  1
  C  404  1  0.50820000  0.62807700  0.16867900  1
  C  405  1  0.50305600  0.65598500  0.17614600  1
  C  406  1  0.49557800  0.73009400  0.25000100  1
  C  407  1  0.49049700  0.73760400  0.27791200  1
  C  408  1  0.48977200  0.71641000  0.29790900  1
  C  409  1  0.49399900  0.68863800  0.29013300  1
  C  422  1  0.49945500  0.69505600  0.21105300  1
  C  423  1  0.50040000  0.65138200  0.25494400  1
  C  426  1  0.49884700  0.73874100  0.16719200  1
  C  429  1  0.63041700  0.69318500  0.20500300  1
  C  432  1  0.36844800  0.69990100  0.21401000  1
  C  435  1  0.51420800  0.62020300  0.13928800  1
  C  438  1  0.48328300  0.76689300  0.28562000  1
  C  441  1  0.99979500  0.92653500  0.17840700  1
  C  442  1  0.97349400  0.93984700  0.16273400  1
  C  443  1  0.97279100  0.96912200  0.16150700  1
  C  444  1  0.99775900  0.98525800  0.17555700  1
  C  445  1  0.02378200  0.97171800  0.19098800  1
  C  446  1  0.02453300  0.94274300  0.19256300  1
  C  449  1  0.99560400  0.01456300  0.17596000  1
  C  450  1  0.96803600  0.02834300  0.18975300  1
  C  451  1  0.96849900  0.05755900  0.19153900  1
  C  452  1  0.99546600  0.07331000  0.17966000  1
  C  453  1  0.02269900  0.05933200  0.16603300  1
  C  454  1  0.02281600  0.03032400  0.16426600  1
  C  469  1  0.99979700  0.07361600  0.63263600  1
  C  470  1  0.97351000  0.06030800  0.64832700  1
  C  471  1  0.97280900  0.03103300  0.64955700  1
  C  472  1  0.99777500  0.01489800  0.63550100  1
  C  473  1  0.02381200  0.02843700  0.62008600  1
  C  474  1  0.02455500  0.05741100  0.61850200  1
  C  477  1  0.99562500  0.98559300  0.63511400  1
  C  478  1  0.96805500  0.97180700  0.62132700  1
  C  479  1  0.96850600  0.94259000  0.61956300  1
  C  480  1  0.99546900  0.92684300  0.63145300  1
  C  481  1  0.02271500  0.94082500  0.64506100  1
  C  482  1  0.02283000  0.96983500  0.64682200  1
  C  497  1  0.99980000  0.72721200  0.83202000  1
  C  498  1  0.97350200  0.74288300  0.84533700  1
  C  499  1  0.97280100  0.74410500  0.87461100  1
  C  500  1  0.99777000  0.73005300  0.89074300  1
  C  501  1  0.02379100  0.71462600  0.87720100  1
  C  502  1  0.02454100  0.71305500  0.84822600  1
  C  505  1  0.99561400  0.72964700  0.92004900  1
  C  506  1  0.96804400  0.71586000  0.93382800  1
  C  507  1  0.96851200  0.71407000  0.96304500  1
  C  508  1  0.99548200  0.72594300  0.97879400  1
  C  509  1  0.02271700  0.73957000  0.96481600  1
  C  510  1  0.02283300  0.74133700  0.93580800  1
  C  525  1  0.99976100  0.27298700  0.97909800  1
  C  526  1  0.97348700  0.25729300  0.96578200  1
  C  527  1  0.97280100  0.25606300  0.93650700  1
  C  528  1  0.99777200  0.27012100  0.92038200  1
  C  529  1  0.02379700  0.28554200  0.93392900  1
  C  530  1  0.02452400  0.28712600  0.96290400  1
  C  533  1  0.99563800  0.27050800  0.89107600  1
  C  534  1  0.96808600  0.28430600  0.87728000  1
  C  535  1  0.96855300  0.28606500  0.84806300  1
  C  536  1  0.99551600  0.27416100  0.83232600  1
  C  537  1  0.02274500  0.26054400  0.84631800  1
  C  538  1  0.02284400  0.25878500  0.87532800  1
  C  553  1  0.48910000  0.42660500  0.68069700  1
  C  554  1  0.46571000  0.44221800  0.66422600  1
  C  555  1  0.46910400  0.47137700  0.66327300  1
  C  556  1  0.49540400  0.48507800  0.67829500  1
  C  557  1  0.51833200  0.46936300  0.69469800  1
  C  558  1  0.51492200  0.44051200  0.69605200  1
  C  561  1  0.49742700  0.51430500  0.67874800  1
  C  562  1  0.47297500  0.53027300  0.69378800  1
  C  563  1  0.47752200  0.55925800  0.69539000  1
  C  564  1  0.50540600  0.57263900  0.68201000  1
  C  565  1  0.52959800  0.55642000  0.66726300  1
  C  566  1  0.52572900  0.52756900  0.66571900  1
  C  581  1  0.48908900  0.57355100  0.13036000  1
  C  582  1  0.46571800  0.55794000  0.14684900  1
  C  583  1  0.46910900  0.52878100  0.14780100  1
  C  584  1  0.49539400  0.51508000  0.13276400  1
  C  585  1  0.51832900  0.53079400  0.11636900  1
  C  586  1  0.51492200  0.55964300  0.11501200  1
  C  589  1  0.49742200  0.48585500  0.13232500  1
  C  590  1  0.47296200  0.46988200  0.11729500  1
  C  591  1  0.47749800  0.44089300  0.11570800  1
  C  592  1  0.50538300  0.42751600  0.12909300  1
  C  593  1  0.52958800  0.44373700  0.14382100  1
  C  594  1  0.52571900  0.47259000  0.14536000  1
  C  609  1  0.48914600  0.22493200  0.33208700  1
  C  610  1  0.46573600  0.24139300  0.34769000  1
  C  611  1  0.46911100  0.24234800  0.37685000  1
  C  612  1  0.49540900  0.22733400  0.39056200  1
  C  613  1  0.51836000  0.21094400  0.37485600  1
  C  614  1  0.51497200  0.20958800  0.34600300  1
  C  617  1  0.49741100  0.22688100  0.41979100  1
  C  618  1  0.47293100  0.21186000  0.43574700  1
  C  619  1  0.47745900  0.21024900  0.46473600  1
  C  620  1  0.50535700  0.22360300  0.47812700  1
  C  621  1  0.52957500  0.23833100  0.46192100  1
  C  622  1  0.52572400  0.23988400  0.43306800  1
  C  637  1  0.48907900  0.77525800  0.47902000  1
  C  638  1  0.46568400  0.75877700  0.46342000  1
  C  639  1  0.46905900  0.75782200  0.43425900  1
  C  640  1  0.49534700  0.77285000  0.42054700  1
  C  641  1  0.51830300  0.78923200  0.43625400  1
  C  642  1  0.51491200  0.79059200  0.46510400  1
  C  645  1  0.49735700  0.77328900  0.39131800  1
  C  646  1  0.47286300  0.78829000  0.37535400  1
  C  647  1  0.47738400  0.78988100  0.34636200  1
  C  648  1  0.50528900  0.77653200  0.33297800  1
  C  649  1  0.52952800  0.76183000  0.34919300  1
  C  650  1  0.52567200  0.76028600  0.37804500  1
  C  665  1  0.81514400  0.21294700  0.12007600  1
  C  666  1  0.78994100  0.19994000  0.13718400  1
  C  667  1  0.76274800  0.21572500  0.14901000  1
  C  668  1  0.75959000  0.24427600  0.14367000  1
  C  669  1  0.78397700  0.25696000  0.12604500  1
  C  670  1  0.81124400  0.24153100  0.11447100  1
  C  673  1  0.73319400  0.26022600  0.15650600  1
  C  674  1  0.73323000  0.26496200  0.18547000  1
  C  675  1  0.70718200  0.28199500  0.19714500  1
  C  676  1  0.68086800  0.29395500  0.18075700  1
  C  677  1  0.68133000  0.28923800  0.15197600  1
  C  678  1  0.70720200  0.27261000  0.13998500  1
  C  693  1  0.81515900  0.78719400  0.69103200  1
  C  694  1  0.78996000  0.80019600  0.67391800  1
  C  695  1  0.76277100  0.78441000  0.66208800  1
  C  696  1  0.75961400  0.75586100  0.66743100  1
  C  697  1  0.78399000  0.74317900  0.68506800  1
  C  698  1  0.81125700  0.75861200  0.69664200  1
  C  701  1  0.73321200  0.73990900  0.65460000  1
  C  702  1  0.73324600  0.73517500  0.62563600  1
  C  703  1  0.70718400  0.71815000  0.61396100  1
  C  704  1  0.68086600  0.70620200  0.63035100  1
  C  705  1  0.68133800  0.71090700  0.65913300  1
  C  706  1  0.70721800  0.72753300  0.67112100  1
  C  721  1  0.81515900  0.78555300  0.11841900  1
  C  722  1  0.78995700  0.76844300  0.10541300  1
  C  723  1  0.76276300  0.75661500  0.12119800  1
  C  724  1  0.75960600  0.76195700  0.14974900  1
  C  725  1  0.78399000  0.77958300  0.16243300  1
  C  726  1  0.81125700  0.79115900  0.14700200  1
  C  729  1  0.73321200  0.74911800  0.16570100  1
  C  730  1  0.73325100  0.72015300  0.17043400  1
  C  731  1  0.70720500  0.70847400  0.18746600  1
  C  732  1  0.68088900  0.72486000  0.19942900  1
  C  733  1  0.68135100  0.75364300  0.19471500  1
  C  734  1  0.70722300  0.76563600  0.17808700  1
  C  749  1  0.81515700  0.21456300  0.69265600  1
  C  750  1  0.78995400  0.23167100  0.70566300  1
  C  751  1  0.76276600  0.24350300  0.68987800  1
  C  752  1  0.75961100  0.23816800  0.66132500  1
  C  753  1  0.78399300  0.22053700  0.64864100  1
  C  754  1  0.81125900  0.20896100  0.66407200  1
  C  757  1  0.73320900  0.25100100  0.64537700  1
  C  758  1  0.73324100  0.27996500  0.64064700  1
  C  759  1  0.70718400  0.29164200  0.62362200  1
  C  760  1  0.68086600  0.27525200  0.61166800  1
  C  761  1  0.68134100  0.24646900  0.61637100  1
  C  762  1  0.70721800  0.23448000  0.63299700  1
  C  777  1  0.18363700  0.78579300  0.12125500  1
  C  778  1  0.20915100  0.79892100  0.13796800  1
  C  779  1  0.23629900  0.78315700  0.14988700  1
  C  780  1  0.23907800  0.75449400  0.14503300  1
  C  781  1  0.21434500  0.74166600  0.12782400  1
  C  782  1  0.18712000  0.75708000  0.11616400  1
  C  785  1  0.26544800  0.73859600  0.15796400  1
  C  786  1  0.26564600  0.73432700  0.18699900  1
  C  787  1  0.29168900  0.71737500  0.19879700  1
  C  788  1  0.31779200  0.70505500  0.18245800  1
  C  789  1  0.31708300  0.70930500  0.15360500  1
  C  790  1  0.29120300  0.72584000  0.14149500  1
  C  805  1  0.18361400  0.21435500  0.68986800  1
  C  806  1  0.20912700  0.20122900  0.67315100  1
  C  807  1  0.23626900  0.21699600  0.66123000  1
  C  808  1  0.23904600  0.24565900  0.66608600  1
  C  809  1  0.21432100  0.25848400  0.68330700  1
  C  810  1  0.18709600  0.24306500  0.69496200  1
  C  813  1  0.26542000  0.26155700  0.65316000  1
  C  814  1  0.26561700  0.26583200  0.62412600  1
  C  815  1  0.29167100  0.28277600  0.61233100  1
  C  816  1  0.31777900  0.29508200  0.62867100  1
  C  817  1  0.31706500  0.29083800  0.65752400  1
  C  818  1  0.29118000  0.27430300  0.66963100  1
  C  833  1  0.18362500  0.21574400  0.11983700  1
  C  834  1  0.20914100  0.23245800  0.10671300  1
  C  835  1  0.23628600  0.24437500  0.12248200  1
  C  836  1  0.23906100  0.23951800  0.15114400  1
  C  837  1  0.21432600  0.22230700  0.16396900  1
  C  838  1  0.18710400  0.21065000  0.14854900  1
  C  841  1  0.26543000  0.25244800  0.16704600  1
  C  842  1  0.26561400  0.28148000  0.17132600  1
  C  843  1  0.29165800  0.29327900  0.18827900  1
  C  844  1  0.31776900  0.27694100  0.20058900  1
  C  845  1  0.31706800  0.24808800  0.19633100  1
  C  846  1  0.29118800  0.23597900  0.17979500  1
  C  861  1  0.18361200  0.78440800  0.69125700  1
  C  862  1  0.20912500  0.76769100  0.70438100  1
  C  863  1  0.23626400  0.75576800  0.68861100  1
  C  864  1  0.23903800  0.76062300  0.65994900  1
  C  865  1  0.21431300  0.77784400  0.64712600  1
  C  866  1  0.18709100  0.78950100  0.66254500  1
  C  869  1  0.26540900  0.74769500  0.64404800  1
  C  870  1  0.26560100  0.71866100  0.63977600  1
  C  871  1  0.29165300  0.70686100  0.62283000  1
  C  872  1  0.31776600  0.72320000  0.61052400  1
  C  873  1  0.31705200  0.75205500  0.61476800  1
  C  874  1  0.29117200  0.76416400  0.63130300  1
  C  889  1  0.26574000  0.42888200  0.32073400  1
  C  890  1  0.26497800  0.44970500  0.34136800  1
  C  891  1  0.20055500  0.45650200  0.33395100  1
  C  892  1  0.20031100  0.43557700  0.31341300  1
  C  893  1  0.16810400  0.42873100  0.30078500  1
  C  894  1  0.13665200  0.44196000  0.30802700  1
  C  895  1  0.13794700  0.46309800  0.32806800  1
  C  896  1  0.16937100  0.47021900  0.34088600  1
  C  897  1  0.29590600  0.45709900  0.35521700  1
  C  898  1  0.32758200  0.44444700  0.34852100  1
  C  899  1  0.32938900  0.42411100  0.32768900  1
  C  900  1  0.29819600  0.41643000  0.31432000  1
  C  901  1  0.22715200  0.39025100  0.31217900  1
  C  902  1  0.22738000  0.36962400  0.29133500  1
  C  903  1  0.24018400  0.40576900  0.25487600  1
  C  904  1  0.23953200  0.42688200  0.27522500  1
  C  905  1  0.24729600  0.41264800  0.22703800  1
  C  906  1  0.25416300  0.44006800  0.21926400  1
  C  907  1  0.25351100  0.46146100  0.23903100  1
  C  908  1  0.24605700  0.45452200  0.26675800  1
  C  909  1  0.22008100  0.38207200  0.33982100  1
  C  910  1  0.21283200  0.35436700  0.34701200  1
  C  911  1  0.21328400  0.33428900  0.32590000  1
  C  912  1  0.22069700  0.34178700  0.29848900  1
  C  925  1  0.23317900  0.42039500  0.30538900  1
  C  926  1  0.23405000  0.37631100  0.26187600  1
  C  929  1  0.23262300  0.46449400  0.34889000  1
  C  932  1  0.36337700  0.41159100  0.31953500  1
  C  935  1  0.10291700  0.43332100  0.29539300  1
  C  938  1  0.26216100  0.49039000  0.23105200  1
  C  941  1  0.20330800  0.34672000  0.37588800  1
  C  944  1  0.26573900  0.02604160  0.90379800  1
  C  945  1  0.26497500  0.00522160  0.88316200  1
  C  946  1  0.20055500  0.99841700  0.89059000  1
  C  947  1  0.20031400  0.01934260  0.91112900  1
  C  948  1  0.16810600  0.02618660  0.92375900  1
  C  949  1  0.13665400  0.01295460  0.91652000  1
  C  950  1  0.13795300  0.99180700  0.89648900  1
  C  951  1  0.16937100  0.98469800  0.88365900  1
  C  952  1  0.29590100  0.99783200  0.86930800  1
  C  953  1  0.32757700  0.01048660  0.87600200  1
  C  954  1  0.32938600  0.03081860  0.89683400  1
  C  955  1  0.29819600  0.03849660  0.91021000  1
  C  956  1  0.22714900  0.06467060  0.91235900  1
  C  957  1  0.22738300  0.08529860  0.93320100  1
  C  958  1  0.24019800  0.04915460  0.96965900  1
  C  959  1  0.23954000  0.02804060  0.94931200  1
  C  960  1  0.24731500  0.04227960  0.99749700  1
  C  961  1  0.25418800  0.01485860  0.00527136  1
  C  962  1  0.25353100  0.99346400  0.98550500  1
  C  963  1  0.24606400  0.00040160  0.95777900  1
  C  964  1  0.22006300  0.07284760  0.88471900  1
  C  965  1  0.21282900  0.10055600  0.87752600  1
  C  966  1  0.21329900  0.12063600  0.89863500  1
  C  967  1  0.22069900  0.11313600  0.92604700  1
  C  980  1  0.23317900  0.03452760  0.91914700  1
  C  981  1  0.23405600  0.07861260  0.96265900  1
  C  984  1  0.23262000  0.99043200  0.87564400  1
  C  987  1  0.36337400  0.04334160  0.90498500  1
  C  990  1  0.10292000  0.02159560  0.92915200  1
  C  993  1  0.26218300  0.96453700  0.99348400  1
  C  996  1  0.20330500  0.10820400  0.84865000  1
  C  999  1  0.26575400  0.01897860  0.31369300  1
  C  1000  1  0.26498900  0.99835100  0.33452200  1
  C  1001  1  0.20056600  0.00576760  0.34131100  1
  C  1002  1  0.20032400  0.02630060  0.32038000  1
  C  1003  1  0.16811900  0.03892860  0.31353100  1
  C  1004  1  0.13666500  0.03169160  0.32675900  1
  C  1005  1  0.13795800  0.01165860  0.34790600  1
  C  1006  1  0.16937600  0.99882900  0.35501900  1
  C  1007  1  0.29591700  0.98450600  0.34192300  1
  C  1008  1  0.32759200  0.99118900  0.32926100  1
  C  1009  1  0.32940500  0.01202660  0.30893400  1
  C  1010  1  0.29821200  0.02539060  0.30124300  1
  C  1011  1  0.22717300  0.02752660  0.27505800  1
  C  1012  1  0.22740400  0.04836660  0.25442600  1
  C  1013  1  0.24020700  0.08483060  0.29056600  1
  C  1014  1  0.23954700  0.06448860  0.31168300  1
  C  1015  1  0.24732300  0.11267100  0.29743900  1
  C  1016  1  0.25418000  0.12045000  0.32486100  1
  C  1017  1  0.25352600  0.10068800  0.34625700  1
  C  1018  1  0.24606300  0.07296160  0.33932200  1
  C  1019  1  0.22010000  0.99988500  0.26688300  1
  C  1020  1  0.21285000  0.99268900  0.23917800  1
  C  1021  1  0.21329900  0.01379860  0.21909800  1
  C  1022  1  0.22072300  0.04120860  0.22659100  1
  C  1035  1  0.23319400  0.03432260  0.30520000  1
  C  1036  1  0.23407800  0.07782560  0.26110800  1
  C  1039  1  0.23263100  0.99082900  0.34930600  1
  C  1042  1  0.36339500  0.02018360  0.29642200  1
  C  1045  1  0.10293500  0.04432960  0.31812100  1
  C  1048  1  0.26217800  0.10867100  0.37518400  1
  C  1051  1  0.20332600  0.96381200  0.23153500  1
  C  1054  1  0.26574100  0.43591800  0.91084300  1
  C  1055  1  0.26497900  0.45655000  0.89001700  1
  C  1056  1  0.20055800  0.44912400  0.88321400  1
  C  1057  1  0.20031400  0.42859000  0.90414400  1
  C  1058  1  0.16810900  0.41595700  0.91098600  1
  C  1059  1  0.13665700  0.42319100  0.89775000  1
  C  1060  1  0.13795300  0.44323500  0.87661400  1
  C  1061  1  0.16937100  0.45606200  0.86950100  1
  C  1062  1  0.29590400  0.47040300  0.88262900  1
  C  1063  1  0.32757800  0.46371800  0.89529000  1
  C  1064  1  0.32939000  0.44287800  0.91561400  1
  C  1065  1  0.29819900  0.42950400  0.92329300  1
  C  1066  1  0.22715200  0.42735900  0.94947000  1
  C  1067  1  0.22738600  0.40651600  0.97010000  1
  C  1068  1  0.24019500  0.37005800  0.93395500  1
  C  1069  1  0.23953900  0.39040500  0.91284200  1
  C  1070  1  0.24730500  0.34221900  0.92707800  1
  C  1071  1  0.25418200  0.33444600  0.89965800  1
  C  1072  1  0.25353500  0.35421200  0.87826500  1
  C  1073  1  0.24606500  0.38193800  0.88520200  1
  C  1074  1  0.22007400  0.45500100  0.95764900  1
  C  1075  1  0.21285000  0.46219500  0.98535700  1
  C  1076  1  0.21329900  0.44108300  0.00543536  1
  C  1077  1  0.22069400  0.41366900  0.99793300  1
  C  1090  1  0.23318100  0.42056900  0.91932700  1
  C  1091  1  0.23406200  0.37705800  0.96341400  1
  C  1094  1  0.23262500  0.46406600  0.87522500  1
  C  1097  1  0.36337900  0.43472300  0.92813300  1
  C  1100  1  0.10292800  0.41054600  0.90637800  1
  C  1103  1  0.26220500  0.34623500  0.84934000  1
  C  1106  1  0.20335400  0.49107500  0.99301000  1
  C  1109  1  0.76621700  0.93334200  0.81963400  1
  C  1110  1  0.76556800  0.95469800  0.83971700  1
  C  1111  1  0.69976300  0.95428600  0.83954900  1
  C  1112  1  0.69968600  0.93411500  0.81827000  1
  C  1113  1  0.66721600  0.92397600  0.80870300  1
  C  1114  1  0.63535900  0.93242200  0.82043600  1
  C  1115  1  0.63617600  0.95236400  0.84167600  1
  C  1116  1  0.66788300  0.96346200  0.85078200  1
  C  1117  1  0.79716500  0.96624900  0.84912400  1
  C  1118  1  0.82915200  0.95738500  0.83834000  1
  C  1119  1  0.83053100  0.93610000  0.81847100  1
  C  1120  1  0.79896000  0.92403200  0.80981200  1
  C  1121  1  0.73211700  0.89151400  0.81427800  1
  C  1122  1  0.73149600  0.87097100  0.79336500  1
  C  1123  1  0.73600600  0.90784800  0.75636000  1
  C  1124  1  0.73445900  0.92885000  0.77678500  1
  C  1125  1  0.74021800  0.91523800  0.72828000  1
  C  1126  1  0.74373100  0.94304300  0.72040800  1
  C  1127  1  0.74185600  0.96432000  0.74026300  1
  C  1128  1  0.73667900  0.95686200  0.76816900  1
  C  1129  1  0.72924500  0.88301400  0.84228800  1
  C  1130  1  0.72422600  0.85509900  0.84980800  1
  C  1131  1  0.72348600  0.83510000  0.82861600  1
  C  1132  1  0.72767400  0.84287600  0.80083800  1
  C  1145  1  0.73311600  0.92195600  0.80724600  1
  C  1146  1  0.73405900  0.87806100  0.76357600  1
  C  1149  1  0.73250900  0.96582100  0.85092400  1
  C  1152  1  0.86408900  0.92800700  0.80538200  1
  C  1155  1  0.60209900  0.91901900  0.81208300  1
  C  1158  1  0.74789300  0.99370400  0.73238100  1
  C  1161  1  0.71707700  0.84738100  0.87910500  1
  C  1164  1  0.76622000  0.52158300  0.40488500  1
  C  1165  1  0.76557300  0.50022200  0.38480900  1
  C  1166  1  0.69976900  0.50063300  0.38498000  1
  C  1167  1  0.69968800  0.52080400  0.40626000  1
  C  1168  1  0.66722100  0.53093300  0.41583800  1
  C  1169  1  0.63536600  0.52249700  0.40409200  1
  C  1170  1  0.63618200  0.50256600  0.38284400  1
  C  1171  1  0.66788600  0.49145300  0.37375100  1
  C  1172  1  0.79716800  0.48867500  0.37539600  1
  C  1173  1  0.82915000  0.49752000  0.38620300  1
  C  1174  1  0.83053400  0.51882400  0.40605500  1
  C  1175  1  0.79896200  0.53089400  0.41470600  1
  C  1176  1  0.73211100  0.56340700  0.41024700  1
  C  1177  1  0.73149900  0.58395300  0.43116000  1
  C  1178  1  0.73603000  0.54707500  0.46816500  1
  C  1179  1  0.73446900  0.52607500  0.44774000  1
  C  1180  1  0.74025900  0.53968700  0.49624500  1
  C  1181  1  0.74379800  0.51188200  0.50411300  1
  C  1182  1  0.74189300  0.49060300  0.48426200  1
  C  1183  1  0.73669900  0.49806400  0.45635600  1
  C  1184  1  0.72923200  0.57191000  0.38223800  1
  C  1185  1  0.72421000  0.59982200  0.37471900  1
  C  1186  1  0.72347500  0.61982100  0.39591200  1
  C  1187  1  0.72767100  0.61204700  0.42368900  1
  C  1200  1  0.73311900  0.53296500  0.41727900  1
  C  1201  1  0.73407200  0.57686200  0.46094900  1
  C  1204  1  0.73251400  0.48909600  0.37360600  1
  C  1207  1  0.86408600  0.52692100  0.41914600  1
  C  1210  1  0.60210500  0.53589200  0.41245300  1
  C  1213  1  0.74792400  0.46121500  0.49213600  1
  C  1216  1  0.71705100  0.60754300  0.34542400  1
  C  1219  1  0.76622700  0.52006600  0.81814400  1
  C  1220  1  0.76557600  0.49999000  0.83950600  1
  C  1221  1  0.69977400  0.50015300  0.83908800  1
  C  1222  1  0.69969600  0.52144100  0.81892500  1
  C  1223  1  0.66722600  0.53101600  0.80879000  1
  C  1224  1  0.63537200  0.51926800  0.81722400  1
  C  1225  1  0.63618700  0.49801400  0.83714900  1
  C  1226  1  0.66789100  0.48892100  0.84826200  1
  C  1227  1  0.79717300  0.49058500  0.85105700  1
  C  1228  1  0.82915700  0.50137900  0.84220100  1
  C  1229  1  0.83053900  0.52123400  0.82090200  1
  C  1230  1  0.79896700  0.52988900  0.80883400  1
  C  1231  1  0.73212200  0.52543200  0.77632000  1
  C  1232  1  0.73149600  0.54634500  0.75577500  1
  C  1233  1  0.73603200  0.58334700  0.79265200  1
  C  1234  1  0.73447400  0.56292200  0.81365400  1
  C  1235  1  0.74025200  0.61142700  0.80004400  1
  C  1236  1  0.74377500  0.61929400  0.82785100  1
  C  1237  1  0.74186700  0.59944400  0.84913000  1
  C  1238  1  0.73672000  0.57153500  0.84166400  1
  C  1239  1  0.72924700  0.49742100  0.76781800  1
  C  1240  1  0.72420000  0.48990500  0.73990500  1
  C  1241  1  0.72345700  0.51109700  0.71990600  1
  C  1242  1  0.72766300  0.53887300  0.72768000  1
  C  1255  1  0.73312700  0.53246100  0.80676200  1
  C  1256  1  0.73406900  0.57613300  0.76286700  1
  C  1259  1  0.73251900  0.48878000  0.85062500  1
  C  1262  1  0.86409100  0.53432100  0.81279700  1
  C  1265  1  0.60211500  0.52762800  0.80381800  1
  C  1268  1  0.74787200  0.60732100  0.87852100  1
  C  1271  1  0.71702300  0.46060900  0.73219500  1
  C  1274  1  0.76624600  0.93483900  0.40638600  1
  C  1275  1  0.76559600  0.95492100  0.38503000  1
  C  1276  1  0.69979200  0.95474700  0.38543700  1
  C  1277  1  0.69971400  0.93346000  0.40560000  1
  C  1278  1  0.66724700  0.92387700  0.41572800  1
  C  1279  1  0.63539200  0.93563700  0.40730900  1
  C  1280  1  0.63620500  0.95688500  0.38737800  1
  C  1281  1  0.66790900  0.96598000  0.37626500  1
  C  1282  1  0.79719400  0.96434300  0.37349100  1
  C  1283  1  0.82917300  0.95352100  0.38232400  1
  C  1284  1  0.83055400  0.93366500  0.40362100  1
  C  1285  1  0.79898600  0.92501400  0.41569600  1
  C  1286  1  0.73213500  0.92946800  0.44820700  1
  C  1287  1  0.73151700  0.90855300  0.46875000  1
  C  1288  1  0.73605000  0.87155400  0.43186900  1
  C  1289  1  0.73449500  0.89197900  0.41086900  1
  C  1290  1  0.74027000  0.84347400  0.42447500  1
  C  1291  1  0.74379100  0.83560800  0.39666600  1
  C  1292  1  0.74189000  0.85546100  0.37539100  1
  C  1293  1  0.73674600  0.88336900  0.38285800  1
  C  1294  1  0.72926800  0.95747800  0.45671300  1
  C  1295  1  0.72418700  0.96498800  0.48462400  1
  C  1296  1  0.72346200  0.94379400  0.50462100  1
  C  1297  1  0.72768900  0.91602200  0.49684500  1
  C  1310  1  0.73314500  0.92244000  0.41776500  1
  C  1311  1  0.73409000  0.87876600  0.46165600  1
  C  1314  1  0.73253700  0.96612500  0.37390400  1
  C  1317  1  0.86410700  0.92056900  0.41171500  1
  C  1320  1  0.60213800  0.92728500  0.42072200  1
  C  1323  1  0.74789800  0.84758700  0.34600000  1
  C  1326  1  0.71697300  0.99427700  0.49233200  1
  C  1329  1  0.23348500  0.15391900  0.38511900  1
  C  1330  1  0.20718400  0.16723100  0.36944600  1
  C  1331  1  0.20648100  0.19650600  0.36821900  1
  C  1332  1  0.23144900  0.21264200  0.38226900  1
  C  1333  1  0.25747200  0.19910200  0.39770000  1
  C  1334  1  0.25822300  0.17012700  0.39927500  1
  C  1337  1  0.22929400  0.24194700  0.38267200  1
  C  1338  1  0.20172600  0.25572700  0.39646500  1
  C  1339  1  0.20218900  0.28494300  0.39825100  1
  C  1340  1  0.22915600  0.30069400  0.38637200  1
  C  1341  1  0.25638900  0.28671600  0.37274500  1
  C  1342  1  0.25650600  0.25770800  0.37097800  1
  C  1357  1  0.23348700  0.30100000  0.83934800  1
  C  1358  1  0.20720000  0.28769200  0.85503900  1
  C  1359  1  0.20649900  0.25841700  0.85626900  1
  C  1360  1  0.23146500  0.24228200  0.84221300  1
  C  1361  1  0.25750200  0.25582100  0.82679800  1
  C  1362  1  0.25824500  0.28479500  0.82521400  1
  C  1365  1  0.22931500  0.21297700  0.84182600  1
  C  1366  1  0.20174500  0.19919100  0.82803900  1
  C  1367  1  0.20219600  0.16997400  0.82627500  1
  C  1368  1  0.22915900  0.15422700  0.83816500  1
  C  1369  1  0.25640500  0.16820900  0.85177300  1
  C  1370  1  0.25652000  0.19721900  0.85353400  1
  C  1385  1  0.23349000  0.95459600  0.03873240  1
  C  1386  1  0.20719200  0.97026700  0.05204940  1
  C  1387  1  0.20649100  0.97148900  0.08132340  1
  C  1388  1  0.23146000  0.95743700  0.09745540  1
  C  1389  1  0.25748100  0.94201000  0.08391340  1
  C  1390  1  0.25823100  0.94043900  0.05493840  1
  C  1393  1  0.22930400  0.95703100  0.12676100  1
  C  1394  1  0.20173400  0.94324400  0.14054000  1
  C  1395  1  0.20220200  0.94145400  0.16975700  1
  C  1396  1  0.22917200  0.95332700  0.18550600  1
  C  1397  1  0.25640700  0.96695400  0.17152800  1
  C  1398  1  0.25652300  0.96872100  0.14252000  1
  C  1413  1  0.23345100  0.50037100  0.18581000  1
  C  1414  1  0.20717700  0.48467700  0.17249400  1
  C  1415  1  0.20649100  0.48344700  0.14321900  1
  C  1416  1  0.23146200  0.49750500  0.12709400  1
  C  1417  1  0.25748700  0.51292600  0.14064100  1
  C  1418  1  0.25821400  0.51451000  0.16961600  1
  C  1421  1  0.22932800  0.49789200  0.09778840  1
  C  1422  1  0.20177600  0.51169000  0.08399240  1
  C  1423  1  0.20224300  0.51344900  0.05477540  1
  C  1424  1  0.22920600  0.50154500  0.03903840  1
  C  1425  1  0.25643500  0.48792800  0.05303040  1
  C  1426  1  0.25653400  0.48616900  0.08204040  1
  C  1441  1  0.72279000  0.65398900  0.88740900  1
  C  1442  1  0.69940000  0.66960200  0.87093800  1
  C  1443  1  0.70279400  0.69876100  0.86998500  1
  C  1444  1  0.72909400  0.71246200  0.88500700  1
  C  1445  1  0.75202200  0.69674700  0.90141000  1
  C  1446  1  0.74861200  0.66789600  0.90276400  1
  C  1449  1  0.73111700  0.74168900  0.88546000  1
  C  1450  1  0.70666500  0.75765700  0.90050000  1
  C  1451  1  0.71121200  0.78664200  0.90210200  1
  C  1452  1  0.73909600  0.80002300  0.88872200  1
  C  1453  1  0.76328800  0.78380400  0.87397500  1
  C  1454  1  0.75941900  0.75495300  0.87243100  1
  C  1469  1  0.72277900  0.80093500  0.33707200  1
  C  1470  1  0.69940800  0.78532400  0.35356100  1
  C  1471  1  0.70279900  0.75616500  0.35451300  1
  C  1472  1  0.72908400  0.74246400  0.33947600  1
  C  1473  1  0.75201900  0.75817800  0.32308100  1
  C  1474  1  0.74861200  0.78702700  0.32172400  1
  C  1477  1  0.73111200  0.71323900  0.33903700  1
  C  1478  1  0.70665200  0.69726600  0.32400700  1
  C  1479  1  0.71118800  0.66827700  0.32242000  1
  C  1480  1  0.73907300  0.65490000  0.33580500  1
  C  1481  1  0.76327800  0.67112100  0.35053300  1
  C  1482  1  0.75940900  0.69997400  0.35207200  1
  C  1497  1  0.72283600  0.45231600  0.53879900  1
  C  1498  1  0.69942600  0.46877700  0.55440200  1
  C  1499  1  0.70280100  0.46973200  0.58356200  1
  C  1500  1  0.72909900  0.45471800  0.59727400  1
  C  1501  1  0.75205000  0.43832800  0.58156800  1
  C  1502  1  0.74866200  0.43697200  0.55271500  1
  C  1505  1  0.73110100  0.45426500  0.62650300  1
  C  1506  1  0.70662100  0.43924400  0.64245900  1
  C  1507  1  0.71114900  0.43763300  0.67144800  1
  C  1508  1  0.73904700  0.45098700  0.68483900  1
  C  1509  1  0.76326500  0.46571500  0.66863300  1
  C  1510  1  0.75941400  0.46726800  0.63978000  1
  C  1525  1  0.72276900  0.00264160  0.68573200  1
  C  1526  1  0.69937400  0.98616100  0.67013200  1
  C  1527  1  0.70274900  0.98520600  0.64097100  1
  C  1528  1  0.72903700  0.00023360  0.62725900  1
  C  1529  1  0.75199300  0.01661560  0.64296600  1
  C  1530  1  0.74860200  0.01797560  0.67181600  1
  C  1533  1  0.73104700  0.00067260  0.59803000  1
  C  1534  1  0.70655300  0.01567360  0.58206600  1
  C  1535  1  0.71107400  0.01726460  0.55307400  1
  C  1536  1  0.73897900  0.00391560  0.53969000  1
  C  1537  1  0.76321800  0.98921400  0.55590500  1
  C  1538  1  0.75936200  0.98767000  0.58475700  1
  C  1553  1  0.04883380  0.44033100  0.32678800  1
  C  1554  1  0.02363080  0.42732400  0.34389600  1
  C  1555  1  0.99643800  0.44310900  0.35572200  1
  C  1556  1  0.99328000  0.47166000  0.35038200  1
  C  1557  1  0.01766680  0.48434400  0.33275700  1
  C  1558  1  0.04493380  0.46891500  0.32118300  1
  C  1561  1  0.96688400  0.48761000  0.36321800  1
  C  1562  1  0.96692000  0.49234600  0.39218200  1
  C  1563  1  0.94087200  0.50937900  0.40385700  1
  C  1564  1  0.91455800  0.52133900  0.38746900  1
  C  1565  1  0.91502000  0.51662200  0.35868800  1
  C  1566  1  0.94089200  0.49999400  0.34669700  1
  C  1581  1  0.04884880  0.01457760  0.89774400  1
  C  1582  1  0.02364980  0.02757960  0.88063000  1
  C  1583  1  0.99646100  0.01179360  0.86880000  1
  C  1584  1  0.99330400  0.98324500  0.87414300  1
  C  1585  1  0.01767980  0.97056300  0.89178000  1
  C  1586  1  0.04494680  0.98599600  0.90335400  1
  C  1589  1  0.96690200  0.96729300  0.86131200  1
  C  1590  1  0.96693600  0.96255900  0.83234800  1
  C  1591  1  0.94087400  0.94553400  0.82067300  1
  C  1592  1  0.91455600  0.93358600  0.83706300  1
  C  1593  1  0.91502800  0.93829100  0.86584500  1
  C  1594  1  0.94090800  0.95491700  0.87783300  1
  C  1609  1  0.04884880  0.01293660  0.32513100  1
  C  1610  1  0.02364680  0.99582700  0.31212500  1
  C  1611  1  0.99645300  0.98399900  0.32791000  1
  C  1612  1  0.99329600  0.98934100  0.35646100  1
  C  1613  1  0.01767980  0.00696660  0.36914500  1
  C  1614  1  0.04494680  0.01854260  0.35371400  1
  C  1617  1  0.96690200  0.97650200  0.37241300  1
  C  1618  1  0.96694100  0.94753700  0.37714600  1
  C  1619  1  0.94089500  0.93585800  0.39417800  1
  C  1620  1  0.91457900  0.95224400  0.40614100  1
  C  1621  1  0.91504100  0.98102700  0.40142700  1
  C  1622  1  0.94091300  0.99302000  0.38479900  1
  C  1637  1  0.04884680  0.44194700  0.89936800  1
  C  1638  1  0.02364380  0.45905500  0.91237500  1
  C  1639  1  0.99645600  0.47088700  0.89659000  1
  C  1640  1  0.99330100  0.46555200  0.86803700  1
  C  1641  1  0.01768280  0.44792100  0.85535300  1
  C  1642  1  0.04494880  0.43634500  0.87078400  1
  C  1645  1  0.96689900  0.47838500  0.85208900  1
  C  1646  1  0.96693100  0.50734900  0.84735900  1
  C  1647  1  0.94087400  0.51902600  0.83033400  1
  C  1648  1  0.91455600  0.50263600  0.81838000  1
  C  1649  1  0.91503100  0.47385300  0.82308300  1
  C  1650  1  0.94090800  0.46186400  0.83970900  1
  C  1665  1  0.41732700  0.01317660  0.32796700  1
  C  1666  1  0.44284100  0.02630460  0.34468000  1
  C  1667  1  0.46998900  0.01054060  0.35659900  1
  C  1668  1  0.47276800  0.98187800  0.35174500  1
  C  1669  1  0.44803500  0.96905000  0.33453600  1
  C  1670  1  0.42081000  0.98446400  0.32287600  1
  C  1673  1  0.49913800  0.96598000  0.36467600  1
  C  1674  1  0.49933600  0.96171100  0.39371100  1
  C  1675  1  0.52537900  0.94475900  0.40550900  1
  C  1676  1  0.55148200  0.93243900  0.38917000  1
  C  1677  1  0.55077300  0.93668900  0.36031700  1
  C  1678  1  0.52489300  0.95322400  0.34820700  1
  C  1693  1  0.41730400  0.44173900  0.89658000  1
  C  1694  1  0.44281700  0.42861300  0.87986300  1
  C  1695  1  0.46995900  0.44438000  0.86794200  1
  C  1696  1  0.47273600  0.47304300  0.87279800  1
  C  1697  1  0.44801100  0.48586800  0.89001900  1
  C  1698  1  0.42078600  0.47044900  0.90167400  1
  C  1701  1  0.49911000  0.48894100  0.85987200  1
  C  1702  1  0.49930700  0.49321600  0.83083800  1
  C  1703  1  0.52536100  0.51016000  0.81904300  1
  C  1704  1  0.55146900  0.52246600  0.83538300  1
  C  1705  1  0.55075500  0.51822200  0.86423600  1
  C  1706  1  0.52487000  0.50168700  0.87634300  1
  C  1721  1  0.41731500  0.44312800  0.32654900  1
  C  1722  1  0.44283100  0.45984200  0.31342500  1
  C  1723  1  0.46997600  0.47175900  0.32919400  1
  C  1724  1  0.47275100  0.46690200  0.35785600  1
  C  1725  1  0.44801600  0.44969100  0.37068100  1
  C  1726  1  0.42079400  0.43803400  0.35526100  1
  C  1729  1  0.49912000  0.47983200  0.37375800  1
  C  1730  1  0.49930400  0.50886400  0.37803800  1
  C  1731  1  0.52534800  0.52066300  0.39499100  1
  C  1732  1  0.55145900  0.50432500  0.40730100  1
  C  1733  1  0.55075800  0.47547200  0.40304300  1
  C  1734  1  0.52487800  0.46336300  0.38650700  1
  C  1749  1  0.41730200  0.01179160  0.89796900  1
  C  1750  1  0.44281500  0.99507500  0.91109300  1
  C  1751  1  0.46995400  0.98315200  0.89532300  1
  C  1752  1  0.47272800  0.98800700  0.86666100  1
  C  1753  1  0.44800300  0.00522760  0.85383800  1
  C  1754  1  0.42078100  0.01688460  0.86925700  1
  C  1757  1  0.49909900  0.97507900  0.85076000  1
  C  1758  1  0.49929100  0.94604500  0.84648800  1
  C  1759  1  0.52534300  0.93424500  0.82954200  1
  C  1760  1  0.55145600  0.95058400  0.81723600  1
  C  1761  1  0.55074200  0.97943900  0.82148000  1
  C  1762  1  0.52486200  0.99154800  0.83801500  1
  N  459  1  0.94135900  0.01272500  0.20250000  1
  N  460  1  0.94823800  0.92361400  0.14905900  1
  N  465  1  0.99590300  0.10233400  0.18391800  1
  N  467  1  0.00109700  0.89753700  0.18269900  1
  N  487  1  0.94138800  0.98742200  0.60855800  1
  N  488  1  0.94825300  0.07654100  0.66200100  1
  N  493  1  0.99590300  0.89781800  0.62719500  1
  N  495  1  0.00112100  0.10262000  0.62838300  1
  N  515  1  0.94136700  0.70311400  0.91821100  1
  N  516  1  0.94824600  0.75655900  0.82910600  1
  N  521  1  0.99592100  0.72168500  0.00782000  1
  N  523  1  0.00110300  0.72292300  0.80302200  1
  N  543  1  0.94141900  0.29708500  0.89288500  1
  N  544  1  0.94822500  0.24361300  0.98200700  1
  N  549  1  0.99596500  0.27841500  0.80330000  1
  N  551  1  0.00107100  0.27723900  0.00810500  1
  N  571  1  0.44520200  0.51695700  0.70761700  1
  N  572  1  0.43930800  0.42839100  0.64933500  1
  N  577  1  0.50958400  0.60158500  0.68546400  1
  N  579  1  0.48669800  0.39753500  0.68424600  1
  N  599  1  0.44519500  0.48319700  0.10345700  1
  N  600  1  0.43932400  0.57176900  0.16175000  1
  N  605  1  0.50955500  0.39857100  0.12563500  1
  N  607  1  0.48671100  0.60262500  0.12684200  1
  N  627  1  0.44515000  0.19805100  0.42242000  1
  N  628  1  0.43933200  0.25627400  0.33385200  1
  N  633  1  0.50951600  0.22013400  0.50707300  1
  N  635  1  0.48675800  0.22137700  0.30301500  1
  N  655  1  0.44507800  0.80209800  0.38867400  1
  N  656  1  0.43928700  0.74389000  0.47725700  1
  N  661  1  0.50944900  0.78000300  0.30403400  1
  N  663  1  0.48671100  0.77878100  0.50809400  1
  N  683  1  0.75985500  0.25342900  0.20206400  1
  N  684  1  0.79267800  0.17122800  0.14244900  1
  N  689  1  0.65647900  0.31191900  0.19343600  1
  N  691  1  0.84253200  0.19638600  0.10888600  1
  N  711  1  0.75987600  0.74669500  0.60904100  1
  N  712  1  0.79269400  0.82890900  0.66864900  1
  N  717  1  0.65647900  0.68823700  0.61766700  1
  N  719  1  0.84253700  0.80376000  0.70223100  1
  N  739  1  0.75987600  0.70356000  0.15889700  1
  N  740  1  0.79269100  0.76317800  0.07670100  1
  N  745  1  0.65649900  0.71217800  0.21738900  1
  N  747  1  0.84254500  0.79674400  0.10185800  1
  N  767  1  0.75987100  0.29656000  0.65217200  1
  N  768  1  0.79268100  0.23692800  0.73437700  1
  N  773  1  0.65648100  0.28793600  0.59370300  1
  N  775  1  0.84253200  0.20335900  0.70922200  1
  N  795  1  0.23926200  0.74625500  0.20355700  1
  N  796  1  0.20677900  0.82774100  0.14273100  1
  N  801  1  0.34224900  0.68725500  0.19529100  1
  N  803  1  0.15633800  0.80235800  0.10995900  1
  N  823  1  0.23922600  0.25391700  0.60756800  1
  N  824  1  0.20676100  0.17240900  0.66838900  1
  N  829  1  0.34223300  0.31288800  0.61583700  1
  N  831  1  0.15632700  0.19778100  0.70117300  1
  N  851  1  0.23922800  0.29804000  0.15940500  1
  N  852  1  0.20677400  0.23722500  0.07789400  1
  N  857  1  0.34223100  0.28977200  0.21838900  1
  N  859  1  0.15632800  0.20445000  0.10326600  1
  N  879  1  0.23920900  0.70210300  0.65169100  1
  N  880  1  0.20676200  0.76292800  0.73320100  1
  N  885  1  0.34221800  0.71036300  0.59272200  1
  N  887  1  0.15632700  0.79571700  0.70783100  1
  N  1347  1  0.17504900  0.24010900  0.40921200  1
  N  1348  1  0.18192800  0.15099800  0.35577100  1
  N  1353  1  0.22959300  0.32971800  0.39063000  1
  N  1355  1  0.23478700  0.12492100  0.38941100  1
  N  1375  1  0.17507800  0.21480600  0.81527000  1
  N  1376  1  0.18194300  0.30392500  0.86871300  1
  N  1381  1  0.22959300  0.12520200  0.83390700  1
  N  1383  1  0.23481100  0.33000400  0.83509500  1
  N  1403  1  0.17505700  0.93049800  0.12492300  1
  N  1404  1  0.18193600  0.98394300  0.03581840  1
  N  1409  1  0.22961100  0.94906900  0.21453200  1
  N  1411  1  0.23479300  0.95030700  0.00973436  1
  N  1431  1  0.17510900  0.52446900  0.09959740  1
  N  1432  1  0.18191500  0.47099700  0.18871900  1
  N  1437  1  0.22965500  0.50579900  0.01001240  1
  N  1439  1  0.23476100  0.50462300  0.21481700  1
  N  1459  1  0.67889200  0.74434100  0.91432900  1
  N  1460  1  0.67299800  0.65577500  0.85604700  1
  N  1465  1  0.74327400  0.82896900  0.89217600  1
  N  1467  1  0.72038800  0.62491900  0.89095800  1
  N  1487  1  0.67888500  0.71058100  0.31016900  1
  N  1488  1  0.67301400  0.79915300  0.36846200  1
  N  1493  1  0.74324500  0.62595500  0.33234700  1
  N  1495  1  0.72040100  0.83000900  0.33355400  1
  N  1515  1  0.67884000  0.42543500  0.62913200  1
  N  1516  1  0.67302200  0.48365800  0.54056400  1
  N  1521  1  0.74320600  0.44751800  0.71378500  1
  N  1523  1  0.72044800  0.44876100  0.50972700  1
  N  1543  1  0.67876800  0.02948160  0.59538600  1
  N  1544  1  0.67297700  0.97127400  0.68396900  1
  N  1549  1  0.74313900  0.00738660  0.51074600  1
  N  1551  1  0.72040100  0.00616460  0.71480600  1
  N  1571  1  0.99354500  0.48081300  0.40877600  1
  N  1572  1  0.02636780  0.39861200  0.34916100  1
  N  1577  1  0.89016900  0.53930300  0.40014800  1
  N  1579  1  0.07622180  0.42377000  0.31559800  1
  N  1599  1  0.99356600  0.97407900  0.81575300  1
  N  1600  1  0.02638380  0.05629260  0.87536100  1
  N  1605  1  0.89016900  0.91562100  0.82437900  1
  N  1607  1  0.07622680  0.03114360  0.90894300  1
  N  1627  1  0.99356600  0.93094400  0.36560900  1
  N  1628  1  0.02638080  0.99056200  0.28341300  1
  N  1633  1  0.89018900  0.93956200  0.42410100  1
  N  1635  1  0.07623480  0.02412760  0.30857000  1
  N  1655  1  0.99356100  0.52394400  0.85888400  1
  N  1656  1  0.02637080  0.46431200  0.94108900  1
  N  1661  1  0.89017100  0.51532000  0.80041500  1
  N  1663  1  0.07622180  0.43074300  0.91593400  1
  N  1683  1  0.47295200  0.97363900  0.41026900  1
  N  1684  1  0.44046900  0.05512460  0.34944300  1
  N  1689  1  0.57593900  0.91463900  0.40200300  1
  N  1691  1  0.39002800  0.02974160  0.31667100  1
  N  1711  1  0.47291600  0.48130100  0.81428000  1
  N  1712  1  0.44045100  0.39979300  0.87510100  1
  N  1717  1  0.57592300  0.54027200  0.82254900  1
  N  1719  1  0.39001700  0.42516500  0.90788500  1
  N  1739  1  0.47291800  0.52542400  0.36611700  1
  N  1740  1  0.44046400  0.46460900  0.28460600  1
  N  1745  1  0.57592100  0.51715600  0.42510100  1
  N  1747  1  0.39001800  0.43183400  0.30997800  1
  N  1767  1  0.47289900  0.92948700  0.85840300  1
  N  1768  1  0.44045200  0.99031200  0.93991300  1
  N  1773  1  0.57590800  0.93774700  0.79943400  1
  N  1775  1  0.39001700  0.02310060  0.91454300  1
  O  461  1  0.91210900  0.01860300  0.19260900  1
  O  462  1  0.91831500  0.92857300  0.15814300  1
  O  463  1  0.94059300  0.01659900  0.22817800  1
  O  464  1  0.94835200  0.92793800  0.12344600  1
  O  489  1  0.91213300  0.98155700  0.61844500  1
  O  490  1  0.91833100  0.07158000  0.65292000  1
  O  491  1  0.94063800  0.98352700  0.58288400  1
  O  492  1  0.94836800  0.07222100  0.68761300  1
  O  517  1  0.91211700  0.71300500  0.92409200  1
  O  518  1  0.91832300  0.74747600  0.83406200  1
  O  519  1  0.94060100  0.67743400  0.92208500  1
  O  520  1  0.94835700  0.78217100  0.83343200  1
  O  545  1  0.91216100  0.28721000  0.88701200  1
  O  546  1  0.91830200  0.25268700  0.97703500  1
  O  547  1  0.94068400  0.32276100  0.88898800  1
  O  548  1  0.94835200  0.21799900  0.97768600  1
  O  573  1  0.41632600  0.52532000  0.69889000  1
  O  574  1  0.40968700  0.43586800  0.65724500  1
  O  575  1  0.44658600  0.52081200  0.73327800  1
  O  576  1  0.44170200  0.43282100  0.62381000  1
  O  601  1  0.41631600  0.47484300  0.11218600  1
  O  602  1  0.40969700  0.56429400  0.15384700  1
  O  603  1  0.44658100  0.47932500  0.07779600  1
  O  604  1  0.44173100  0.56733900  0.18727300  1
  O  629  1  0.41627900  0.20679500  0.43077300  1
  O  630  1  0.40971300  0.24835100  0.34131900  1
  O  631  1  0.44650600  0.17238700  0.42627500  1
  O  632  1  0.44170700  0.28179900  0.33828200  1
  O  657  1  0.41620900  0.79333800  0.38032900  1
  O  658  1  0.40966300  0.75180500  0.46979000  1
  O  659  1  0.44642000  0.82775900  0.38480300  1
  O  660  1  0.44167400  0.71836500  0.47282700  1
  O  685  1  0.74760000  0.23767600  0.22026700  1
  O  686  1  0.79665400  0.16641700  0.16778600  1
  O  687  1  0.77759200  0.27187400  0.21368300  1
  O  688  1  0.76632300  0.15840100  0.13408400  1
  O  713  1  0.74763300  0.76245300  0.59083800  1
  O  714  1  0.79667700  0.83371700  0.64331400  1
  O  715  1  0.77760300  0.72824000  0.59742400  1
  O  716  1  0.76633400  0.84173500  0.67700800  1
  O  741  1  0.74762000  0.68535900  0.14314200  1
  O  742  1  0.79667200  0.73784100  0.07189100  1
  O  743  1  0.77761600  0.69193900  0.17734200  1
  O  744  1  0.76633600  0.77154000  0.06387400  1
  O  769  1  0.74762300  0.31476100  0.66793100  1
  O  770  1  0.79666100  0.26226200  0.73919600  1
  O  771  1  0.77759700  0.30818100  0.63372000  1
  O  772  1  0.76632100  0.22856200  0.74719700  1
  O  797  1  0.25180000  0.76225200  0.22142100  1
  O  798  1  0.20313500  0.83303300  0.16800200  1
  O  799  1  0.22150900  0.72808300  0.21558700  1
  O  800  1  0.23318200  0.84022800  0.13395800  1
  O  825  1  0.25175400  0.23792000  0.58970000  1
  O  826  1  0.20311200  0.16711700  0.64311600  1
  O  827  1  0.22148200  0.27209800  0.59554100  1
  O  828  1  0.23316800  0.15992400  0.67715800  1
  O  853  1  0.25176100  0.31590800  0.14341200  1
  O  854  1  0.20313100  0.26249600  0.07260500  1
  O  855  1  0.22147300  0.31006200  0.17758000  1
  O  856  1  0.23317900  0.22845200  0.06540700  1
  O  881  1  0.25173600  0.68423700  0.66769000  1
  O  882  1  0.20311200  0.73765700  0.73849500  1
  O  883  1  0.22146300  0.69007800  0.63351000  1
  O  884  1  0.23317100  0.77169700  0.74568500  1
  O  1349  1  0.14579900  0.24598700  0.39932100  1
  O  1350  1  0.15200500  0.15595700  0.36485500  1
  O  1351  1  0.17428300  0.24398300  0.43489000  1
  O  1352  1  0.18204200  0.15532200  0.33015800  1
  O  1377  1  0.14582300  0.20894100  0.82515700  1
  O  1378  1  0.15202100  0.29896400  0.85963200  1
  O  1379  1  0.17432800  0.21091100  0.78959600  1
  O  1380  1  0.18205800  0.29960500  0.89432500  1
  O  1405  1  0.14580700  0.94038900  0.13080400  1
  O  1406  1  0.15201300  0.97486000  0.04077440  1
  O  1407  1  0.17429100  0.90481800  0.12879700  1
  O  1408  1  0.18204700  0.00955460  0.04014440  1
  O  1433  1  0.14585100  0.51459400  0.09372440  1
  O  1434  1  0.15199200  0.48007100  0.18374700  1
  O  1435  1  0.17437400  0.55014500  0.09570040  1
  O  1436  1  0.18204200  0.44538300  0.18439800  1
  O  1461  1  0.65001600  0.75270400  0.90560200  1
  O  1462  1  0.64337700  0.66325200  0.86395700  1
  O  1463  1  0.68027600  0.74819600  0.93999000  1
  O  1464  1  0.67539200  0.66020500  0.83052200  1
  O  1489  1  0.65000600  0.70222700  0.31889800  1
  O  1490  1  0.64338700  0.79167800  0.36055900  1
  O  1491  1  0.68027100  0.70670900  0.28450800  1
  O  1492  1  0.67542100  0.79472300  0.39398500  1
  O  1517  1  0.64996900  0.43417900  0.63748500  1
  O  1518  1  0.64340300  0.47573500  0.54803100  1
  O  1519  1  0.68019600  0.39977100  0.63298700  1
  O  1520  1  0.67539700  0.50918300  0.54499400  1
  O  1545  1  0.64989900  0.02072160  0.58704100  1
  O  1546  1  0.64335300  0.97918900  0.67650200  1
  O  1547  1  0.68011000  0.05514260  0.59151500  1
  O  1548  1  0.67536400  0.94574900  0.67953900  1
  O  1573  1  0.98129000  0.46506000  0.42697900  1
  O  1574  1  0.03034380  0.39380100  0.37449800  1
  O  1575  1  0.01128180  0.49925800  0.42039500  1
  O  1576  1  0.00001275  0.38578500  0.34079600  1
  O  1601  1  0.98132300  0.98983700  0.79755000  1
  O  1602  1  0.03036680  0.06110060  0.85002600  1
  O  1603  1  0.01129280  0.95562400  0.80413600  1
  O  1604  1  0.00002375  0.06911860  0.88372000  1
  O  1629  1  0.98131000  0.91274300  0.34985400  1
  O  1630  1  0.03036180  0.96522500  0.27860300  1
  O  1631  1  0.01130580  0.91932300  0.38405400  1
  O  1632  1  0.00002575  0.99892400  0.27058600  1
  O  1657  1  0.98131300  0.54214500  0.87464300  1
  O  1658  1  0.03035080  0.48964600  0.94590800  1
  O  1659  1  0.01128680  0.53556500  0.84043200  1
  O  1660  1  0.00001075  0.45594600  0.95390900  1
  O  1685  1  0.48549000  0.98963600  0.42813300  1
  O  1686  1  0.43682500  0.06041660  0.37471400  1
  O  1687  1  0.45519900  0.95546700  0.42229900  1
  O  1688  1  0.46687200  0.06761160  0.34067000  1
  O  1713  1  0.48544400  0.46530400  0.79641200  1
  O  1714  1  0.43680200  0.39450100  0.84982800  1
  O  1715  1  0.45517200  0.49948200  0.80225300  1
  O  1716  1  0.46685800  0.38730800  0.88387000  1
  O  1741  1  0.48545100  0.54329200  0.35012400  1
  O  1742  1  0.43682100  0.48988000  0.27931700  1
  O  1743  1  0.45516300  0.53744600  0.38429200  1
  O  1744  1  0.46686900  0.45583600  0.27211900  1
  O  1769  1  0.48542600  0.91162100  0.87440200  1
  O  1770  1  0.43680200  0.96504100  0.94520700  1
  O  1771  1  0.45515300  0.91746200  0.84022200  1
  O  1772  1  0.46686100  0.99908100  0.95239700  1
