# generated using pymatgen
data_H23(C19N2)2
_symmetry_space_group_name_H-M   'P 1'
_cell_length_a   25.27577500
_cell_length_b   25.27575000
_cell_length_c   62.44720000
_cell_angle_alpha   89.99970000
_cell_angle_beta   89.99940000
_cell_angle_gamma   60.00009816
_symmetry_Int_Tables_number   1
_chemical_formula_structural   H23(C19N2)2
_chemical_formula_sum   'H276 C456 N48'
_cell_volume   34550.35892501
_cell_formula_units_Z   12
loop_
 _symmetry_equiv_pos_site_id
 _symmetry_equiv_pos_as_xyz
  1  'x, y, z'
loop_
 _atom_site_type_symbol
 _atom_site_label
 _atom_site_symmetry_multiplicity
 _atom_site_fract_x
 _atom_site_fract_y
 _atom_site_fract_z
 _atom_site_occupancy
  C  1  1  0.17997100  0.71394500  0.93293800  1
  C  2  1  0.17779500  0.66041900  0.93294300  1
  C  3  1  0.17777300  0.64313850  0.95419800  1
  C  5  1  0.18001900  0.73122900  0.95419100  1
  C  6  1  0.18050500  0.78480550  0.96083500  1
  C  7  1  0.17733900  0.80369150  0.98243600  1
  C  9  1  0.17246200  0.80597500  0.01823100  1
  C  10  1  0.17003200  0.85973800  0.01133100  1
  C  11  1  0.17332100  0.85820400  0.98929300  1
  C  12  1  0.17139300  0.78911950  0.03985100  1
  C  13  1  0.17532100  0.73350200  0.04654100  1
  C  15  1  0.18259200  0.64087800  0.04654800  1
  C  16  1  0.18126900  0.65878000  0.06780200  1
  C  17  1  0.17664300  0.71561800  0.06779900  1
  C  18  1  0.18648700  0.58527000  0.03986400  1
  C  19  1  0.18543700  0.56839100  0.01824500  1
  C  21  1  0.18045700  0.57069600  0.98245200  1
  C  22  1  0.18452900  0.51616400  0.98931500  1
  C  23  1  0.18787400  0.51461800  0.01135300  1
  C  24  1  0.17728500  0.58956800  0.96084900  1
  C  25  1  0.17670700  0.54984100  0.94480900  1
  C  26  1  0.23170500  0.50733950  0.93474100  1
  C  27  1  0.23273900  0.46387250  0.92047500  1
  C  28  1  0.17927500  0.46082750  0.91609400  1
  C  29  1  0.12408400  0.50440400  0.92600100  1
  C  30  1  0.12280300  0.54818600  0.94025600  1
  C  31  1  0.18153100  0.41583600  0.90167800  1
  C  32  1  0.13710500  0.43131250  0.88544600  1
  C  33  1  0.14526900  0.38944700  0.86912500  1
  C  34  1  0.19824500  0.33075400  0.86831600  1
  C  35  1  0.23988300  0.31385450  0.88561800  1
  C  36  1  0.23142200  0.35533250  0.90204100  1
  C  37  1  0.18775800  0.54458600  0.05586400  1
  C  38  1  0.24369600  0.49732150  0.06400900  1
  C  39  1  0.24461600  0.45283200  0.07783600  1
  C  40  1  0.18985000  0.45383850  0.08340400  1
  C  41  1  0.13395600  0.50215600  0.07548900  1
  C  42  1  0.13283000  0.54691700  0.06187700  1
  C  43  1  0.18954100  0.40917400  0.09721800  1
  C  44  1  0.21751300  0.39751750  0.11760300  1
  C  45  1  0.20566300  0.36431150  0.13310400  1
  C  46  1  0.16518700  0.34220000  0.12868900  1
  C  47  1  0.14189300  0.34909350  0.10763900  1
  C  48  1  0.15412900  0.38179250  0.09211900  1
  C  49  1  0.17014900  0.82980150  0.05584700  1
  C  50  1  0.11423400  0.87714800  0.06397000  1
  C  51  1  0.11337500  0.92157300  0.07781600  1
  C  52  1  0.16817800  0.92049600  0.08338200  1
  C  53  1  0.22404700  0.87213150  0.07546800  1
  C  54  1  0.22511700  0.82739050  0.06186000  1
  C  55  1  0.16855600  0.96510950  0.09721000  1
  C  56  1  0.20407600  0.99238150  0.09211900  1
  C  57  1  0.21624800  0.02515500  0.10762800  1
  C  58  1  0.19293500  0.03200900  0.12866700  1
  C  59  1  0.15244500  0.00992700  0.13309000  1
  C  60  1  0.14039600  0.97691500  0.11756800  1
  C  61  1  0.18104500  0.82453900  0.94479000  1
  C  62  1  0.12601700  0.86708750  0.93475100  1
  C  63  1  0.23495900  0.82614750  0.94020700  1
  C  64  1  0.23363700  0.86998800  0.92597100  1
  C  65  1  0.17841700  0.91361200  0.91609200  1
  C  66  1  0.12495500  0.91058100  0.92049200  1
  C  67  1  0.17613700  0.95865400  0.90169500  1
  C  68  1  0.12624100  0.01914950  0.90208200  1
  C  69  1  0.11774900  0.06071900  0.88568900  1
  C  70  1  0.15922600  0.04383150  0.86833400  1
  C  71  1  0.21221700  0.98513150  0.86912200  1
  C  72  1  0.22051700  0.94324350  0.88545300  1
  C  115  1  0.70568800  0.65914050  0.26627300  1
  C  116  1  0.65217900  0.71485400  0.26627700  1
  C  117  1  0.63486800  0.73213150  0.28753200  1
  C  119  1  0.72293300  0.64176800  0.28752600  1
  C  120  1  0.77649300  0.58769450  0.29417100  1
  C  121  1  0.79536100  0.57195950  0.31577200  1
  C  123  1  0.79763500  0.57455600  0.35156700  1
  C  124  1  0.85140600  0.52322150  0.34466800  1
  C  125  1  0.84989300  0.52148750  0.32263100  1
  C  126  1  0.78075900  0.59245850  0.37318700  1
  C  127  1  0.72515900  0.64417100  0.37987600  1
  C  129  1  0.63254100  0.72953350  0.37987900  1
  C  130  1  0.65043500  0.71295800  0.40113500  1
  C  131  1  0.70726900  0.66073600  0.40113400  1
  C  132  1  0.57691600  0.78121900  0.37319300  1
  C  133  1  0.56006700  0.79917800  0.35157700  1
  C  135  1  0.56238900  0.80186050  0.31578300  1
  C  136  1  0.50785700  0.85232500  0.32264500  1
  C  137  1  0.50629900  0.85051750  0.34468100  1
  C  138  1  0.58129500  0.78618850  0.29418100  1
  C  139  1  0.54159400  0.82651950  0.27814200  1
  C  140  1  0.49910800  0.81402300  0.26806100  1
  C  141  1  0.45560800  0.85649800  0.25381200  1
  C  142  1  0.45253400  0.91303400  0.24945700  1
  C  143  1  0.49609800  0.92464200  0.25937700  1
  C  144  1  0.53995200  0.88207550  0.27359900  1
  C  145  1  0.40752200  0.95580850  0.23505600  1
  C  146  1  0.42297000  0.98480450  0.21883400  1
  C  147  1  0.38109000  0.01853900  0.20252300  1
  C  148  1  0.32240100  0.02424250  0.20170400  1
  C  149  1  0.30548200  0.99954100  0.21901700  1
  C  150  1  0.34703900  0.96636650  0.23540300  1
  C  151  1  0.53623500  0.82065300  0.38919100  1
  C  152  1  0.48892200  0.81203950  0.39732100  1
  C  153  1  0.44443700  0.85564700  0.41114200  1
  C  154  1  0.44551000  0.90936800  0.41671700  1
  C  155  1  0.49386700  0.91688800  0.40880600  1
  C  156  1  0.53863300  0.87321450  0.39520600  1
  C  157  1  0.40085800  0.95436700  0.43053100  1
  C  158  1  0.38903500  0.93805150  0.45089300  1
  C  159  1  0.35600200  0.98313500  0.46640700  1
  C  160  1  0.33383500  0.04572850  0.46198800  1
  C  161  1  0.34078600  0.06211000  0.44094800  1
  C  162  1  0.37361700  0.01715800  0.42544900  1
  C  163  1  0.82144300  0.55301600  0.38918300  1
  C  164  1  0.86869900  0.56168950  0.39733500  1
  C  165  1  0.91316400  0.51811300  0.41116900  1
  C  166  1  0.91216700  0.46433450  0.41671700  1
  C  167  1  0.86383900  0.45677950  0.40879600  1
  C  168  1  0.81906700  0.50044450  0.39519400  1
  C  169  1  0.95680600  0.41935250  0.43053900  1
  C  170  1  0.98411600  0.35656550  0.42544900  1
  C  171  1  0.01688700  0.31163650  0.44096100  1
  C  172  1  0.02382900  0.32804650  0.46200000  1
  C  173  1  0.00181600  0.39062500  0.46640500  1
  C  174  1  0.96855800  0.43568450  0.45090700  1
  C  175  1  0.81624000  0.54743250  0.27812600  1
  C  176  1  0.85875700  0.55994950  0.26808000  1
  C  177  1  0.81789700  0.49188700  0.27354400  1
  C  178  1  0.86176300  0.44937650  0.25931300  1
  C  179  1  0.90532900  0.46102650  0.24942000  1
  C  180  1  0.90226700  0.51753350  0.25382200  1
  C  181  1  0.95035500  0.41829750  0.23500900  1
  C  182  1  0.01083800  0.40774450  0.23537600  1
  C  183  1  0.05239000  0.37465850  0.21897800  1
  C  184  1  0.03552400  0.34994800  0.20165600  1
  C  185  1  0.97683000  0.35566300  0.20245100  1
  C  186  1  0.93492800  0.38934650  0.21876500  1
  C  229  1  0.65085400  0.18826750  0.59961500  1
  C  230  1  0.70657900  0.18604050  0.59962300  1
  C  231  1  0.72383700  0.18609800  0.62087800  1
  C  233  1  0.63343800  0.18847350  0.62086800  1
  C  234  1  0.57930900  0.18908950  0.62751100  1
  C  235  1  0.56357700  0.18592900  0.64911100  1
  C  237  1  0.56625900  0.18086550  0.68490300  1
  C  238  1  0.51492700  0.17843350  0.67800000  1
  C  239  1  0.51308700  0.18189550  0.65596500  1
  C  240  1  0.58420700  0.17973950  0.70652300  1
  C  241  1  0.63588900  0.18367500  0.71321500  1
  C  243  1  0.72125600  0.19091850  0.71322500  1
  C  244  1  0.70461200  0.18970350  0.73448000  1
  C  245  1  0.65239900  0.18508100  0.73447500  1
  C  246  1  0.77301000  0.19474500  0.70654600  1
  C  247  1  0.79094800  0.19368900  0.68492900  1
  C  249  1  0.79358400  0.18879500  0.64913400  1
  C  250  1  0.84407000  0.19281600  0.65599900  1
  C  251  1  0.84230600  0.19608600  0.67803700  1
  C  252  1  0.77791100  0.18557250  0.62753200  1
  C  253  1  0.81824400  0.18494950  0.61149200  1
  C  254  1  0.80576400  0.23994000  0.60142100  1
  C  255  1  0.84824100  0.24096750  0.58717600  1
  C  256  1  0.90475800  0.18749800  0.58280700  1
  C  257  1  0.91635600  0.13232100  0.59272100  1
  C  258  1  0.87379300  0.13103550  0.60694500  1
  C  259  1  0.94753700  0.18973350  0.56840800  1
  C  260  1  0.97654600  0.14527650  0.55219100  1
  C  261  1  0.01015100  0.15350850  0.53584900  1
  C  262  1  0.01591700  0.20645800  0.53503300  1
  C  263  1  0.99115500  0.24809450  0.55233800  1
  C  264  1  0.95810300  0.23965400  0.56875200  1
  C  265  1  0.81239900  0.19605600  0.72254600  1
  C  266  1  0.80378400  0.25201300  0.73064700  1
  C  267  1  0.84733400  0.25293200  0.74448600  1
  C  268  1  0.90104800  0.19815450  0.75008000  1
  C  269  1  0.90856400  0.14224900  0.74220100  1
  C  270  1  0.86492700  0.14111650  0.72859300  1
  C  271  1  0.94602400  0.19784250  0.76389600  1
  C  272  1  0.92969700  0.22596400  0.78425900  1
  C  273  1  0.97475800  0.21404000  0.79976500  1
  C  274  1  0.03731100  0.17346700  0.79534200  1
  C  275  1  0.05377600  0.15019750  0.77429600  1
  C  276  1  0.00881400  0.16236000  0.75879300  1
  C  277  1  0.54476800  0.17847700  0.72251600  1
  C  278  1  0.55344800  0.12253550  0.73065700  1
  C  279  1  0.50987300  0.12160200  0.74447800  1
  C  280  1  0.45610000  0.17636000  0.75004500  1
  C  281  1  0.44851700  0.23226100  0.74213200  1
  C  282  1  0.49215700  0.23339850  0.72852600  1
  C  283  1  0.41113500  0.17663950  0.76385600  1
  C  284  1  0.34834300  0.21206350  0.75875600  1
  C  285  1  0.30339100  0.22424200  0.77426500  1
  C  286  1  0.31979800  0.20101200  0.79531800  1
  C  287  1  0.38238500  0.16053150  0.79973600  1
  C  288  1  0.42745100  0.14857950  0.78422700  1
  C  289  1  0.53907500  0.18955550  0.61146400  1
  C  290  1  0.55165300  0.13449000  0.60142800  1
  C  291  1  0.48348900  0.24339750  0.60688200  1
  C  292  1  0.44104300  0.24198950  0.59263200  1
  C  293  1  0.45274200  0.18673350  0.58275600  1
  C  294  1  0.50927400  0.13332900  0.58716800  1
  C  295  1  0.41006900  0.18435100  0.56834200  1
  C  296  1  0.39955000  0.13439800  0.56872500  1
  C  297  1  0.36661900  0.12581550  0.55230200  1
  C  298  1  0.34181800  0.16741350  0.53499100  1
  C  299  1  0.34739400  0.22047300  0.53579000  1
  C  300  1  0.38106500  0.22872950  0.55210000  1
  C  343  1  0.20678700  0.32258500  0.82887600  1
  C  345  1  0.27768900  0.22841450  0.81241300  1
  C  347  1  0.25396600  0.23012600  0.84937600  1
  C  348  1  0.21568100  0.29450000  0.84919300  1
  C  351  1  0.31436000  0.02374150  0.16226500  1
  C  353  1  0.22027900  0.04678100  0.14576400  1
  C  355  1  0.22182900  0.06894050  0.18273200  1
  C  356  1  0.28619300  0.04290600  0.18257000  1
  C  359  1  0.01536300  0.21504400  0.49559300  1
  C  361  1  0.03858400  0.28594550  0.47909900  1
  C  363  1  0.06070100  0.26224400  0.51606000  1
  C  364  1  0.03458400  0.22398850  0.51589600  1
  C  367  1  0.15048800  0.05189550  0.82889500  1
  C  369  1  0.07948100  0.14603650  0.81241900  1
  C  371  1  0.10334300  0.14440450  0.84937500  1
  C  372  1  0.14162200  0.08003550  0.84920000  1
  C  375  1  0.04367900  0.35048550  0.16221800  1
  C  377  1  0.13781400  0.32738600  0.14576400  1
  C  379  1  0.13613900  0.30525250  0.18271700  1
  C  380  1  0.07177200  0.33126550  0.18253300  1
  C  383  1  0.34206800  0.15894950  0.49554800  1
  C  385  1  0.31900900  0.08786150  0.47907600  1
  C  387  1  0.29706100  0.11154350  0.51606300  1
  C  388  1  0.32299200  0.14996300  0.51587200  1
  C  1561  1  0.17997100  0.71394500  0.46854600  1
  C  1562  1  0.17779500  0.66041900  0.46855100  1
  C  1563  1  0.17777300  0.64313850  0.48980600  1
  C  1565  1  0.18001900  0.73122900  0.48979900  1
  C  1566  1  0.18050500  0.78480550  0.49644300  1
  C  1567  1  0.17733900  0.80369150  0.51804400  1
  C  1569  1  0.17246200  0.80597500  0.55383900  1
  C  1570  1  0.17003200  0.85973800  0.54693900  1
  C  1571  1  0.17332100  0.85820400  0.52490100  1
  C  1572  1  0.17139300  0.78911950  0.57545900  1
  C  1573  1  0.17532100  0.73350200  0.58214900  1
  C  1575  1  0.18259200  0.64087800  0.58215600  1
  C  1576  1  0.18126900  0.65878000  0.60341000  1
  C  1577  1  0.17664300  0.71561800  0.60340700  1
  C  1578  1  0.18648700  0.58527000  0.57547200  1
  C  1579  1  0.18543700  0.56839100  0.55385300  1
  C  1581  1  0.18045700  0.57069600  0.51806000  1
  C  1582  1  0.18452900  0.51616400  0.52492300  1
  C  1583  1  0.18787400  0.51461800  0.54696100  1
  C  1584  1  0.17728500  0.58956800  0.49645700  1
  C  1585  1  0.17670700  0.54984100  0.48041700  1
  C  1586  1  0.23170500  0.50733950  0.47034900  1
  C  1587  1  0.23273900  0.46387250  0.45608300  1
  C  1588  1  0.17927500  0.46082750  0.45170200  1
  C  1589  1  0.12408400  0.50440400  0.46160900  1
  C  1590  1  0.12280300  0.54818600  0.47586400  1
  C  1591  1  0.18153100  0.41583600  0.43728600  1
  C  1592  1  0.13710500  0.43131250  0.42105400  1
  C  1593  1  0.14526900  0.38944700  0.40473300  1
  C  1594  1  0.19824500  0.33075400  0.40392400  1
  C  1595  1  0.23988300  0.31385450  0.42122600  1
  C  1596  1  0.23142200  0.35533250  0.43764900  1
  C  1597  1  0.18775800  0.54458600  0.59147200  1
  C  1598  1  0.24369600  0.49732150  0.59961700  1
  C  1599  1  0.24461600  0.45283200  0.61344400  1
  C  1600  1  0.18985000  0.45383850  0.61901200  1
  C  1601  1  0.13395600  0.50215600  0.61109700  1
  C  1602  1  0.13283000  0.54691700  0.59748500  1
  C  1603  1  0.18954100  0.40917400  0.63282600  1
  C  1604  1  0.21751300  0.39751750  0.65321100  1
  C  1605  1  0.20566300  0.36431150  0.66871200  1
  C  1606  1  0.16518700  0.34220000  0.66429700  1
  C  1607  1  0.14189300  0.34909350  0.64324700  1
  C  1608  1  0.15412900  0.38179250  0.62772700  1
  C  1609  1  0.17014900  0.82980150  0.59145500  1
  C  1610  1  0.11423400  0.87714800  0.59957800  1
  C  1611  1  0.11337500  0.92157300  0.61342400  1
  C  1612  1  0.16817800  0.92049600  0.61899000  1
  C  1613  1  0.22404700  0.87213150  0.61107600  1
  C  1614  1  0.22511700  0.82739050  0.59746800  1
  C  1615  1  0.16855600  0.96510950  0.63281800  1
  C  1616  1  0.20407600  0.99238150  0.62772700  1
  C  1617  1  0.21624800  0.02515500  0.64323600  1
  C  1618  1  0.19293500  0.03200900  0.66427500  1
  C  1619  1  0.15244500  0.00992700  0.66869800  1
  C  1620  1  0.14039600  0.97691500  0.65317600  1
  C  1621  1  0.18104500  0.82453900  0.48039800  1
  C  1622  1  0.12601700  0.86708750  0.47035900  1
  C  1623  1  0.23495900  0.82614750  0.47581500  1
  C  1624  1  0.23363700  0.86998800  0.46157900  1
  C  1625  1  0.17841700  0.91361200  0.45170000  1
  C  1626  1  0.12495500  0.91058100  0.45610000  1
  C  1627  1  0.17613700  0.95865400  0.43730300  1
  C  1628  1  0.12624100  0.01914950  0.43769000  1
  C  1629  1  0.11774900  0.06071900  0.42129700  1
  C  1630  1  0.15922600  0.04383150  0.40394200  1
  C  1631  1  0.21221700  0.98513150  0.40473000  1
  C  1632  1  0.22051700  0.94324350  0.42106100  1
  C  1675  1  0.70568800  0.65914050  0.80188100  1
  C  1676  1  0.65217900  0.71485400  0.80188500  1
  C  1677  1  0.63486800  0.73213150  0.82314000  1
  C  1679  1  0.72293300  0.64176800  0.82313400  1
  C  1680  1  0.77649300  0.58769450  0.82977900  1
  C  1681  1  0.79536100  0.57195950  0.85138000  1
  C  1683  1  0.79763500  0.57455600  0.88717500  1
  C  1684  1  0.85140600  0.52322150  0.88027600  1
  C  1685  1  0.84989300  0.52148750  0.85823900  1
  C  1686  1  0.78075900  0.59245850  0.90879470  1
  C  1687  1  0.72515900  0.64417100  0.91548370  1
  C  1689  1  0.63254100  0.72953350  0.91548670  1
  C  1690  1  0.65043500  0.71295800  0.93674270  1
  C  1691  1  0.70726900  0.66073600  0.93674170  1
  C  1692  1  0.57691600  0.78121900  0.90880070  1
  C  1693  1  0.56006700  0.79917800  0.88718500  1
  C  1695  1  0.56238900  0.80186050  0.85139100  1
  C  1696  1  0.50785700  0.85232500  0.85825300  1
  C  1697  1  0.50629900  0.85051750  0.88028900  1
  C  1698  1  0.58129500  0.78618850  0.82978900  1
  C  1699  1  0.54159400  0.82651950  0.81375000  1
  C  1700  1  0.49910800  0.81402300  0.80366900  1
  C  1701  1  0.45560800  0.85649800  0.78942000  1
  C  1702  1  0.45253400  0.91303400  0.78506500  1
  C  1703  1  0.49609800  0.92464200  0.79498500  1
  C  1704  1  0.53995200  0.88207550  0.80920700  1
  C  1705  1  0.40752200  0.95580850  0.77066400  1
  C  1706  1  0.42297000  0.98480450  0.75444200  1
  C  1707  1  0.38109000  0.01853900  0.73813100  1
  C  1708  1  0.32240100  0.02424250  0.73731200  1
  C  1709  1  0.30548200  0.99954100  0.75462500  1
  C  1710  1  0.34703900  0.96636650  0.77101100  1
  C  1711  1  0.53623500  0.82065300  0.92479870  1
  C  1712  1  0.48892200  0.81203950  0.93292870  1
  C  1713  1  0.44443700  0.85564700  0.94674970  1
  C  1714  1  0.44551000  0.90936800  0.95232470  1
  C  1715  1  0.49386700  0.91688800  0.94441370  1
  C  1716  1  0.53863300  0.87321450  0.93081370  1
  C  1717  1  0.40085800  0.95436700  0.96613870  1
  C  1718  1  0.38903500  0.93805150  0.98650070  1
  C  1719  1  0.35600200  0.98313500  0.00201500  1
  C  1720  1  0.33383500  0.04572850  0.99759568  1
  C  1721  1  0.34078600  0.06211000  0.97655570  1
  C  1722  1  0.37361700  0.01715800  0.96105670  1
  C  1723  1  0.82144300  0.55301600  0.92479070  1
  C  1724  1  0.86869900  0.56168950  0.93294270  1
  C  1725  1  0.91316400  0.51811300  0.94677670  1
  C  1726  1  0.91216700  0.46433450  0.95232470  1
  C  1727  1  0.86383900  0.45677950  0.94440370  1
  C  1728  1  0.81906700  0.50044450  0.93080170  1
  C  1729  1  0.95680600  0.41935250  0.96614670  1
  C  1730  1  0.98411600  0.35656550  0.96105670  1
  C  1731  1  0.01688700  0.31163650  0.97656870  1
  C  1732  1  0.02382900  0.32804650  0.99760768  1
  C  1733  1  0.00181600  0.39062500  0.00201300  1
  C  1734  1  0.96855800  0.43568450  0.98651470  1
  C  1735  1  0.81624000  0.54743250  0.81373400  1
  C  1736  1  0.85875700  0.55994950  0.80368800  1
  C  1737  1  0.81789700  0.49188700  0.80915200  1
  C  1738  1  0.86176300  0.44937650  0.79492100  1
  C  1739  1  0.90532900  0.46102650  0.78502800  1
  C  1740  1  0.90226700  0.51753350  0.78943000  1
  C  1741  1  0.95035500  0.41829750  0.77061700  1
  C  1742  1  0.01083800  0.40774450  0.77098400  1
  C  1743  1  0.05239000  0.37465850  0.75458600  1
  C  1744  1  0.03552400  0.34994800  0.73726400  1
  C  1745  1  0.97683000  0.35566300  0.73805900  1
  C  1746  1  0.93492800  0.38934650  0.75437300  1
  C  1789  1  0.65085400  0.18826750  0.13522300  1
  C  1790  1  0.70657900  0.18604050  0.13523100  1
  C  1791  1  0.72383700  0.18609800  0.15648600  1
  C  1793  1  0.63343800  0.18847350  0.15647600  1
  C  1794  1  0.57930900  0.18908950  0.16311900  1
  C  1795  1  0.56357700  0.18592900  0.18471900  1
  C  1797  1  0.56625900  0.18086550  0.22051100  1
  C  1798  1  0.51492700  0.17843350  0.21360800  1
  C  1799  1  0.51308700  0.18189550  0.19157300  1
  C  1800  1  0.58420700  0.17973950  0.24213100  1
  C  1801  1  0.63588900  0.18367500  0.24882300  1
  C  1803  1  0.72125600  0.19091850  0.24883300  1
  C  1804  1  0.70461200  0.18970350  0.27008800  1
  C  1805  1  0.65239900  0.18508100  0.27008300  1
  C  1806  1  0.77301000  0.19474500  0.24215400  1
  C  1807  1  0.79094800  0.19368900  0.22053700  1
  C  1809  1  0.79358400  0.18879500  0.18474200  1
  C  1810  1  0.84407000  0.19281600  0.19160700  1
  C  1811  1  0.84230600  0.19608600  0.21364500  1
  C  1812  1  0.77791100  0.18557250  0.16314000  1
  C  1813  1  0.81824400  0.18494950  0.14710000  1
  C  1814  1  0.80576400  0.23994000  0.13702900  1
  C  1815  1  0.84824100  0.24096750  0.12278400  1
  C  1816  1  0.90475800  0.18749800  0.11841500  1
  C  1817  1  0.91635600  0.13232100  0.12832900  1
  C  1818  1  0.87379300  0.13103550  0.14255300  1
  C  1819  1  0.94753700  0.18973350  0.10401600  1
  C  1820  1  0.97654600  0.14527650  0.08779900  1
  C  1821  1  0.01015100  0.15350850  0.07145700  1
  C  1822  1  0.01591700  0.20645800  0.07064100  1
  C  1823  1  0.99115500  0.24809450  0.08794600  1
  C  1824  1  0.95810300  0.23965400  0.10436000  1
  C  1825  1  0.81239900  0.19605600  0.25815400  1
  C  1826  1  0.80378400  0.25201300  0.26625500  1
  C  1827  1  0.84733400  0.25293200  0.28009400  1
  C  1828  1  0.90104800  0.19815450  0.28568800  1
  C  1829  1  0.90856400  0.14224900  0.27780900  1
  C  1830  1  0.86492700  0.14111650  0.26420100  1
  C  1831  1  0.94602400  0.19784250  0.29950400  1
  C  1832  1  0.92969700  0.22596400  0.31986700  1
  C  1833  1  0.97475800  0.21404000  0.33537300  1
  C  1834  1  0.03731100  0.17346700  0.33095000  1
  C  1835  1  0.05377600  0.15019750  0.30990400  1
  C  1836  1  0.00881400  0.16236000  0.29440100  1
  C  1837  1  0.54476800  0.17847700  0.25812400  1
  C  1838  1  0.55344800  0.12253550  0.26626500  1
  C  1839  1  0.50987300  0.12160200  0.28008600  1
  C  1840  1  0.45610000  0.17636000  0.28565300  1
  C  1841  1  0.44851700  0.23226100  0.27774000  1
  C  1842  1  0.49215700  0.23339850  0.26413400  1
  C  1843  1  0.41113500  0.17663950  0.29946400  1
  C  1844  1  0.34834300  0.21206350  0.29436400  1
  C  1845  1  0.30339100  0.22424200  0.30987300  1
  C  1846  1  0.31979800  0.20101200  0.33092600  1
  C  1847  1  0.38238500  0.16053150  0.33534400  1
  C  1848  1  0.42745100  0.14857950  0.31983500  1
  C  1849  1  0.53907500  0.18955550  0.14707200  1
  C  1850  1  0.55165300  0.13449000  0.13703600  1
  C  1851  1  0.48348900  0.24339750  0.14249000  1
  C  1852  1  0.44104300  0.24198950  0.12824000  1
  C  1853  1  0.45274200  0.18673350  0.11836400  1
  C  1854  1  0.50927400  0.13332900  0.12277600  1
  C  1855  1  0.41006900  0.18435100  0.10395000  1
  C  1856  1  0.39955000  0.13439800  0.10433300  1
  C  1857  1  0.36661900  0.12581550  0.08791000  1
  C  1858  1  0.34181800  0.16741350  0.07059900  1
  C  1859  1  0.34739400  0.22047300  0.07139800  1
  C  1860  1  0.38106500  0.22872950  0.08770800  1
  C  1903  1  0.20678700  0.32258500  0.36448400  1
  C  1905  1  0.27768900  0.22841450  0.34802100  1
  C  1907  1  0.25396600  0.23012600  0.38498400  1
  C  1908  1  0.21568100  0.29450000  0.38480100  1
  C  1911  1  0.31436000  0.02374150  0.69787300  1
  C  1913  1  0.22027900  0.04678100  0.68137200  1
  C  1915  1  0.22182900  0.06894050  0.71834000  1
  C  1916  1  0.28619300  0.04290600  0.71817800  1
  C  1919  1  0.01536300  0.21504400  0.03120100  1
  C  1921  1  0.03858400  0.28594550  0.01470700  1
  C  1923  1  0.06070100  0.26224400  0.05166800  1
  C  1924  1  0.03458400  0.22398850  0.05150400  1
  C  1927  1  0.15048800  0.05189550  0.36450300  1
  C  1929  1  0.07948100  0.14603650  0.34802700  1
  C  1931  1  0.10334300  0.14440450  0.38498300  1
  C  1932  1  0.14162200  0.08003550  0.38480800  1
  C  1935  1  0.04367900  0.35048550  0.69782600  1
  C  1937  1  0.13781400  0.32738600  0.68137200  1
  C  1939  1  0.13613900  0.30525250  0.71832500  1
  C  1940  1  0.07177200  0.33126550  0.71814100  1
  C  1943  1  0.34206800  0.15894950  0.03115600  1
  C  1945  1  0.31900900  0.08786150  0.01468400  1
  C  1947  1  0.29706100  0.11154350  0.05167100  1
  C  1948  1  0.32299200  0.14996300  0.05148000  1
  H  73  1  0.24352100  0.97063850  0.85696600  1
  H  74  1  0.25672700  0.89969800  0.88427500  1
  H  75  1  0.07760400  0.10148400  0.88566200  1
  H  76  1  0.09323200  0.03255200  0.91362500  1
  H  77  1  0.08430700  0.94014550  0.91331400  1
  H  78  1  0.08620100  0.86729150  0.93799200  1
  H  79  1  0.27312900  0.87096800  0.92343100  1
  H  80  1  0.27514500  0.79648100  0.94764300  1
  H  81  1  0.18043800  0.73655700  0.91943600  1
  H  82  1  0.17715100  0.63788700  0.91944300  1
  H  83  1  0.17894900  0.68716900  0.98159600  1
  H  84  1  0.17896100  0.68717700  0.01913900  1
  H  85  1  0.17195300  0.89219650  0.98002900  1
  H  86  1  0.16652700  0.89474200  0.02056200  1
  H  87  1  0.07377700  0.88042300  0.05944500  1
  H  88  1  0.07218900  0.95605950  0.08315300  1
  H  89  1  0.26612300  0.79404300  0.05591700  1
  H  90  1  0.26477900  0.86895950  0.07952100  1
  H  91  1  0.17484500  0.73939200  0.08128100  1
  H  92  1  0.18304100  0.63502650  0.08128900  1
  H  93  1  0.18593000  0.48214800  0.98005500  1
  H  94  1  0.19141700  0.47960550  0.02058600  1
  H  95  1  0.28413500  0.49406150  0.05946700  1
  H  96  1  0.28582300  0.41839300  0.08318200  1
  H  97  1  0.09181100  0.58022250  0.05593000  1
  H  98  1  0.09324500  0.50527150  0.07954200  1
  H  99  1  0.13280700  0.38956800  0.07757400  1
  H  100  1  0.11161300  0.33477550  0.10389800  1
  H  101  1  0.22137700  0.36268900  0.14833300  1
  H  102  1  0.24180600  0.41815650  0.12209500  1
  H  103  1  0.08263300  0.57782900  0.94770600  1
  H  104  1  0.08460200  0.50338500  0.92348500  1
  H  105  1  0.26447200  0.34191600  0.91356900  1
  H  106  1  0.27995700  0.27301650  0.88560400  1
  H  107  1  0.11383700  0.40391400  0.85701100  1
  H  108  1  0.10079800  0.47482250  0.88433500  1
  H  109  1  0.27336500  0.43434650  0.91327550  1
  H  110  1  0.27152000  0.50715600  0.93796300  1
  H  111  1  0.22531500  0.98465700  0.07755900  1
  H  112  1  0.24654300  0.03946200  0.10389500  1
  H  113  1  0.11622900  0.95614950  0.12205900  1
  H  114  1  0.13666500  0.01155900  0.14831000  1
  H  187  1  0.96235700  0.33875100  0.19032200  1
  H  188  1  0.89142400  0.39654150  0.21763900  1
  H  189  1  0.09315600  0.37404400  0.21895700  1
  H  190  1  0.02424300  0.42736950  0.24691100  1
  H  191  1  0.93180600  0.52864550  0.24664200  1
  H  192  1  0.85895900  0.59955900  0.27133100  1
  H  193  1  0.86273600  0.40891250  0.25676000  1
  H  194  1  0.78824800  0.48134250  0.28098100  1
  H  195  1  0.72831500  0.63607450  0.25277000  1
  H  196  1  0.62967500  0.73805500  0.25277600  1
  H  197  1  0.67883700  0.68687000  0.31493000  1
  H  198  1  0.67883800  0.68684850  0.35247300  1
  H  199  1  0.88386400  0.48883250  0.31336800  1
  H  200  1  0.88638900  0.49170400  0.35390200  1
  H  201  1  0.87197100  0.59886500  0.39280000  1
  H  202  1  0.94762300  0.52485050  0.41651300  1
  H  203  1  0.78578800  0.49271800  0.38922900  1
  H  204  1  0.86072200  0.41917900  0.41283600  1
  H  205  1  0.73102200  0.63874100  0.41461700  1
  H  206  1  0.62666000  0.73491500  0.41462000  1
  H  207  1  0.47386700  0.88496200  0.31338300  1
  H  208  1  0.47128400  0.88199000  0.35391300  1
  H  209  1  0.48566000  0.77485200  0.39279500  1
  H  210  1  0.41000500  0.84889050  0.41650400  1
  H  211  1  0.57195400  0.88089900  0.38925300  1
  H  212  1  0.49701900  0.95446350  0.41285700  1
  H  213  1  0.38127400  0.03067700  0.41087800  1
  H  214  1  0.32640400  0.10671300  0.43718800  1
  H  215  1  0.35435300  0.96899400  0.48162700  1
  H  216  1  0.40981600  0.89313650  0.45541000  1
  H  217  1  0.56954400  0.89262450  0.28107500  1
  H  218  1  0.49508400  0.96514200  0.25686600  1
  H  219  1  0.33362700  0.94669250  0.24691700  1
  H  220  1  0.26476100  0.00007000  0.21895900  1
  H  221  1  0.39555600  0.03551200  0.19041000  1
  H  222  1  0.46645300  0.97768150  0.21772900  1
  H  223  1  0.42607800  0.84541300  0.24661000  1
  H  224  1  0.49889500  0.77440600  0.27128500  1
  H  225  1  0.97647800  0.34301450  0.41088000  1
  H  226  1  0.03128100  0.26702100  0.43721500  1
  H  227  1  0.94780400  0.48060800  0.45541600  1
  H  228  1  0.00321300  0.40480200  0.48164200  1
  H  301  1  0.33039300  0.25189400  0.52367300  1
  H  302  1  0.38818700  0.26508450  0.55097700  1
  H  303  1  0.36586800  0.08573450  0.55230300  1
  H  304  1  0.41920300  0.10138850  0.58026400  1
  H  305  1  0.52043300  0.09265700  0.57999400  1
  H  306  1  0.59129000  0.09470700  0.60468000  1
  H  307  1  0.40052500  0.28143300  0.59009300  1
  H  308  1  0.47289900  0.28361300  0.61430900  1
  H  309  1  0.62776100  0.18877950  0.58611100  1
  H  310  1  0.72979500  0.18532350  0.58612400  1
  H  311  1  0.67849100  0.18754200  0.64827500  1
  H  312  1  0.67868800  0.18711750  0.68581600  1
  H  313  1  0.48053900  0.18039500  0.64669800  1
  H  314  1  0.48348100  0.17482800  0.68722700  1
  H  315  1  0.59063900  0.08209750  0.72612000  1
  H  316  1  0.51665000  0.08039000  0.74982200  1
  H  317  1  0.48444100  0.27442100  0.72258100  1
  H  318  1  0.41091600  0.27296700  0.74618400  1
  H  319  1  0.63039900  0.18331650  0.74795700  1
  H  320  1  0.72659300  0.19146950  0.74796600  1
  H  321  1  0.87675600  0.19409050  0.64674100  1
  H  322  1  0.87382700  0.19953700  0.68727300  1
  H  323  1  0.76663700  0.29245000  0.72608800  1
  H  324  1  0.84063100  0.29414200  0.74980000  1
  H  325  1  0.87260300  0.10008700  0.72267100  1
  H  326  1  0.94612000  0.10153300  0.74627700  1
  H  327  1  0.02231700  0.14100200  0.74425300  1
  H  328  1  0.09833600  0.11973900  0.77056900  1
  H  329  1  0.96067800  0.22975050  0.81499700  1
  H  330  1  0.88475600  0.25023250  0.78874000  1
  H  331  1  0.88430500  0.09087850  0.61440000  1
  H  332  1  0.95682800  0.09281550  0.59019400  1
  H  333  1  0.93846800  0.27272250  0.58027600  1
  H  334  1  0.99188800  0.28818350  0.55230600  1
  H  335  1  0.02706900  0.12209550  0.52372700  1
  H  336  1  0.96923800  0.10904200  0.55104000  1
  H  337  1  0.83716400  0.28158750  0.57997900  1
  H  338  1  0.76615500  0.27977300  0.60465100  1
  H  339  1  0.33480200  0.23343050  0.74421700  1
  H  340  1  0.25881500  0.25464300  0.77053700  1
  H  341  1  0.47237000  0.12440500  0.78874000  1
  H  342  1  0.39648500  0.14485950  0.81497000  1
  H  349  1  0.18228600  0.36894900  0.82712700  1
  H  350  1  0.26337500  0.20595400  0.86332700  1
  H  357  1  0.36072500  0.00195750  0.16053000  1
  H  358  1  0.19760900  0.08371200  0.19667100  1
  H  365  1  0.99350900  0.19053050  0.49386200  1
  H  366  1  0.07550300  0.27165150  0.53000100  1
  H  373  1  0.17500400  0.00553000  0.82715500  1
  H  374  1  0.09398000  0.16860650  0.86331700  1
  H  381  1  0.99731900  0.37229450  0.16046800  1
  H  382  1  0.16031700  0.29047150  0.19666500  1
  H  389  1  0.36383400  0.18353900  0.49379000  1
  H  390  1  0.28239200  0.10204350  0.53001700  1
  H  1633  1  0.24352100  0.97063850  0.39257400  1
  H  1634  1  0.25672700  0.89969800  0.41988300  1
  H  1635  1  0.07760400  0.10148400  0.42127000  1
  H  1636  1  0.09323200  0.03255200  0.44923300  1
  H  1637  1  0.08430700  0.94014550  0.44892200  1
  H  1638  1  0.08620100  0.86729150  0.47360000  1
  H  1639  1  0.27312900  0.87096800  0.45903900  1
  H  1640  1  0.27514500  0.79648100  0.48325100  1
  H  1641  1  0.18043800  0.73655700  0.45504400  1
  H  1642  1  0.17715100  0.63788700  0.45505100  1
  H  1643  1  0.17894900  0.68716900  0.51720400  1
  H  1644  1  0.17896100  0.68717700  0.55474700  1
  H  1645  1  0.17195300  0.89219650  0.51563700  1
  H  1646  1  0.16652700  0.89474200  0.55617000  1
  H  1647  1  0.07377700  0.88042300  0.59505300  1
  H  1648  1  0.07218900  0.95605950  0.61876100  1
  H  1649  1  0.26612300  0.79404300  0.59152500  1
  H  1650  1  0.26477900  0.86895950  0.61512900  1
  H  1651  1  0.17484500  0.73939200  0.61688900  1
  H  1652  1  0.18304100  0.63502650  0.61689700  1
  H  1653  1  0.18593000  0.48214800  0.51566300  1
  H  1654  1  0.19141700  0.47960550  0.55619400  1
  H  1655  1  0.28413500  0.49406150  0.59507500  1
  H  1656  1  0.28582300  0.41839300  0.61879000  1
  H  1657  1  0.09181100  0.58022250  0.59153800  1
  H  1658  1  0.09324500  0.50527150  0.61515000  1
  H  1659  1  0.13280700  0.38956800  0.61318200  1
  H  1660  1  0.11161300  0.33477550  0.63950600  1
  H  1661  1  0.22137700  0.36268900  0.68394100  1
  H  1662  1  0.24180600  0.41815650  0.65770300  1
  H  1663  1  0.08263300  0.57782900  0.48331400  1
  H  1664  1  0.08460200  0.50338500  0.45909300  1
  H  1665  1  0.26447200  0.34191600  0.44917700  1
  H  1666  1  0.27995700  0.27301650  0.42121200  1
  H  1667  1  0.11383700  0.40391400  0.39261900  1
  H  1668  1  0.10079800  0.47482250  0.41994300  1
  H  1669  1  0.27336500  0.43434650  0.44888350  1
  H  1670  1  0.27152000  0.50715600  0.47357100  1
  H  1671  1  0.22531500  0.98465700  0.61316700  1
  H  1672  1  0.24654300  0.03946200  0.63950300  1
  H  1673  1  0.11622900  0.95614950  0.65766700  1
  H  1674  1  0.13666500  0.01155900  0.68391800  1
  H  1747  1  0.96235700  0.33875100  0.72593000  1
  H  1748  1  0.89142400  0.39654150  0.75324700  1
  H  1749  1  0.09315600  0.37404400  0.75456500  1
  H  1750  1  0.02424300  0.42736950  0.78251900  1
  H  1751  1  0.93180600  0.52864550  0.78225000  1
  H  1752  1  0.85895900  0.59955900  0.80693900  1
  H  1753  1  0.86273600  0.40891250  0.79236800  1
  H  1754  1  0.78824800  0.48134250  0.81658900  1
  H  1755  1  0.72831500  0.63607450  0.78837800  1
  H  1756  1  0.62967500  0.73805500  0.78838400  1
  H  1757  1  0.67883700  0.68687000  0.85053800  1
  H  1758  1  0.67883800  0.68684850  0.88808100  1
  H  1759  1  0.88386400  0.48883250  0.84897600  1
  H  1760  1  0.88638900  0.49170400  0.88951000  1
  H  1761  1  0.87197100  0.59886500  0.92840770  1
  H  1762  1  0.94762300  0.52485050  0.95212070  1
  H  1763  1  0.78578800  0.49271800  0.92483670  1
  H  1764  1  0.86072200  0.41917900  0.94844370  1
  H  1765  1  0.73102200  0.63874100  0.95022470  1
  H  1766  1  0.62666000  0.73491500  0.95022770  1
  H  1767  1  0.47386700  0.88496200  0.84899100  1
  H  1768  1  0.47128400  0.88199000  0.88952100  1
  H  1769  1  0.48566000  0.77485200  0.92840270  1
  H  1770  1  0.41000500  0.84889050  0.95211170  1
  H  1771  1  0.57195400  0.88089900  0.92486070  1
  H  1772  1  0.49701900  0.95446350  0.94846470  1
  H  1773  1  0.38127400  0.03067700  0.94648570  1
  H  1774  1  0.32640400  0.10671300  0.97279570  1
  H  1775  1  0.35435300  0.96899400  0.01723500  1
  H  1776  1  0.40981600  0.89313650  0.99101768  1
  H  1777  1  0.56954400  0.89262450  0.81668300  1
  H  1778  1  0.49508400  0.96514200  0.79247400  1
  H  1779  1  0.33362700  0.94669250  0.78252500  1
  H  1780  1  0.26476100  0.00007000  0.75456700  1
  H  1781  1  0.39555600  0.03551200  0.72601800  1
  H  1782  1  0.46645300  0.97768150  0.75333700  1
  H  1783  1  0.42607800  0.84541300  0.78221800  1
  H  1784  1  0.49889500  0.77440600  0.80689300  1
  H  1785  1  0.97647800  0.34301450  0.94648770  1
  H  1786  1  0.03128100  0.26702100  0.97282270  1
  H  1787  1  0.94780400  0.48060800  0.99102368  1
  H  1788  1  0.00321300  0.40480200  0.01725000  1
  H  1861  1  0.33039300  0.25189400  0.05928100  1
  H  1862  1  0.38818700  0.26508450  0.08658500  1
  H  1863  1  0.36586800  0.08573450  0.08791100  1
  H  1864  1  0.41920300  0.10138850  0.11587200  1
  H  1865  1  0.52043300  0.09265700  0.11560200  1
  H  1866  1  0.59129000  0.09470700  0.14028800  1
  H  1867  1  0.40052500  0.28143300  0.12570100  1
  H  1868  1  0.47289900  0.28361300  0.14991700  1
  H  1869  1  0.62776100  0.18877950  0.12171900  1
  H  1870  1  0.72979500  0.18532350  0.12173200  1
  H  1871  1  0.67849100  0.18754200  0.18388300  1
  H  1872  1  0.67868800  0.18711750  0.22142400  1
  H  1873  1  0.48053900  0.18039500  0.18230600  1
  H  1874  1  0.48348100  0.17482800  0.22283500  1
  H  1875  1  0.59063900  0.08209750  0.26172800  1
  H  1876  1  0.51665000  0.08039000  0.28543000  1
  H  1877  1  0.48444100  0.27442100  0.25818900  1
  H  1878  1  0.41091600  0.27296700  0.28179200  1
  H  1879  1  0.63039900  0.18331650  0.28356500  1
  H  1880  1  0.72659300  0.19146950  0.28357400  1
  H  1881  1  0.87675600  0.19409050  0.18234900  1
  H  1882  1  0.87382700  0.19953700  0.22288100  1
  H  1883  1  0.76663700  0.29245000  0.26169600  1
  H  1884  1  0.84063100  0.29414200  0.28540800  1
  H  1885  1  0.87260300  0.10008700  0.25827900  1
  H  1886  1  0.94612000  0.10153300  0.28188500  1
  H  1887  1  0.02231700  0.14100200  0.27986100  1
  H  1888  1  0.09833600  0.11973900  0.30617700  1
  H  1889  1  0.96067800  0.22975050  0.35060500  1
  H  1890  1  0.88475600  0.25023250  0.32434800  1
  H  1891  1  0.88430500  0.09087850  0.15000800  1
  H  1892  1  0.95682800  0.09281550  0.12580200  1
  H  1893  1  0.93846800  0.27272250  0.11588400  1
  H  1894  1  0.99188800  0.28818350  0.08791400  1
  H  1895  1  0.02706900  0.12209550  0.05933500  1
  H  1896  1  0.96923800  0.10904200  0.08664800  1
  H  1897  1  0.83716400  0.28158750  0.11558700  1
  H  1898  1  0.76615500  0.27977300  0.14025900  1
  H  1899  1  0.33480200  0.23343050  0.27982500  1
  H  1900  1  0.25881500  0.25464300  0.30614500  1
  H  1901  1  0.47237000  0.12440500  0.32434800  1
  H  1902  1  0.39648500  0.14485950  0.35057800  1
  H  1909  1  0.18228600  0.36894900  0.36273500  1
  H  1910  1  0.26337500  0.20595400  0.39893500  1
  H  1917  1  0.36072500  0.00195750  0.69613800  1
  H  1918  1  0.19760900  0.08371200  0.73227900  1
  H  1925  1  0.99350900  0.19053050  0.02947000  1
  H  1926  1  0.07550300  0.27165150  0.06560900  1
  H  1933  1  0.17500400  0.00553000  0.36276300  1
  H  1934  1  0.09398000  0.16860650  0.39892500  1
  H  1941  1  0.99731900  0.37229450  0.69607600  1
  H  1942  1  0.16031700  0.29047150  0.73227300  1
  H  1949  1  0.36383400  0.18353900  0.02939800  1
  H  1950  1  0.28239200  0.10204350  0.06562500  1
  N  4  1  0.17893200  0.68717000  0.96623000  1
  N  8  1  0.17655500  0.77410500  0.00034100  1
  N  14  1  0.17896300  0.68718250  0.03450700  1
  N  20  1  0.18128100  0.60027750  0.00035300  1
  N  118  1  0.67887100  0.68691550  0.29956500  1
  N  122  1  0.76577600  0.60233800  0.33367700  1
  N  128  1  0.67885200  0.68685700  0.36784000  1
  N  134  1  0.59196000  0.77145150  0.33368500  1
  N  232  1  0.67858500  0.18737450  0.63290900  1
  N  236  1  0.59398500  0.18506250  0.66701600  1
  N  242  1  0.67859700  0.18726350  0.70118400  1
  N  248  1  0.76318600  0.18959900  0.66703400  1
  N  344  1  0.23861900  0.28964600  0.81164700  1
  N  346  1  0.28492000  0.19979850  0.83152300  1
  N  352  1  0.28149300  0.02474750  0.14502900  1
  N  354  1  0.19160500  0.06819750  0.16486700  1
  N  360  1  0.01642800  0.24686900  0.47835600  1
  N  362  1  0.06002100  0.29318950  0.49819700  1
  N  368  1  0.11858500  0.08480750  0.81167300  1
  N  370  1  0.07232700  0.17467600  0.83152300  1
  N  376  1  0.07659500  0.34947700  0.14499700  1
  N  378  1  0.16643900  0.30598200  0.16487200  1
  N  384  1  0.34100800  0.12707350  0.47832700  1
  N  386  1  0.29775200  0.08056800  0.49820800  1
  N  1564  1  0.17893200  0.68717000  0.50183800  1
  N  1568  1  0.17655500  0.77410500  0.53594900  1
  N  1574  1  0.17896300  0.68718250  0.57011500  1
  N  1580  1  0.18128100  0.60027750  0.53596100  1
  N  1678  1  0.67887100  0.68691550  0.83517300  1
  N  1682  1  0.76577600  0.60233800  0.86928500  1
  N  1688  1  0.67885200  0.68685700  0.90344770  1
  N  1694  1  0.59196000  0.77145150  0.86929300  1
  N  1792  1  0.67858500  0.18737450  0.16851700  1
  N  1796  1  0.59398500  0.18506250  0.20262400  1
  N  1802  1  0.67859700  0.18726350  0.23679200  1
  N  1808  1  0.76318600  0.18959900  0.20264200  1
  N  1904  1  0.23861900  0.28964600  0.34725500  1
  N  1906  1  0.28492000  0.19979850  0.36713100  1
  N  1912  1  0.28149300  0.02474750  0.68063700  1
  N  1914  1  0.19160500  0.06819750  0.70047500  1
  N  1920  1  0.01642800  0.24686900  0.01396400  1
  N  1922  1  0.06002100  0.29318950  0.03380500  1
  N  1928  1  0.11858500  0.08480750  0.34728100  1
  N  1930  1  0.07232700  0.17467600  0.36713100  1
  N  1936  1  0.07659500  0.34947700  0.68060500  1
  N  1938  1  0.16643900  0.30598200  0.70048000  1
  N  1944  1  0.34100800  0.12707350  0.01393500  1
  N  1946  1  0.29775200  0.08056800  0.03381600  1
