# generated using pymatgen
data_H14C15N4
_symmetry_space_group_name_H-M   'P 1'
_cell_length_a   17.52340000
_cell_length_b   39.66150000
_cell_length_c   39.66150000
_cell_angle_alpha   120.00000000
_cell_angle_beta   90.00000000
_cell_angle_gamma   90.00000000
_symmetry_Int_Tables_number   1
_chemical_formula_structural   H14C15N4
_chemical_formula_sum   'H336 C360 N96'
_cell_volume   23871.91594913
_cell_formula_units_Z   24
loop_
 _symmetry_equiv_pos_site_id
 _symmetry_equiv_pos_as_xyz
  1  'x, y, z'
loop_
 _atom_site_type_symbol
 _atom_site_label
 _atom_site_symmetry_multiplicity
 _atom_site_fract_x
 _atom_site_fract_y
 _atom_site_fract_z
 _atom_site_occupancy
  C  1  1  0.80527200  0.55434000  0.45266900  1
  C  2  1  0.73809800  0.52611000  0.44761900  1
  C  3  1  0.76800800  0.59586500  0.46681800  1
  C  4  1  0.70572000  0.59558000  0.43747200  1
  C  7  1  0.64423000  0.56477500  0.43286600  1
  C  8  1  0.67579500  0.52241400  0.41747600  1
  C  13  1  0.71712100  0.51005400  0.37746700  1
  C  14  1  0.78306200  0.53921400  0.38062200  1
  C  17  1  0.74631700  0.58054600  0.39716700  1
  C  20  1  0.84154400  0.54125600  0.41154800  1
  C  23  1  0.47200700  0.88620400  0.43597900  1
  C  24  1  0.40479000  0.90939800  0.46416900  1
  C  25  1  0.43481200  0.85880800  0.39444200  1
  C  26  1  0.37249000  0.82975600  0.39471900  1
  C  29  1  0.31095000  0.85597300  0.42548700  1
  C  30  1  0.34245000  0.88296300  0.46785800  1
  C  35  1  0.38369800  0.85533100  0.48026000  1
  C  36  1  0.44967800  0.82931400  0.45114300  1
  C  39  1  0.41301400  0.80450300  0.40979500  1
  C  42  1  0.50820100  0.85818600  0.44910700  1
  C  45  1  0.13886600  0.53760000  0.10408000  1
  C  46  1  0.07173200  0.54260200  0.08085300  1
  C  47  1  0.10157800  0.52349700  0.13148800  1
  C  48  1  0.03927400  0.55285700  0.16051600  1
  C  51  1  0.97780600  0.55740300  0.13426800  1
  C  52  1  0.00938200  0.57274400  0.10725700  1
  C  57  1  0.05065200  0.61277700  0.13488200  1
  C  58  1  0.11657600  0.60967800  0.16092900  1
  C  61  1  0.07984200  0.59317400  0.18575200  1
  C  64  1  0.17509200  0.57874200  0.13208600  1
  C  67  1  0.30535200  0.43114800  0.54246100  1
  C  68  1  0.23818400  0.45937600  0.54749500  1
  C  69  1  0.26808200  0.38962700  0.52833600  1
  C  70  1  0.20580400  0.38993500  0.55769900  1
  C  73  1  0.14432200  0.42073500  0.56228300  1
  C  74  1  0.17588400  0.46309300  0.57764900  1
  C  79  1  0.21720600  0.47547300  0.61766200  1
  C  80  1  0.28315200  0.44632300  0.61452500  1
  C  83  1  0.24642000  0.40499100  0.59800200  1
  C  86  1  0.34162900  0.44425600  0.58358600  1
  C  89  1  0.97202000  0.09925700  0.55920400  1
  C  90  1  0.90484200  0.07606600  0.53098500  1
  C  91  1  0.93477200  0.12663800  0.60073100  1
  C  92  1  0.87246300  0.15569200  0.60045000  1
  C  95  1  0.81096600  0.12948000  0.56965500  1
  C  96  1  0.84250700  0.10250000  0.52728900  1
  C  101  1  0.88379000  0.13014800  0.51491400  1
  C  102  1  0.94974200  0.15616300  0.54406200  1
  C  105  1  0.91302300  0.18095500  0.58539900  1
  C  108  1  0.00825200  0.12729100  0.54610600  1
  C  111  1  0.63870700  0.44781500  0.89106500  1
  C  112  1  0.57152100  0.44281900  0.91427400  1
  C  113  1  0.60146400  0.46193600  0.86366100  1
  C  114  1  0.53914700  0.43258800  0.83462400  1
  C  117  1  0.47764200  0.42803600  0.86085400  1
  C  118  1  0.50919300  0.41267700  0.88785300  1
  C  123  1  0.55046500  0.37264800  0.86022400  1
  C  124  1  0.61642000  0.37574900  0.83419300  1
  C  127  1  0.57971100  0.39226800  0.80937900  1
  C  130  1  0.67492700  0.40667600  0.86305300  1
  C  133  1  0.99921800  0.54217600  0.18833500  1
  C  134  1  0.01671400  0.50940100  0.19224100  1
  C  136  1  0.92539100  0.52675500  0.24378900  1
  C  137  1  0.90304900  0.55987000  0.24135000  1
  C  138  1  0.94118700  0.56675000  0.21398600  1
  C  140  1  0.89761600  0.52081100  0.27413200  1
  C  141  1  0.83719600  0.49522800  0.27038800  1
  C  142  1  0.80291500  0.49982100  0.30501700  1
  C  143  1  0.82495300  0.52950000  0.34284800  1
  C  144  1  0.88704200  0.55286700  0.34352100  1
  C  155  1  0.66571100  0.63410400  0.44819800  1
  C  156  1  0.68323000  0.67075100  0.48101000  1
  C  158  1  0.59195600  0.70503900  0.46374300  1
  C  159  1  0.56956900  0.66951600  0.43059900  1
  C  160  1  0.60766900  0.63523800  0.42365900  1
  C  162  1  0.56425200  0.74137800  0.46977800  1
  C  163  1  0.50353300  0.76308300  0.49518600  1
  C  164  1  0.46925800  0.79308400  0.49053600  1
  C  165  1  0.49153100  0.80129200  0.46092500  1
  C  166  1  0.55373500  0.77863100  0.43763500  1
  C  177  1  0.33252200  0.80195400  0.35618300  1
  C  178  1  0.35016000  0.79807900  0.31953200  1
  C  180  1  0.25885400  0.74654400  0.28522600  1
  C  181  1  0.23639200  0.74894400  0.32074900  1
  C  182  1  0.27446200  0.77628100  0.35503600  1
  C  184  1  0.23116000  0.71624500  0.24888600  1
  C  185  1  0.17044600  0.71994900  0.22718000  1
  C  186  1  0.13615000  0.68529800  0.19719000  1
  C  187  1  0.15844000  0.64747400  0.18895700  1
  C  188  1  0.22056800  0.64685400  0.21166300  1
  C  199  1  0.49913200  0.44328700  0.80680600  1
  C  200  1  0.51668100  0.47606300  0.80291000  1
  C  202  1  0.42537400  0.45874600  0.75136900  1
  C  203  1  0.40300400  0.42561700  0.75377700  1
  C  204  1  0.44111300  0.41872200  0.78114000  1
  C  206  1  0.39759400  0.46470100  0.72103300  1
  C  207  1  0.33711000  0.49024900  0.72477300  1
  C  208  1  0.30286400  0.48566500  0.69013900  1
  C  209  1  0.32505600  0.45606600  0.65230200  1
  C  210  1  0.38714000  0.43270100  0.65164500  1
  C  221  1  0.16577200  0.35142600  0.54701100  1
  C  222  1  0.18323600  0.31475700  0.51421300  1
  C  224  1  0.09195800  0.28054300  0.53156900  1
  C  225  1  0.06963200  0.31608800  0.56470000  1
  C  226  1  0.10776400  0.35033800  0.57158800  1
  C  228  1  0.06421800  0.24424900  0.52562500  1
  C  229  1  0.00377800  0.22241000  0.50005800  1
  C  230  1  0.96952000  0.19237300  0.50466000  1
  C  231  1  0.99160600  0.18422200  0.53433400  1
  C  232  1  0.05370600  0.20691900  0.55768600  1
  C  243  1  0.83246500  0.18349300  0.63897700  1
  C  244  1  0.85000700  0.18733400  0.67562300  1
  C  246  1  0.75871800  0.23888200  0.70991500  1
  C  247  1  0.73630800  0.23649600  0.67439200  1
  C  248  1  0.77440400  0.20915900  0.64011100  1
  C  250  1  0.73101700  0.26918700  0.74625600  1
  C  251  1  0.67032100  0.26548100  0.76796900  1
  C  252  1  0.63604200  0.30012900  0.79797300  1
  C  253  1  0.65829000  0.33795000  0.80617700  1
  C  254  1  0.72047100  0.33858400  0.78350500  1
  C  265  1  0.11362600  0.49140300  0.57939800  1
  C  266  1  0.03609400  0.48040200  0.56949200  1
  C  268  1  0.01156800  0.53084400  0.55418300  1
  C  269  1  0.08391600  0.54763100  0.56964300  1
  C  270  1  0.13212000  0.52822200  0.58345600  1
  C  272  1  0.96771200  0.53786000  0.52796400  1
  C  273  1  0.95788000  0.50815100  0.48854000  1
  C  274  1  0.90489700  0.51501100  0.46584700  1
  C  275  1  0.86486700  0.55066000  0.47903700  1
  C  276  1  0.88088700  0.57937200  0.51806700  1
  C  287  1  0.78026100  0.07591500  0.49898300  1
  C  288  1  0.70281300  0.07689600  0.51005500  1
  C  290  1  0.67834400  0.01123600  0.45955800  1
  C  291  1  0.75065900  0.00991800  0.44275100  1
  C  292  1  0.79876000  0.04318300  0.46213700  1
  C  294  1  0.63453900  0.97795800  0.45248800  1
  C  295  1  0.62462300  0.96825400  0.48220400  1
  C  296  1  0.57160800  0.93871100  0.47533500  1
  C  297  1  0.53160900  0.91625900  0.43967700  1
  C  298  1  0.54776000  0.92653300  0.41094700  1
  C  309  1  0.44699200  0.41097900  0.91447100  1
  C  310  1  0.36945400  0.42086600  0.91336800  1
  C  312  1  0.34488800  0.43587200  0.97902600  1
  C  313  1  0.41732200  0.42048600  0.98033100  1
  C  314  1  0.46550500  0.40672800  0.94711300  1
  C  316  1  0.30115200  0.46216900  0.01228100  1
  C  317  1  0.29155400  0.50162100  0.02204300  1
  C  318  1  0.23863000  0.52436600  0.05160900  1
  C  319  1  0.19847200  0.51120000  0.07405600  1
  C  320  1  0.21427400  0.47213900  0.06369800  1
  C  331  1  0.61357500  0.49407600  0.41570500  1
  C  332  1  0.53604400  0.50507800  0.42561200  1
  C  334  1  0.51154400  0.45461900  0.44089800  1
  C  335  1  0.58390700  0.43785100  0.42543400  1
  C  336  1  0.63204100  0.45720700  0.41153300  1
  C  338  1  0.46774100  0.44760500  0.46713200  1
  C  339  1  0.45796000  0.47731100  0.50656000  1
  C  340  1  0.40500200  0.47045700  0.52926700  1
  C  341  1  0.36494600  0.43481400  0.51608200  1
  C  342  1  0.38097600  0.40608900  0.47706000  1
  C  353  1  0.28018600  0.90955700  0.49614000  1
  C  354  1  0.20266600  0.90843900  0.48512900  1
  C  356  1  0.17813900  0.97416800  0.53564100  1
  C  357  1  0.25046000  0.97545700  0.55244400  1
  C  358  1  0.29866400  0.94223900  0.53301200  1
  C  360  1  0.13435200  0.00742700  0.54268300  1
  C  361  1  0.12460000  0.01718400  0.51299600  1
  C  362  1  0.07165800  0.04676100  0.51987300  1
  C  363  1  0.03161400  0.06920700  0.55551900  1
  C  364  1  0.04756000  0.05884800  0.58420800  1
  C  375  1  0.94716100  0.57440500  0.08062500  1
  C  376  1  0.86966500  0.56443900  0.08169100  1
  C  378  1  0.84514500  0.54928700  0.01603200  1
  C  379  1  0.91751500  0.56471200  0.01467800  1
  C  380  1  0.96567900  0.57855200  0.04791700  1
  C  382  1  0.80130100  0.52307900  0.98277200  1
  C  383  1  0.79138300  0.48366700  0.97308900  1
  C  384  1  0.73833900  0.46098800  0.94356200  1
  C  385  1  0.69831700  0.47418400  0.92110800  1
  C  386  1  0.71446800  0.51318200  0.93136200  1
  C  793  1  0.29167400  0.22656600  0.78044300  1
  C  794  1  0.22450000  0.19833600  0.77539300  1
  C  795  1  0.25441000  0.26809100  0.79459200  1
  C  796  1  0.19212200  0.26780600  0.76524600  1
  C  799  1  0.13063200  0.23700100  0.76064000  1
  C  800  1  0.16219700  0.19464000  0.74525000  1
  C  805  1  0.20352300  0.18228000  0.70524100  1
  C  806  1  0.26946400  0.21144000  0.70839600  1
  C  809  1  0.23271900  0.25277200  0.72494100  1
  C  812  1  0.32794600  0.21348200  0.73932200  1
  C  815  1  0.95840850  0.55843000  0.76375300  1
  C  816  1  0.89119150  0.58162400  0.79194300  1
  C  817  1  0.92121350  0.53103400  0.72221600  1
  C  818  1  0.85889150  0.50198200  0.72249300  1
  C  821  1  0.79735200  0.52819900  0.75326100  1
  C  822  1  0.82885150  0.55518900  0.79563200  1
  C  827  1  0.87009950  0.52755700  0.80803400  1
  C  828  1  0.93607950  0.50154000  0.77891700  1
  C  831  1  0.89941550  0.47672900  0.73756900  1
  C  834  1  0.99460252  0.53041200  0.77688100  1
  C  837  1  0.62526800  0.20982600  0.43185400  1
  C  838  1  0.55813400  0.21482800  0.40862700  1
  C  839  1  0.58798000  0.19572300  0.45926200  1
  C  840  1  0.52567600  0.22508300  0.48829000  1
  C  843  1  0.46420800  0.22962900  0.46204200  1
  C  844  1  0.49578400  0.24497000  0.43503100  1
  C  849  1  0.53705400  0.28500300  0.46265600  1
  C  850  1  0.60297800  0.28190400  0.48870300  1
  C  853  1  0.56624400  0.26540000  0.51352600  1
  C  856  1  0.66149400  0.25096800  0.45986000  1
  C  859  1  0.79175400  0.10337400  0.87023500  1
  C  860  1  0.72458600  0.13160200  0.87526900  1
  C  861  1  0.75448400  0.06185300  0.85611000  1
  C  862  1  0.69220600  0.06216100  0.88547300  1
  C  865  1  0.63072400  0.09296100  0.89005700  1
  C  866  1  0.66228600  0.13531900  0.90542300  1
  C  871  1  0.70360800  0.14769900  0.94543600  1
  C  872  1  0.76955400  0.11854900  0.94229900  1
  C  875  1  0.73282200  0.07721700  0.92577600  1
  C  878  1  0.82803050  0.11648200  0.91136000  1
  C  881  1  0.45842200  0.77148300  0.88697800  1
  C  882  1  0.39124400  0.74829200  0.85875900  1
  C  883  1  0.42117400  0.79886400  0.92850500  1
  C  884  1  0.35886500  0.82791800  0.92822400  1
  C  887  1  0.29736800  0.80170600  0.89742860  1
  C  888  1  0.32890900  0.77472600  0.85506260  1
  C  893  1  0.37019200  0.80237400  0.84268760  1
  C  894  1  0.43614400  0.82838900  0.87183560  1
  C  897  1  0.39942500  0.85318100  0.91317260  1
  C  900  1  0.49465400  0.79951700  0.87387960  1
  C  903  1  0.12510900  0.12004100  0.21883860  1
  C  904  1  0.05792300  0.11504500  0.24204800  1
  C  905  1  0.08786600  0.13416200  0.19143460  1
  C  906  1  0.02554900  0.10481400  0.16239760  1
  C  909  1  0.96404350  0.10026200  0.18862760  1
  C  910  1  0.99559452  0.08490300  0.21562700  1
  C  915  1  0.03686700  0.04487400  0.18799800  1
  C  916  1  0.10282200  0.04797500  0.16196700  1
  C  919  1  0.06611300  0.06449400  0.13715260  1
  C  922  1  0.16132900  0.07890200  0.19082700  1
  C  925  1  0.48562000  0.21440200  0.51610900  1
  C  926  1  0.50311600  0.18162700  0.52001500  1
  C  928  1  0.41179300  0.19898100  0.57156300  1
  C  929  1  0.38945100  0.23209600  0.56912400  1
  C  930  1  0.42758900  0.23897600  0.54176000  1
  C  932  1  0.38401800  0.19303700  0.60190600  1
  C  933  1  0.32359800  0.16745400  0.59816200  1
  C  934  1  0.28931700  0.17204700  0.63279100  1
  C  935  1  0.31135500  0.20172600  0.67062200  1
  C  936  1  0.37344400  0.22509300  0.67129500  1
  C  947  1  0.15211300  0.30633000  0.77597200  1
  C  948  1  0.16963200  0.34297700  0.80878400  1
  C  950  1  0.07835800  0.37726500  0.79151700  1
  C  951  1  0.05597100  0.34174200  0.75837300  1
  C  952  1  0.09407100  0.30746400  0.75143300  1
  C  954  1  0.05065400  0.41360400  0.79755200  1
  C  955  1  0.98993452  0.43530900  0.82296000  1
  C  956  1  0.95565950  0.46531000  0.81831000  1
  C  957  1  0.97793250  0.47351800  0.78869900  1
  C  958  1  0.04013700  0.45085700  0.76540900  1
  C  969  1  0.81892350  0.47418000  0.68395700  1
  C  970  1  0.83656150  0.47030500  0.64730600  1
  C  972  1  0.74525600  0.41877000  0.61300000  1
  C  973  1  0.72279400  0.42117000  0.64852300  1
  C  974  1  0.76086400  0.44850700  0.68281000  1
  C  976  1  0.71756200  0.38847100  0.57666000  1
  C  977  1  0.65684800  0.39217500  0.55495400  1
  C  978  1  0.62255200  0.35752400  0.52496400  1
  C  979  1  0.64484200  0.31970000  0.51673100  1
  C  980  1  0.70697000  0.31908000  0.53943700  1
  C  991  1  0.98553352  0.11551300  0.13457960  1
  C  992  1  0.00308300  0.14828900  0.13068400  1
  C  994  1  0.91177550  0.13097200  0.07914300  1
  C  995  1  0.88940550  0.09784300  0.08155100  1
  C  996  1  0.92751450  0.09094800  0.10891360  1
  C  998  1  0.88399550  0.13692700  0.04880700  1
  C  999  1  0.82351150  0.16247500  0.05254700  1
  C  1000  1  0.78926600  0.15789100  0.01791300  1
  C  1001  1  0.81145750  0.12829200  0.98007600  1
  C  1002  1  0.87354150  0.10492700  0.97941900  1
  C  1013  1  0.65217400  0.02365200  0.87478500  1
  C  1014  1  0.66963800  0.98698320  0.84198720  1
  C  1016  1  0.57836000  0.95276920  0.85934320  1
  C  1017  1  0.55603400  0.98831420  0.89247420  1
  C  1018  1  0.59416600  0.02256400  0.89936200  1
  C  1020  1  0.55062000  0.91647520  0.85339920  1
  C  1021  1  0.49018000  0.89463600  0.82783200  1
  C  1022  1  0.45592200  0.86459900  0.83243400  1
  C  1023  1  0.47800800  0.85644800  0.86210757  1
  C  1024  1  0.54010800  0.87914500  0.88545957  1
  C  1035  1  0.31886700  0.85571900  0.96675100  1
  C  1036  1  0.33640900  0.85956000  0.00339700  1
  C  1038  1  0.24512000  0.91110820  0.03768920  1
  C  1039  1  0.22271000  0.90872220  0.00216580  1
  C  1040  1  0.26080600  0.88138500  0.96788460  1
  C  1042  1  0.21741900  0.94141320  0.07403020  1
  C  1043  1  0.15672300  0.93770720  0.09574320  1
  C  1044  1  0.12244400  0.97235520  0.12574720  1
  C  1045  1  0.14469200  0.01017600  0.13395100  1
  C  1046  1  0.20687300  0.01081000  0.11127900  1
  C  1057  1  0.60002800  0.16362900  0.90717200  1
  C  1058  1  0.52249600  0.15262800  0.89726600  1
  C  1060  1  0.49797000  0.20307000  0.88195700  1
  C  1061  1  0.57031800  0.21985700  0.89741700  1
  C  1062  1  0.61852200  0.20044800  0.91123000  1
  C  1064  1  0.45411400  0.21008600  0.85573800  1
  C  1065  1  0.44428200  0.18037700  0.81631400  1
  C  1066  1  0.39129900  0.18723700  0.79362100  1
  C  1067  1  0.35126900  0.22288600  0.80681100  1
  C  1068  1  0.36728900  0.25159800  0.84584100  1
  C  1079  1  0.26666300  0.74814100  0.82675660  1
  C  1080  1  0.18921500  0.74912200  0.83782860  1
  C  1082  1  0.16474600  0.68346200  0.78733200  1
  C  1083  1  0.23706100  0.68214400  0.77052460  1
  C  1084  1  0.28516200  0.71540900  0.78991060  1
  C  1086  1  0.12094100  0.65018400  0.78026200  1
  C  1087  1  0.11102500  0.64048000  0.80997800  1
  C  1088  1  0.05801000  0.61093700  0.80310900  1
  C  1089  1  0.01801100  0.58848500  0.76745100  1
  C  1090  1  0.03416200  0.59875900  0.73872100  1
  C  1101  1  0.93339350  0.08320500  0.24224500  1
  C  1102  1  0.85585550  0.09309200  0.24114200  1
  C  1104  1  0.83128950  0.10809800  0.30680000  1
  C  1105  1  0.90372350  0.09271200  0.30810500  1
  C  1106  1  0.95190650  0.07895400  0.27488700  1
  C  1108  1  0.78755400  0.13439500  0.34005500  1
  C  1109  1  0.77795600  0.17384700  0.34981700  1
  C  1110  1  0.72503200  0.19659200  0.37938300  1
  C  1111  1  0.68487400  0.18342600  0.40183000  1
  C  1112  1  0.70067600  0.14436500  0.39147200  1
  C  1123  1  0.09997700  0.16630200  0.74347900  1
  C  1124  1  0.02244600  0.17730400  0.75338600  1
  C  1126  1  0.99794552  0.12684500  0.76867200  1
  C  1127  1  0.07030900  0.11007700  0.75320800  1
  C  1128  1  0.11844300  0.12943300  0.73930700  1
  C  1130  1  0.95414250  0.11983100  0.79490600  1
  C  1131  1  0.94436150  0.14953700  0.83433400  1
  C  1132  1  0.89140350  0.14268300  0.85704100  1
  C  1133  1  0.85134750  0.10704000  0.84385600  1
  C  1134  1  0.86737750  0.07831500  0.80483400  1
  C  1145  1  0.76658800  0.58178300  0.82391400  1
  C  1146  1  0.68906800  0.58066500  0.81290300  1
  C  1148  1  0.66454100  0.64639400  0.86341500  1
  C  1149  1  0.73686200  0.64768300  0.88021800  1
  C  1150  1  0.78506600  0.61446500  0.86078600  1
  C  1152  1  0.62075400  0.67965300  0.87045700  1
  C  1153  1  0.61100200  0.68941000  0.84077000  1
  C  1154  1  0.55806000  0.71898700  0.84764700  1
  C  1155  1  0.51801600  0.74143300  0.88329300  1
  C  1156  1  0.53396200  0.73107400  0.91198200  1
  C  1167  1  0.43356300  0.24663100  0.40839900  1
  C  1168  1  0.35606700  0.23666500  0.40946500  1
  C  1170  1  0.33154700  0.22151300  0.34380600  1
  C  1171  1  0.40391700  0.23693800  0.34245200  1
  C  1172  1  0.45208100  0.25077800  0.37569100  1
  C  1174  1  0.28770300  0.19530500  0.31054600  1
  C  1175  1  0.27778500  0.15589300  0.30086300  1
  C  1176  1  0.22474100  0.13321400  0.27133600  1
  C  1177  1  0.18471900  0.14641000  0.24888200  1
  C  1178  1  0.20087000  0.18540800  0.25913560  1
  H  5  1  0.81323400  0.61656800  0.47083300  1
  H  6  1  0.74123900  0.60633000  0.49526100  1
  H  9  1  0.61637500  0.57539400  0.46114900  1
  H  10  1  0.60029900  0.56250800  0.41237100  1
  H  11  1  0.71132400  0.53577700  0.47600400  1
  H  12  1  0.76177600  0.49736000  0.43824200  1
  H  15  1  0.67396200  0.50809100  0.35662900  1
  H  16  1  0.74120900  0.48089000  0.36594300  1
  H  18  1  0.70642300  0.57884200  0.37517600  1
  H  19  1  0.78932300  0.60217700  0.40095700  1
  H  21  1  0.86749700  0.51247600  0.39855100  1
  H  22  1  0.88802500  0.56153100  0.41635800  1
  H  27  1  0.48007100  0.84210900  0.37376600  1
  H  28  1  0.40809400  0.87677200  0.38394700  1
  H  31  1  0.28314800  0.87362300  0.41483800  1
  H  32  1  0.26698600  0.83775800  0.42774800  1
  H  33  1  0.37806600  0.92809700  0.45447000  1
  H  34  1  0.42841600  0.92878600  0.49292800  1
  H  37  1  0.34049400  0.83646800  0.48221400  1
  H  38  1  0.40773400  0.87298100  0.50943600  1
  H  40  1  0.37309000  0.78422600  0.41149300  1
  H  41  1  0.45605900  0.78665500  0.38819400  1
  H  43  1  0.53410300  0.87398500  0.47789700  1
  H  44  1  0.55471600  0.84271400  0.42885800  1
  H  49  1  0.14679200  0.51951100  0.14820500  1
  H  50  1  0.07481400  0.49504700  0.11353600  1
  H  53  1  0.94996500  0.52911200  0.11663000  1
  H  54  1  0.93385600  0.57790400  0.15246600  1
  H  55  1  0.04499200  0.51420600  0.06215200  1
  H  56  1  0.09544400  0.55195600  0.06146600  1
  H  59  1  0.00745300  0.63360900  0.15372500  1
  H  60  1  0.07474600  0.62428100  0.11722500  1
  H  62  1  0.03994000  0.61517300  0.20601900  1
  H  63  1  0.12285800  0.58942100  0.20361600  1
  H  65  1  0.20104600  0.59171500  0.11628300  1
  H  66  1  0.22156600  0.57396500  0.14757800  1
  H  71  1  0.31330600  0.36892400  0.52433000  1
  H  72  1  0.24130600  0.37914600  0.49989200  1
  H  75  1  0.11646200  0.41010000  0.53399800  1
  H  76  1  0.10038600  0.42302200  0.58278500  1
  H  77  1  0.21140800  0.44969400  0.51911000  1
  H  78  1  0.26186800  0.48812300  0.55686000  1
  H  81  1  0.17404800  0.47744600  0.63850200  1
  H  82  1  0.24129400  0.50463600  0.62917400  1
  H  84  1  0.20654600  0.40671100  0.62000600  1
  H  85  1  0.28943600  0.38336900  0.59422300  1
  H  87  1  0.36758200  0.47303500  0.59657100  1
  H  88  1  0.38811000  0.42398500  0.57878500  1
  H  93  1  0.98000500  0.14333200  0.62142800  1
  H  94  1  0.90802100  0.10866400  0.61120700  1
  H  97  1  0.78313600  0.11182500  0.58029000  1
  H  98  1  0.76701400  0.14770000  0.56739100  1
  H  99  1  0.87810000  0.05734900  0.54066000  1
  H  100  1  0.92851700  0.05669500  0.50223300  1
  H  103  1  0.84060900  0.14901700  0.51295500  1
  H  104  1  0.90786100  0.11250500  0.48574800  1
  H  106  1  0.87311100  0.20123700  0.58369400  1
  H  107  1  0.95603700  0.19880400  0.60701800  1
  H  109  1  0.03418800  0.11150900  0.51732100  1
  H  110  1  0.05473800  0.14276300  0.56637300  1
  H  115  1  0.64669600  0.46591600  0.84695200  1
  H  116  1  0.57472900  0.49039300  0.88162200  1
  H  119  1  0.44982900  0.45633300  0.87850200  1
  H  120  1  0.43367700  0.40755200  0.84265600  1
  H  121  1  0.54477600  0.47121600  0.93296500  1
  H  122  1  0.59517100  0.43346600  0.93367100  1
  H  125  1  0.50727100  0.35182100  0.84137100  1
  H  126  1  0.57453500  0.36113300  0.87787500  1
  H  128  1  0.53980900  0.37027400  0.78910600  1
  H  129  1  0.62273500  0.39602200  0.79152200  1
  H  131  1  0.70086300  0.39369300  0.87885500  1
  H  132  1  0.72141900  0.41145300  0.84757000  1
  H  139  1  0.92608800  0.59132700  0.21347600  1
  H  146  1  0.75811200  0.48215600  0.30219500  1
  H  147  1  0.90646200  0.57576100  0.36887200  1
  H  148  1  0.05827600  0.49026400  0.17567700  1
  H  150  1  0.83208000  0.46423900  0.21098100  1
  H  151  1  0.76806400  0.45081700  0.23283600  1
  H  153  1  0.83299400  0.60732700  0.26131200  1
  H  154  1  0.81748400  0.58069000  0.28204300  1
  H  161  1  0.59257400  0.61017900  0.39905100  1
  H  168  1  0.42430200  0.80786100  0.50810500  1
  H  169  1  0.57311400  0.78100000  0.41468400  1
  H  170  1  0.72479000  0.67328600  0.50013400  1
  H  172  1  0.49823700  0.73463000  0.52613400  1
  H  173  1  0.43400100  0.76978800  0.53940700  1
  H  175  1  0.49925200  0.64207800  0.38325600  1
  H  176  1  0.48381100  0.68945100  0.40996700  1
  H  183  1  0.25928200  0.77676300  0.38009800  1
  H  190  1  0.09128400  0.68809200  0.18236100  1
  H  191  1  0.24005600  0.62152600  0.20923300  1
  H  192  1  0.39176200  0.81465200  0.31700300  1
  H  194  1  0.16520800  0.77935300  0.25561200  1
  H  195  1  0.10094800  0.75746800  0.22046300  1
  H  197  1  0.16619500  0.72894200  0.34815600  1
  H  198  1  0.15081600  0.70825800  0.30077800  1
  H  205  1  0.42599000  0.39414100  0.78163800  1
  H  212  1  0.25803800  0.50331900  0.69296300  1
  H  213  1  0.40663400  0.40982400  0.62629900  1
  H  214  1  0.55819000  0.49521400  0.81951600  1
  H  216  1  0.33202700  0.52125400  0.78417800  1
  H  217  1  0.26798400  0.53466200  0.76232300  1
  H  219  1  0.33295400  0.37815600  0.73378200  1
  H  220  1  0.31747800  0.40480700  0.71306200  1
  H  227  1  0.09268200  0.37541600  0.59617600  1
  H  234  1  0.92470500  0.17752800  0.48700600  1
  H  235  1  0.07315400  0.20446200  0.58057500  1
  H  236  1  0.22477400  0.31219300  0.49506700  1
  H  238  1  0.99859600  0.25082700  0.46907000  1
  H  239  1  0.93458600  0.21555000  0.45566400  1
  H  241  1  0.99961800  0.34356800  0.61217400  1
  H  242  1  0.98410100  0.29620000  0.58552100  1
  H  249  1  0.75928800  0.20869800  0.61505200  1
  H  256  1  0.59109700  0.29733400  0.81275400  1
  H  257  1  0.73982900  0.36390200  0.78586700  1
  H  258  1  0.89158100  0.17075000  0.67815800  1
  H  260  1  0.66505300  0.20607700  0.73951900  1
  H  261  1  0.60082600  0.22795900  0.77468500  1
  H  263  1  0.66596000  0.25638700  0.64695200  1
  H  264  1  0.65053700  0.27705500  0.69433000  1
  H  271  1  0.18561400  0.53923900  0.59268900  1
  H  278  1  0.89471900  0.49230200  0.43858400  1
  H  279  1  0.85396600  0.60567700  0.53069400  1
  H  280  1  0.01436400  0.45531600  0.56661700  1
  H  282  1  0.03848600  0.46890000  0.48459400  1
  H  283  1  0.98958600  0.45451800  0.44409500  1
  H  285  1  0.16038000  0.59031700  0.57911700  1
  H  286  1  0.07902900  0.59315800  0.55932200  1
  H  293  1  0.85225300  0.04146100  0.45114300  1
  H  300  1  0.56132400  0.93419300  0.49805900  1
  H  301  1  0.52088600  0.91284400  0.38462800  1
  H  302  1  0.68103200  0.09924100  0.53504100  1
  H  304  1  0.70554800  0.00333000  0.52129800  1
  H  305  1  0.65655800  0.97725200  0.53570800  1
  H  307  1  0.82707300  0.97678800  0.40000800  1
  H  308  1  0.74580200  0.95409500  0.39718200  1
  H  315  1  0.51905500  0.39752400  0.94885300  1
  H  322  1  0.22855200  0.55163300  0.05615600  1
  H  323  1  0.18717800  0.45951900  0.07733600  1
  H  324  1  0.34775200  0.42385400  0.89121900  1
  H  326  1  0.37233000  0.50550600  0.98677600  1
  H  327  1  0.32360200  0.54606000  0.01291500  1
  H  329  1  0.49384200  0.41098300  0.01350000  1
  H  330  1  0.41242600  0.43067400  0.03613200  1
  H  337  1  0.68560300  0.44624900  0.40240400  1
  H  344  1  0.39481500  0.49317700  0.55652100  1
  H  345  1  0.35391600  0.37982000  0.46441500  1
  H  346  1  0.51431800  0.53017900  0.42851700  1
  H  348  1  0.53856500  0.51655300  0.51048300  1
  H  349  1  0.48971500  0.53093800  0.55099700  1
  H  351  1  0.66027900  0.39509500  0.41584300  1
  H  352  1  0.57897900  0.39228300  0.43569400  1
  H  359  1  0.35214600  0.94399700  0.54403400  1
  H  366  1  0.06151800  0.05133200  0.49717300  1
  H  367  1  0.02061200  0.07251200  0.61050700  1
  H  368  1  0.18097000  0.88625500  0.46001400  1
  H  370  1  0.20521800  0.98188700  0.47375100  1
  H  371  1  0.15639000  0.00804500  0.45939400  1
  H  373  1  0.32687200  0.00861100  0.59518300  1
  H  374  1  0.24554600  0.03127100  0.59803400  1
  H  381  1  0.01920300  0.58777600  0.04617100  1
  H  388  1  0.72805600  0.43375400  0.93906300  1
  H  389  1  0.68757800  0.52580100  0.91766800  1
  H  390  1  0.84787900  0.56182200  0.10404700  1
  H  392  1  0.87234100  0.47965700  0.00815800  1
  H  393  1  0.82332900  0.43917200  0.98210500  1
  H  395  1  0.99393400  0.57426800  0.98151000  1
  H  396  1  0.91258500  0.55447600  0.95886200  1
  H  797  1  0.29963600  0.28879400  0.79860700  1
  H  798  1  0.22764100  0.27855600  0.82303500  1
  H  801  1  0.10277700  0.24762000  0.78892300  1
  H  802  1  0.08670100  0.23473400  0.74014500  1
  H  803  1  0.19772600  0.20800300  0.80377800  1
  H  804  1  0.24817800  0.16958600  0.76601600  1
  H  807  1  0.16036400  0.18031700  0.68440300  1
  H  808  1  0.22761100  0.15311600  0.69371700  1
  H  810  1  0.19282500  0.25106800  0.70295000  1
  H  811  1  0.27572500  0.27440300  0.72873100  1
  H  813  1  0.35389900  0.18470200  0.72632500  1
  H  814  1  0.37442700  0.23375700  0.74413200  1
  H  819  1  0.96647250  0.51433500  0.70154000  1
  H  820  1  0.89449550  0.54899800  0.71172100  1
  H  823  1  0.76955000  0.54584900  0.74261200  1
  H  824  1  0.75338800  0.50998400  0.75552200  1
  H  825  1  0.86446750  0.60032300  0.78224400  1
  H  826  1  0.91481750  0.60101200  0.82070200  1
  H  829  1  0.82689550  0.50869400  0.80998800  1
  H  830  1  0.89413550  0.54520700  0.83721000  1
  H  832  1  0.85949150  0.45645200  0.73926700  1
  H  833  1  0.94246050  0.45888100  0.71596800  1
  H  835  1  0.02050500  0.54621100  0.80567100  1
  H  836  1  0.04111800  0.51494000  0.75663200  1
  H  841  1  0.63319400  0.19173700  0.47597900  1
  H  842  1  0.56121600  0.16727300  0.44131000  1
  H  845  1  0.43636700  0.20133800  0.44440400  1
  H  846  1  0.42025800  0.25013000  0.48024000  1
  H  847  1  0.53139400  0.18643200  0.38992600  1
  H  848  1  0.58184600  0.22418200  0.38924000  1
  H  851  1  0.49385500  0.30583500  0.48149900  1
  H  852  1  0.56114800  0.29650700  0.44499900  1
  H  854  1  0.52634200  0.28739900  0.53379300  1
  H  855  1  0.60926000  0.26164700  0.53139000  1
  H  857  1  0.68744800  0.26394100  0.44405700  1
  H  858  1  0.70796800  0.24619100  0.47535200  1
  H  863  1  0.79970800  0.04115000  0.85210400  1
  H  864  1  0.72770800  0.05137200  0.82766600  1
  H  867  1  0.60286400  0.08232600  0.86177200  1
  H  868  1  0.58678800  0.09524800  0.91055900  1
  H  869  1  0.69781000  0.12192000  0.84688400  1
  H  870  1  0.74827000  0.16034900  0.88463400  1
  H  873  1  0.66045000  0.14967200  0.96627600  1
  H  874  1  0.72769600  0.17686200  0.95694800  1
  H  876  1  0.69294800  0.07893700  0.94778000  1
  H  877  1  0.77583800  0.05559500  0.92199700  1
  H  879  1  0.85398350  0.14526100  0.92434500  1
  H  880  1  0.87451150  0.09621100  0.90655900  1
  H  885  1  0.46640700  0.81555800  0.94920200  1
  H  886  1  0.39442300  0.78089000  0.93898100  1
  H  889  1  0.26953800  0.78405100  0.90806400  1
  H  890  1  0.25341600  0.81992600  0.89516460  1
  H  891  1  0.36450200  0.72957500  0.86843400  1
  H  892  1  0.41491900  0.72892100  0.83000700  1
  H  895  1  0.32701100  0.82124300  0.84072860  1
  H  896  1  0.39426300  0.78473100  0.81352160  1
  H  898  1  0.35951300  0.87346300  0.91146760  1
  H  899  1  0.44243900  0.87103000  0.93479160  1
  H  901  1  0.52059000  0.78373500  0.84509460  1
  H  902  1  0.54114000  0.81498900  0.89414660  1
  H  907  1  0.13309800  0.13814200  0.17472560  1
  H  908  1  0.06113100  0.16261900  0.20939560  1
  H  911  1  0.93623050  0.12855900  0.20627560  1
  H  912  1  0.92007850  0.07977800  0.17042960  1
  H  913  1  0.03117800  0.14344200  0.26073900  1
  H  914  1  0.08157300  0.10569200  0.26144500  1
  H  917  1  0.99367252  0.02404700  0.16914500  1
  H  918  1  0.06093700  0.03335900  0.20564900  1
  H  920  1  0.02621100  0.04250000  0.11687960  1
  H  921  1  0.10913700  0.06824800  0.11929560  1
  H  923  1  0.18726500  0.06591900  0.20662900  1
  H  924  1  0.20782100  0.08367900  0.17534360  1
  H  931  1  0.41249000  0.26355300  0.54125000  1
  H  938  1  0.24451400  0.15438200  0.62996900  1
  H  939  1  0.39286400  0.24798700  0.69664600  1
  H  940  1  0.54467800  0.16249000  0.50345100  1
  H  942  1  0.31848200  0.13646500  0.53875500  1
  H  943  1  0.25446600  0.12304300  0.56061000  1
  H  945  1  0.31939600  0.27955300  0.58908600  1
  H  946  1  0.30388600  0.25291600  0.60981700  1
  H  953  1  0.07897600  0.28240500  0.72682500  1
  H  960  1  0.91070350  0.48008700  0.83587900  1
  H  961  1  0.05951600  0.45322600  0.74245800  1
  H  962  1  0.21119200  0.34551200  0.82790800  1
  H  964  1  0.98463852  0.40685600  0.85390800  1
  H  965  1  0.92040250  0.44201400  0.86718100  1
  H  967  1  0.98565352  0.31430400  0.71103000  1
  H  968  1  0.97021250  0.36167700  0.73774100  1
  H  975  1  0.74568400  0.44898900  0.70787200  1
  H  982  1  0.57768600  0.36031800  0.51013500  1
  H  983  1  0.72645800  0.29375200  0.53700700  1
  H  984  1  0.87816350  0.48687800  0.64477700  1
  H  986  1  0.65161000  0.45157900  0.58338600  1
  H  987  1  0.58735000  0.42969400  0.54823700  1
  H  989  1  0.65259700  0.40116800  0.67593000  1
  H  990  1  0.63721800  0.38048400  0.62855200  1
  H  997  1  0.91239150  0.06636700  0.10941160  1
  H  1004  1  0.74444000  0.17554500  0.02073700  1
  H  1005  1  0.89303550  0.08205000  0.95407300  1
  H  1006  1  0.04459200  0.16744000  0.14729000  1
  H  1008  1  0.81842850  0.19348000  0.11195200  1
  H  1009  1  0.75438600  0.20688800  0.09009700  1
  H  1011  1  0.81935550  0.05038200  0.06155560  1
  H  1012  1  0.80387950  0.07703300  0.04083600  1
  H  1019  1  0.57908400  0.04764200  0.92395000  1
  H  1026  1  0.41110700  0.84975400  0.81478000  1
  H  1027  1  0.55955600  0.87668800  0.90834860  1
  H  1028  1  0.71117600  0.98441920  0.82284120  1
  H  1030  1  0.48499800  0.92305320  0.79684420  1
  H  1031  1  0.42098800  0.88777600  0.78343800  1
  H  1033  1  0.48602000  0.01579400  0.93994800  1
  H  1034  1  0.47050300  0.96842620  0.91329520  1
  H  1041  1  0.24569000  0.88092400  0.94282560  1
  H  1048  1  0.07749900  0.96956020  0.14052820  1
  H  1049  1  0.22623100  0.03612800  0.11364060  1
  H  1050  1  0.37798300  0.84297600  0.00593200  1
  H  1052  1  0.15145500  0.87830300  0.06729300  1
  H  1053  1  0.08722800  0.90018520  0.10245920  1
  H  1055  1  0.15236200  0.92861320  0.97472580  1
  H  1056  1  0.13693900  0.94928120  0.02210380  1
  H  1063  1  0.67201600  0.21146500  0.92046300  1
  H  1070  1  0.38112100  0.16452800  0.76635800  1
  H  1071  1  0.34036800  0.27790300  0.85846800  1
  H  1072  1  0.50076600  0.12754200  0.89439100  1
  H  1074  1  0.52488800  0.14112600  0.81236800  1
  H  1075  1  0.47598800  0.12674400  0.77186900  1
  H  1077  1  0.64678200  0.26254300  0.90689100  1
  H  1078  1  0.56543100  0.26538400  0.88709600  1
  H  1085  1  0.33865500  0.71368700  0.77891660  1
  H  1092  1  0.04772600  0.60641900  0.82583300  1
  H  1093  1  0.00728800  0.58507000  0.71240200  1
  H  1094  1  0.16743400  0.77146700  0.86281460  1
  H  1096  1  0.19195000  0.67555600  0.84907200  1
  H  1097  1  0.14296000  0.64947800  0.86348200  1
  H  1099  1  0.31347500  0.64901400  0.72778160  1
  H  1100  1  0.23220400  0.62632100  0.72495560  1
  H  1107  1  0.00545700  0.06975000  0.27662700  1
  H  1114  1  0.71495400  0.22385900  0.38393000  1
  H  1115  1  0.67358000  0.13174500  0.40511000  1
  H  1116  1  0.83415350  0.09608000  0.21899300  1
  H  1118  1  0.85873150  0.17773200  0.31455000  1
  H  1119  1  0.81000350  0.21828600  0.34068900  1
  H  1121  1  0.98024352  0.08320900  0.34127400  1
  H  1122  1  0.89882750  0.10290000  0.36390600  1
  H  1129  1  0.17200500  0.11847500  0.73017800  1
  H  1136  1  0.88121650  0.16540300  0.88429500  1
  H  1137  1  0.84031750  0.05204600  0.79218900  1
  H  1138  1  0.00072000  0.20240500  0.75629100  1
  H  1140  1  0.02496700  0.18877900  0.83825700  1
  H  1141  1  0.97611650  0.20316400  0.87877100  1
  H  1143  1  0.14668100  0.06732100  0.74361700  1
  H  1144  1  0.06538100  0.06450900  0.76346800  1
  H  1151  1  0.83854750  0.61622300  0.87180800  1
  H  1158  1  0.54792000  0.72355800  0.82494700  1
  H  1159  1  0.50701400  0.74473800  0.93828100  1
  H  1160  1  0.66737200  0.55848100  0.78778800  1
  H  1162  1  0.69162000  0.65411300  0.80152500  1
  H  1163  1  0.64279200  0.68027100  0.78716800  1
  H  1165  1  0.81327350  0.68083700  0.92295700  1
  H  1166  1  0.73194800  0.70349700  0.92580800  1
  H  1173  1  0.50560500  0.26000200  0.37394500  1
  H  1180  1  0.21445800  0.10598000  0.26683700  1
  H  1181  1  0.17398000  0.19802700  0.24544160  1
  H  1182  1  0.33428100  0.23404800  0.43182100  1
  H  1184  1  0.35874300  0.15188300  0.33593200  1
  H  1185  1  0.30973100  0.11139800  0.30987900  1
  H  1187  1  0.48033600  0.24649400  0.30928360  1
  H  1188  1  0.39898700  0.22670200  0.28663560  1
  N  135  1  0.98130500  0.50338200  0.21944300  1
  N  145  1  0.91866300  0.54842800  0.31047800  1
  N  149  1  0.80989400  0.46796700  0.23506200  1
  N  152  1  0.84738800  0.58506300  0.26396600  1
  N  157  1  0.64786100  0.70399800  0.48708000  1
  N  167  1  0.58532700  0.75004600  0.44212000  1
  N  171  1  0.47602000  0.75494900  0.52236100  1
  N  174  1  0.51392900  0.66700400  0.40542500  1
  N  179  1  0.31482000  0.77090000  0.28627700  1
  N  189  1  0.25222800  0.67991700  0.24022200  1
  N  193  1  0.14296600  0.75526000  0.23530100  1
  N  196  1  0.18067200  0.72631500  0.32326000  1
  N  201  1  0.48127600  0.48211100  0.77572700  1
  N  211  1  0.41872000  0.43711700  0.68468600  1
  N  215  1  0.30972800  0.51746900  0.76009600  1
  N  218  1  0.34735800  0.40042700  0.73114300  1
  N  223  1  0.14783600  0.28152900  0.50818700  1
  N  233  1  0.08530400  0.23552300  0.55323700  1
  N  237  1  0.97643100  0.23047300  0.47280300  1
  N  240  1  0.01400400  0.31865400  0.58990000  1
  N  245  1  0.81464200  0.21451200  0.70887100  1
  N  255  1  0.75206900  0.30551400  0.75491900  1
  N  259  1  0.64283100  0.23016800  0.75984000  1
  N  262  1  0.68065100  0.25915100  0.67188100  1
  N  267  1  0.99111400  0.49881600  0.55604000  1
  N  277  1  0.92890200  0.57191700  0.54070100  1
  N  281  1  0.99687800  0.47377700  0.47144800  1
  N  284  1  0.11008200  0.57957200  0.56903000  1
  N  289  1  0.65775000  0.04507400  0.49159000  1
  N  299  1  0.59578100  0.95662400  0.41841700  1
  N  303  1  0.66350900  0.98558700  0.51661500  1
  N  306  1  0.77683500  0.97739600  0.41078500  1
  N  311  1  0.32444600  0.43419500  0.94521600  1
  N  321  1  0.26218600  0.44945900  0.03357900  1
  N  325  1  0.33072400  0.51868900  0.00478900  1
  N  328  1  0.44350400  0.42104000  0.01285200  1
  N  333  1  0.49107300  0.48665300  0.43905500  1
  N  343  1  0.42891200  0.41355500  0.45440500  1
  N  347  1  0.49697000  0.51168100  0.52364100  1
  N  350  1  0.61008100  0.40591100  0.42604900  1
  N  355  1  0.15769500  0.94030800  0.50357400  1
  N  365  1  0.09552400  0.02873300  0.57673500  1
  N  369  1  0.16362700  0.99992000  0.47863400  1
  N  372  1  0.27659600  0.00797900  0.58442800  1
  N  377  1  0.82455500  0.55111900  0.04988600  1
  N  387  1  0.76251900  0.53581000  0.96143700  1
  N  391  1  0.83028800  0.46659500  0.99042300  1
  N  394  1  0.94367000  0.56413200  0.98214000  1
  N  927  1  0.46770700  0.17560800  0.54721700  1
  N  937  1  0.40506500  0.22065400  0.63825200  1
  N  941  1  0.29629600  0.14019300  0.56283600  1
  N  944  1  0.33379000  0.25728900  0.59174000  1
  N  949  1  0.13426300  0.37622400  0.81485400  1
  N  959  1  0.07172900  0.42227200  0.76989400  1
  N  963  1  0.96242150  0.42717500  0.85013500  1
  N  966  1  0.00033100  0.33923000  0.73319900  1
  N  971  1  0.80122150  0.44312600  0.61405100  1
  N  981  1  0.73863000  0.35214300  0.56799600  1
  N  985  1  0.62936800  0.42748600  0.56307500  1
  N  988  1  0.66707400  0.39854100  0.65103400  1
  N  993  1  0.96767750  0.15433700  0.10350100  1
  N  1003  1  0.90512150  0.10934300  0.01246000  1
  N  1007  1  0.79613000  0.18969500  0.08787000  1
  N  1010  1  0.83375950  0.07265300  0.05891700  1
  N  1015  1  0.63423800  0.95375520  0.83596120  1
  N  1025  1  0.57170600  0.90774920  0.88101120  1
  N  1029  1  0.46283300  0.90269920  0.80057720  1
  N  1032  1  0.50040600  0.99088021  0.91767421  1
  N  1037  1  0.30104400  0.88673800  0.03664500  1
  N  1047  1  0.23847100  0.97774020  0.08269320  1
  N  1051  1  0.12923300  0.90239420  0.08761420  1
  N  1054  1  0.16705300  0.93137720  0.99965480  1
  N  1059  1  0.47751600  0.17104200  0.88381400  1
  N  1069  1  0.41530400  0.24414300  0.86847500  1
  N  1073  1  0.48328000  0.14600300  0.79922200  1
  N  1076  1  0.59648400  0.25179800  0.89680400  1
  N  1081  1  0.14415200  0.71730000  0.81936400  1
  N  1091  1  0.08218300  0.62885000  0.74619100  1
  N  1095  1  0.14991100  0.65781300  0.84438900  1
  N  1098  1  0.26323700  0.64962200  0.73855860  1
  N  1103  1  0.81084750  0.10642100  0.27299000  1
  N  1113  1  0.74858800  0.12168500  0.36135300  1
  N  1117  1  0.81712550  0.19091500  0.33256300  1
  N  1120  1  0.92990550  0.09326600  0.34062600  1
  N  1125  1  0.97747450  0.15887900  0.76682900  1
  N  1135  1  0.91531350  0.08578100  0.78217900  1
  N  1139  1  0.98337152  0.18390700  0.85141500  1
  N  1142  1  0.09648300  0.07813700  0.75382300  1
  N  1147  1  0.64409700  0.61253400  0.83134800  1
  N  1157  1  0.58192600  0.70095900  0.90450900  1
  N  1161  1  0.65002900  0.67214600  0.80640800  1
  N  1164  1  0.76299800  0.68020500  0.91220200  1
  N  1169  1  0.31095700  0.22334500  0.37766000  1
  N  1179  1  0.24892100  0.20803600  0.28921060  1
  N  1183  1  0.31669000  0.13882100  0.31819700  1
  N  1186  1  0.43007200  0.23635800  0.30991360  1
