# generated using pymatgen
data_H36C49(N2O)4
_symmetry_space_group_name_H-M   'P 1'
_cell_length_a   37.19120000
_cell_length_b   37.19130000
_cell_length_c   44.09150000
_cell_angle_alpha   90.00040000
_cell_angle_beta   89.99960000
_cell_angle_gamma   90.00000000
_symmetry_Int_Tables_number   1
_chemical_formula_structural   H36C49(N2O)4
_chemical_formula_sum   'H288 C392 N64 O32'
_cell_volume   60986.88116617
_cell_formula_units_Z   8
loop_
 _symmetry_equiv_pos_site_id
 _symmetry_equiv_pos_as_xyz
  1  'x, y, z'
loop_
 _atom_site_type_symbol
 _atom_site_label
 _atom_site_symmetry_multiplicity
 _atom_site_fract_x
 _atom_site_fract_y
 _atom_site_fract_z
 _atom_site_occupancy
  H  25  1  0.05976200  0.17744900  0.24355000  1
  H  26  1  0.00090800  0.15112800  0.23886500  1
  H  27  1  0.93618900  0.13214000  0.24131000  1
  H  28  1  0.87194800  0.12765700  0.24545100  1
  H  29  1  0.87104400  0.21425400  0.30776400  1
  H  30  1  0.02088600  0.24811800  0.31122100  1
  H  31  1  0.96033300  0.16722800  0.35032400  1
  H  32  1  0.95777800  0.23615400  0.42643600  1
  H  33  1  0.94241700  0.28605200  0.39426900  1
  H  34  1  0.94044000  0.26895500  0.25519900  1
  H  35  1  0.92485500  0.32963400  0.35224900  1
  H  36  1  0.91739900  0.36282400  0.30575700  1
  H  39  1  0.81754200  0.14213500  0.28478500  1
  H  40  1  0.81313000  0.18880700  0.29124700  1
  H  42  1  0.08105900  0.25681000  0.29179300  1
  H  43  1  0.09316400  0.23572800  0.25796400  1
  H  45  1  0.99288300  0.17172400  0.42344200  1
  H  46  1  0.97100500  0.14142200  0.39936500  1
  H  48  1  0.90062700  0.35438400  0.24701800  1
  H  49  1  0.92739900  0.32307200  0.22798900  1
  H  74  1  0.83107300  0.70664900  0.24107400  1
  H  75  1  0.89105700  0.72987000  0.23466900  1
  H  76  1  0.95581700  0.74769700  0.23696900  1
  H  77  1  0.01925200  0.75445600  0.24452800  1
  H  78  1  0.01547000  0.68143400  0.31811600  1
  H  79  1  0.86501300  0.64840000  0.31838300  1
  H  80  1  0.92929100  0.73574000  0.34825800  1
  H  81  1  0.91584400  0.68213400  0.43197200  1
  H  82  1  0.92957600  0.62568300  0.40814000  1
  H  83  1  0.95054100  0.61447700  0.26986600  1
  H  84  1  0.94975800  0.57439900  0.37517000  1
  H  85  1  0.96006500  0.53162500  0.33524100  1
  H  88  1  0.06837900  0.75114100  0.29016500  1
  H  89  1  0.07417600  0.70668500  0.30319000  1
  H  91  1  0.80607700  0.63588600  0.29615500  1
  H  92  1  0.79388900  0.65529100  0.26166500  1
  H  94  1  0.89344100  0.74943000  0.42072700  1
  H  95  1  0.91858400  0.77152600  0.39288300  1
  H  97  1  0.98730000  0.52943600  0.27750700  1
  H  98  1  0.95870500  0.55242500  0.25208000  1
  H  123  1  0.71710100  0.06089600  0.73937800  1
  H  124  1  0.74382800  0.00216800  0.73473100  1
  H  125  1  0.76306600  0.93736400  0.73719200  1
  H  126  1  0.76817200  0.87323800  0.74208800  1
  H  127  1  0.68413000  0.87296500  0.80684200  1
  H  128  1  0.64879400  0.02234500  0.80887700  1
  H  129  1  0.73213800  0.96267200  0.84660700  1
  H  130  1  0.66590200  0.96448700  0.92437800  1
  H  131  1  0.61472600  0.94815200  0.89399300  1
  H  132  1  0.62707700  0.93991500  0.75470300  1
  H  133  1  0.56957600  0.92860700  0.85353400  1
  H  134  1  0.53486400  0.91925500  0.80806300  1
  H  137  1  0.75584300  0.81954900  0.78241600  1
  H  138  1  0.70961200  0.81496400  0.79072100  1
  H  140  1  0.63787500  0.08153300  0.78762800  1
  H  141  1  0.65982900  0.09438000  0.75441700  1
  H  143  1  0.73070500  0.99684400  0.92000500  1
  H  144  1  0.75968800  0.97555900  0.89449200  1
  H  146  1  0.54132600  0.89985800  0.74979500  1
  H  147  1  0.57222000  0.92542800  0.72917700  1
  H  172  1  0.18661400  0.83188700  0.74513700  1
  H  173  1  0.16392200  0.89201400  0.73857500  1
  H  174  1  0.14657300  0.95681700  0.74073000  1
  H  175  1  0.14050000  0.02039400  0.74782200  1
  H  176  1  0.21573900  0.01704800  0.81982000  1
  H  177  1  0.24711600  0.86615100  0.82110600  1
  H  178  1  0.16152600  0.93161100  0.85207600  1
  H  179  1  0.21756800  0.91911100  0.93475100  1
  H  180  1  0.27333400  0.93217300  0.90960800  1
  H  181  1  0.28084700  0.95073500  0.77097600  1
  H  182  1  0.32359600  0.95161500  0.87553100  1
  H  183  1  0.36535300  0.96100400  0.83474600  1
  H  186  1  0.14574900  0.07018600  0.79290600  1
  H  187  1  0.19075000  0.07581500  0.80462700  1
  H  189  1  0.25714200  0.80627700  0.80071000  1
  H  190  1  0.23935500  0.79494100  0.76537900  1
  H  192  1  0.14959600  0.89654900  0.92463600  1
  H  193  1  0.12696200  0.92263800  0.89771000  1
  H  195  1  0.36631100  0.98713600  0.77667600  1
  H  196  1  0.34259300  0.95821300  0.75200900  1
  H  221  1  0.86980900  0.13213800  0.74948900  1
  H  222  1  0.93417600  0.13268900  0.75359000  1
  H  223  1  0.99919400  0.14931200  0.75874500  1
  H  224  1  0.05926400  0.17285500  0.75589600  1
  H  225  1  0.02533300  0.24947100  0.69110100  1
  H  226  1  0.87332600  0.22588500  0.69504500  1
  H  227  1  0.95073500  0.17776500  0.64656400  1
  H  228  1  0.93879400  0.25528700  0.57699100  1
  H  229  1  0.94062000  0.30262200  0.61392500  1
  H  230  1  0.94857700  0.27012600  0.75070200  1
  H  231  1  0.95114600  0.34283100  0.65886600  1
  H  232  1  0.95597200  0.37123000  0.70754000  1
  H  235  1  0.08612500  0.25228500  0.70920900  1
  H  236  1  0.09484800  0.23213800  0.74420000  1
  H  238  1  0.81665100  0.15436600  0.71095100  1
  H  239  1  0.81414800  0.20180500  0.71007300  1
  H  241  1  0.91545800  0.18429500  0.57546000  1
  H  242  1  0.94764800  0.15689200  0.59360000  1
  H  244  1  0.97859500  0.35423200  0.76600700  1
  H  245  1  0.94931600  0.32278900  0.78211400  1
  H  270  1  0.02139300  0.76143800  0.75198800  1
  H  271  1  0.95694200  0.75737300  0.75390300  1
  H  272  1  0.89230900  0.73846500  0.75403200  1
  H  273  1  0.83328700  0.71414200  0.74587200  1
  H  274  1  0.87415200  0.64641800  0.67688500  1
  H  275  1  0.02464100  0.67555700  0.68903100  1
  H  276  1  0.94103100  0.72446300  0.64177900  1
  H  277  1  0.97535100  0.65972400  0.56829500  1
  H  278  1  0.97972800  0.60872300  0.60133600  1
  H  279  1  0.94026400  0.61903300  0.73677700  1
  H  280  1  0.97199800  0.56204100  0.64095800  1
  H  281  1  0.96174200  0.52572100  0.68491900  1
  H  284  1  0.81196000  0.64011600  0.69168400  1
  H  285  1  0.80006400  0.65644500  0.72742600  1
  H  287  1  0.07638400  0.74778400  0.71234100  1
  H  288  1  0.08179600  0.70103400  0.70685900  1
  H  290  1  0.97981200  0.73339800  0.57114400  1
  H  291  1  0.94201800  0.75099100  0.59032500  1
  H  293  1  0.91381100  0.53546800  0.73629600  1
  H  294  1  0.93944100  0.56025100  0.76249400  1
  H  319  1  0.12986400  0.02490000  0.24985800  1
  H  320  1  0.13072800  0.96046700  0.25336400  1
  H  321  1  0.14786800  0.89545500  0.25778200  1
  H  322  1  0.17194000  0.83563700  0.25437600  1
  H  323  1  0.24712900  0.87072800  0.18882500  1
  H  324  1  0.22251400  0.02241200  0.19406900  1
  H  325  1  0.17404400  0.94396800  0.14563700  1
  H  326  1  0.24973000  0.96006800  0.07521600  1
  H  327  1  0.29784900  0.95905700  0.11155800  1
  H  328  1  0.26787100  0.94595300  0.24857800  1
  H  329  1  0.33931200  0.94871400  0.15604300  1
  H  330  1  0.36854500  0.94298400  0.20433500  1
  H  333  1  0.25099700  0.80991500  0.20681100  1
  H  334  1  0.23136800  0.80079200  0.24193500  1
  H  336  1  0.15105400  0.07865700  0.21162300  1
  H  337  1  0.19844300  0.08128200  0.20976400  1
  H  339  1  0.17747800  0.98029600  0.07496000  1
  H  340  1  0.15213800  0.94630100  0.09298200  1
  H  342  1  0.35231500  0.91667700  0.26212100  1
  H  343  1  0.32086100  0.94492600  0.27946900  1
  H  368  1  0.76082200  0.87326400  0.25231600  1
  H  369  1  0.75695300  0.93773300  0.25429200  1
  H  370  1  0.73813700  0.00235900  0.25477200  1
  H  371  1  0.71387600  0.06146900  0.24696100  1
  H  372  1  0.64462900  0.02086000  0.17894500  1
  H  373  1  0.67356300  0.87024900  0.19072000  1
  H  374  1  0.72141100  0.95480600  0.14243900  1
  H  375  1  0.65577700  0.91767100  0.07052800  1
  H  376  1  0.60570100  0.91270700  0.10441000  1
  H  377  1  0.61782100  0.95504900  0.23905700  1
  H  378  1  0.55982700  0.92005400  0.14446200  1
  H  379  1  0.52412700  0.93030100  0.18869800  1
  H  382  1  0.63923200  0.08322800  0.19347800  1
  H  383  1  0.65585100  0.09492200  0.22918000  1
  H  385  1  0.74604200  0.81834700  0.21265300  1
  H  386  1  0.69910900  0.81304500  0.20826100  1
  H  388  1  0.72945100  0.91581300  0.07165300  1
  H  389  1  0.74646300  0.95419800  0.09035600  1
  H  391  1  0.53482800  0.98032700  0.23981900  1
  H  392  1  0.55939800  0.95401400  0.26566100  1
  H  406  1  0.23712800  0.24305700  0.25020700  1
  H  407  1  0.24546800  0.21287400  0.21980200  1
  H  408  1  0.26469900  0.20470500  0.25605200  1
  H  410  1  0.04887400  0.04870800  0.30112800  1
  H  411  1  0.02066600  0.08669600  0.29573700  1
  H  412  1  0.04165700  0.07936200  0.33141500  1
  H  414  1  0.20315300  0.08170900  0.26296700  1
  H  416  1  0.10078100  0.20441800  0.32003000  1
  H  430  1  0.64809100  0.65583400  0.25998900  1
  H  431  1  0.63951200  0.68437000  0.22852200  1
  H  432  1  0.62312300  0.69607700  0.26507600  1
  H  434  1  0.85029200  0.84159000  0.29239600  1
  H  435  1  0.87604500  0.80178200  0.28762700  1
  H  436  1  0.85763500  0.81245700  0.32371300  1
  H  438  1  0.69073000  0.81384900  0.26159700  1
  H  440  1  0.78959700  0.69120000  0.32213500  1
  H  454  1  0.65193500  0.23953000  0.74987200  1
  H  455  1  0.68251800  0.24872100  0.71993000  1
  H  456  1  0.69024500  0.26685700  0.75664700  1
  H  458  1  0.84527800  0.04946800  0.79874600  1
  H  459  1  0.80733900  0.02147700  0.79238200  1
  H  460  1  0.81413400  0.04147800  0.82853600  1
  H  462  1  0.81303200  0.20491100  0.76336200  1
  H  464  1  0.68928200  0.10148400  0.81715700  1
  H  478  1  0.23946000  0.65009700  0.76071600  1
  H  479  1  0.21189100  0.64194200  0.72856200  1
  H  480  1  0.19934100  0.62462900  0.76461000  1
  H  482  1  0.05054700  0.84927900  0.79320700  1
  H  483  1  0.09010900  0.87568000  0.78965800  1
  H  484  1  0.07879300  0.85612200  0.82517200  1
  H  486  1  0.08121300  0.69081700  0.75988600  1
  H  488  1  0.20059700  0.78990800  0.82457400  1
  H  502  1  0.65936100  0.65342300  0.74188400  1
  H  503  1  0.65349400  0.68123400  0.77424400  1
  H  504  1  0.63222900  0.69259900  0.73944600  1
  H  506  1  0.84877500  0.84797100  0.69478900  1
  H  507  1  0.87639400  0.80909400  0.69674000  1
  H  508  1  0.85359300  0.81983300  0.66249300  1
  H  510  1  0.69487300  0.81337500  0.73865200  1
  H  512  1  0.79325600  0.69588200  0.66876600  1
  H  526  1  0.23858100  0.24401800  0.75280700  1
  H  527  1  0.24710400  0.21668700  0.78503800  1
  H  528  1  0.26705300  0.20589200  0.74955900  1
  H  530  1  0.05604900  0.04162000  0.71050000  1
  H  531  1  0.02668100  0.07915800  0.71289700  1
  H  532  1  0.04933800  0.06958500  0.67833700  1
  H  534  1  0.21022000  0.08453000  0.75476400  1
  H  536  1  0.10466100  0.19668200  0.68383900  1
  H  550  1  0.24336600  0.65744200  0.25173800  1
  H  551  1  0.21599800  0.64920900  0.28400000  1
  H  552  1  0.20535100  0.62879000  0.24868300  1
  H  554  1  0.04057300  0.83915900  0.20821800  1
  H  555  1  0.07807100  0.86860100  0.21040400  1
  H  556  1  0.06849900  0.84562200  0.17599600  1
  H  558  1  0.08410000  0.68533500  0.25419900  1
  H  560  1  0.19561300  0.79063900  0.18177000  1
  H  574  1  0.65225400  0.23567400  0.24305400  1
  H  575  1  0.68013600  0.24193100  0.27531400  1
  H  576  1  0.69130300  0.26295100  0.24036400  1
  H  578  1  0.84764400  0.04705400  0.19623400  1
  H  579  1  0.80894700  0.01921100  0.19846200  1
  H  580  1  0.81937700  0.04183400  0.16406200  1
  H  582  1  0.81280500  0.20067300  0.23861100  1
  H  584  1  0.69513500  0.10155800  0.17040900  1
  H  598  1  0.99908200  0.44235400  0.36824100  1
  H  599  1  0.02719700  0.40952700  0.35112200  1
  H  600  1  0.98441400  0.39701600  0.36565300  1
  H  602  1  0.89112000  0.43825200  0.15285300  1
  H  603  1  0.90674400  0.48333300  0.15432000  1
  H  604  1  0.86432600  0.47198300  0.17021900  1
  H  606  1  0.98135800  0.35736600  0.24825600  1
  H  608  1  0.90781400  0.52145600  0.27091600  1
  H  622  1  0.45221500  0.99848700  0.86859400  1
  H  623  1  0.48536500  0.02648200  0.85178300  1
  H  624  1  0.49752900  0.98365200  0.86642500  1
  H  626  1  0.45862400  0.89079800  0.65314800  1
  H  627  1  0.41360000  0.90662700  0.65423000  1
  H  628  1  0.42454900  0.86411200  0.67015200  1
  H  630  1  0.53854800  0.98061000  0.74894200  1
  H  632  1  0.37393900  0.90758000  0.77051600  1
  H  646  1  0.88584800  0.46468500  0.65298100  1
  H  647  1  0.85340800  0.43484400  0.66846900  1
  H  648  1  0.89351900  0.41757100  0.65210300  1
  H  650  1  0.00358600  0.41974300  0.86114300  1
  H  651  1  0.99498200  0.46656000  0.86424800  1
  H  652  1  0.03400400  0.45114500  0.84494700  1
  H  654  1  0.89870000  0.36255700  0.76143700  1
  H  656  1  0.98787900  0.52241900  0.75796700  1
  H  670  1  0.46841800  0.00898800  0.15443200  1
  H  671  1  0.43788100  0.04147600  0.16884700  1
  H  672  1  0.42137700  0.00147200  0.15174800  1
  H  674  1  0.41241100  0.89175300  0.36091300  1
  H  675  1  0.45906200  0.90018800  0.36568900  1
  H  676  1  0.44449200  0.86117900  0.34591700  1
  H  678  1  0.36073300  0.99661600  0.25920900  1
  H  680  1  0.52036500  0.90677200  0.26176900  1
  H  694  1  0.89139100  0.29677000  0.50998300  1
  H  695  1  0.86247100  0.27675700  0.48273700  1
  H  696  1  0.90309000  0.29768900  0.47094300  1
  H  698  1  0.01322100  0.04930500  0.48627700  1
  H  699  1  0.00019300  0.04756100  0.52498800  1
  H  700  1  0.04111800  0.06886500  0.51449400  1
  H  702  1  0.91317400  0.16183500  0.42869700  1
  H  704  1  0.99463300  0.18263100  0.56530400  1
  H  718  1  0.00025600  0.61297100  0.49389800  1
  H  719  1  0.02781500  0.63472800  0.46659800  1
  H  720  1  0.98571500  0.61622900  0.45563900  1
  H  722  1  0.88043700  0.86294900  0.49249800  1
  H  723  1  0.89680600  0.86151300  0.53030400  1
  H  724  1  0.85491500  0.84122400  0.52118700  1
  H  726  1  0.97396800  0.75484800  0.42259600  1
  H  728  1  0.90242600  0.71796100  0.55970900  1
  H  742  1  0.60456700  0.89146500  0.00041000  1
  H  743  1  0.62547000  0.86369500  0.97279300  1
  H  744  1  0.60507000  0.90487900  0.96175900  1
  H  746  1  0.85254500  0.01439600  0.98655500  1
  H  747  1  0.85337500  0.99917900  0.02471700  1
  H  748  1  0.83209100  0.04054500  0.01550300  1
  H  750  1  0.74264000  0.91718300  0.92321600  1
  H  752  1  0.71185500  0.99269600  0.06021900  1
  H  766  1  0.28848400  0.00073000  0.99899300  1
  H  767  1  0.26653400  0.02921300  0.97248900  1
  H  768  1  0.28486300  0.98746300  0.96043000  1
  H  770  1  0.03807500  0.88182300  0.99634400  1
  H  771  1  0.04003700  0.89676200  0.03455400  1
  H  772  1  0.05998300  0.85512300  0.02415800  1
  H  774  1  0.14634300  0.97715100  0.92780700  1
  H  776  1  0.18123600  0.90125300  0.06396800  1
  C  1  1  0.93981300  0.26233800  0.30267300  1
  C  2  1  0.93629600  0.28004400  0.33052400  1
  C  3  1  0.94218900  0.25541100  0.35370300  1
  C  4  1  0.94837400  0.22151700  0.34090000  1
  C  5  1  0.95573000  0.19183600  0.35992000  1
  C  6  1  0.95811700  0.19649800  0.39184900  1
  C  7  1  0.95378300  0.23154200  0.40388300  1
  C  8  1  0.94510900  0.26091900  0.38514900  1
  C  9  1  0.92813800  0.31692900  0.33187300  1
  C  10  1  0.92418500  0.33623200  0.30461600  1
  C  11  1  0.92952800  0.31945900  0.27611900  1
  C  12  1  0.93685300  0.28199600  0.27539800  1
  C  13  1  0.98249200  0.21241100  0.29298400  1
  C  14  1  0.97705000  0.18416700  0.27254700  1
  C  15  1  0.94079200  0.17538700  0.27243800  1
  C  16  1  0.92239500  0.19854400  0.29212000  1
  C  17  1  0.92259700  0.14902700  0.25556800  1
  C  18  1  0.88503100  0.14660800  0.25812500  1
  C  19  1  0.86533800  0.17075700  0.27667500  1
  C  20  1  0.88449100  0.19653200  0.29413800  1
  C  21  1  0.01718200  0.22730600  0.29638100  1
  C  22  1  0.04622600  0.21429000  0.27860900  1
  C  23  1  0.03957300  0.18650200  0.25734000  1
  C  24  1  0.00528700  0.17090700  0.25453400  1
  C  37  1  0.94798900  0.22358300  0.30721600  1
  C  38  1  0.82534000  0.16868900  0.27635700  1
  C  41  1  0.08277600  0.23053700  0.28076200  1
  C  44  1  0.96708400  0.16599800  0.41253300  1
  C  47  1  0.92678900  0.34095300  0.24765300  1
  C  50  1  0.94582800  0.63107000  0.31552100  1
  C  51  1  0.94467400  0.61913500  0.34562200  1
  C  52  1  0.93756700  0.64815800  0.36443100  1
  C  53  1  0.93566600  0.67939100  0.34680600  1
  C  54  1  0.92984000  0.71288800  0.36114900  1
  C  55  1  0.92444800  0.71464400  0.39304800  1
  C  56  1  0.92260900  0.68202400  0.40953000  1
  C  57  1  0.93027200  0.64886000  0.39568800  1
  C  58  1  0.95019700  0.58284700  0.35310700  1
  C  59  1  0.95626800  0.55804500  0.32963000  1
  C  60  1  0.95588100  0.56888900  0.29879000  1
  C  61  1  0.95089100  0.60586300  0.29188800  1
  C  62  1  0.90538000  0.67893400  0.29674900  1
  C  63  1  0.91256500  0.70254900  0.27284200  1
  C  64  1  0.94890100  0.71080900  0.27319800  1
  C  65  1  0.96567600  0.69195000  0.29680800  1
  C  66  1  0.96828800  0.73382500  0.25400100  1
  C  67  1  0.00542300  0.73763800  0.25861900  1
  C  68  1  0.02358200  0.71826800  0.28170300  1
  C  69  1  0.00321800  0.69545400  0.30105300  1
  C  70  1  0.87011100  0.66577700  0.30092400  1
  C  71  1  0.84230300  0.67590100  0.28060700  1
  C  72  1  0.85057400  0.69932500  0.25624000  1
  C  73  1  0.88549700  0.71310300  0.25243000  1
  C  86  1  0.93872400  0.67043700  0.31398300  1
  C  87  1  0.06320900  0.72291700  0.28467400  1
  C  90  1  0.80516300  0.66148600  0.28398200  1
  C  93  1  0.91954600  0.74952600  0.40929400  1
  C  96  1  0.96040700  0.54097100  0.27489400  1
  C  99  1  0.63522400  0.94127400  0.80199100  1
  C  100  1  0.61845900  0.93898000  0.83034400  1
  C  101  1  0.64391600  0.94570300  0.85273300  1
  C  102  1  0.67738600  0.95110200  0.83892300  1
  C  103  1  0.70783400  0.95880000  0.85695400  1
  C  104  1  0.70439000  0.96239500  0.88890800  1
  C  105  1  0.66969100  0.95926500  0.90188800  1
  C  106  1  0.63955700  0.95013700  0.88418200  1
  C  107  1  0.58160900  0.93099700  0.83278400  1
  C  108  1  0.56141000  0.92594200  0.80611400  1
  C  109  1  0.57727700  0.92994600  0.77709500  1
  C  110  1  0.61469500  0.93720000  0.77528800  1
  C  111  1  0.68433200  0.98402000  0.79028800  1
  C  112  1  0.71195400  0.97847800  0.76928400  1
  C  113  1  0.72104500  0.94228200  0.76945200  1
  C  114  1  0.69876500  0.92408100  0.78997500  1
  C  115  1  0.74686000  0.92393900  0.75211100  1
  C  116  1  0.74964900  0.88643800  0.75511100  1
  C  117  1  0.72644100  0.86695200  0.77464800  1
  C  118  1  0.70121000  0.88625800  0.79254000  1
  C  119  1  0.66915600  0.01859300  0.79360900  1
  C  120  1  0.68122700  0.04742800  0.77515800  1
  C  121  1  0.70855000  0.04076900  0.75346500  1
  C  122  1  0.72437700  0.00657100  0.75068400  1
  C  135  1  0.67406600  0.94975200  0.80534300  1
  C  136  1  0.72881000  0.82697200  0.77488200  1
  C  139  1  0.66447000  0.08374400  0.77722200  1
  C  142  1  0.73588300  0.97126300  0.90855400  1
  C  145  1  0.55492600  0.92593600  0.74921000  1
  C  148  1  0.26537500  0.94689900  0.81697400  1
  C  149  1  0.27810400  0.94620800  0.84685200  1
  C  150  1  0.24958700  0.93962300  0.86630300  1
  C  151  1  0.21784500  0.93768700  0.84934300  1
  C  152  1  0.18476000  0.93225100  0.86446600  1
  C  153  1  0.18394100  0.92734100  0.89645400  1
  C  154  1  0.21702500  0.92559900  0.91226400  1
  C  155  1  0.24979400  0.93284200  0.89764400  1
  C  156  1  0.31458900  0.95168500  0.85362200  1
  C  157  1  0.33879600  0.95722100  0.82963800  1
  C  158  1  0.32718900  0.95632000  0.79900600  1
  C  159  1  0.29001600  0.95140200  0.79283300  1
  C  160  1  0.21660100  0.90660200  0.79958000  1
  C  161  1  0.19245700  0.91371300  0.77603400  1
  C  162  1  0.18451200  0.95011200  0.77621100  1
  C  163  1  0.20417500  0.96703500  0.79927200  1
  C  164  1  0.16106200  0.96941200  0.75732700  1
  C  165  1  0.15765600  0.00662800  0.76166800  1
  C  166  1  0.17790200  0.02495300  0.78411500  1
  C  167  1  0.20112000  0.00467100  0.80318600  1
  C  168  1  0.22940600  0.87121700  0.80388000  1
  C  169  1  0.21828800  0.84319900  0.78413100  1
  C  170  1  0.19446300  0.85146500  0.76004200  1
  C  171  1  0.18105300  0.88649700  0.75609600  1
  C  184  1  0.22590700  0.94011200  0.81630000  1
  C  185  1  0.17370600  0.06466800  0.78671800  1
  C  188  1  0.23218200  0.80586500  0.78761000  1
  C  191  1  0.14957500  0.92285400  0.91353400  1
  C  194  1  0.35457400  0.96026200  0.77460900  1
  C  197  1  0.94711500  0.26888200  0.70290400  1
  C  198  1  0.94681400  0.29002000  0.67666500  1
  C  199  1  0.94669100  0.26760400  0.65155200  1
  C  200  1  0.94926600  0.23183600  0.66122700  1
  C  201  1  0.94920200  0.20388500  0.63944500  1
  C  202  1  0.94548100  0.21206300  0.60809700  1
  C  203  1  0.94213100  0.24858900  0.59929500  1
  C  204  1  0.94330600  0.27647900  0.62073400  1
  C  205  1  0.94935200  0.32766900  0.67815100  1
  C  206  1  0.95179100  0.34415900  0.70675100  1
  C  207  1  0.94961300  0.32383200  0.73385300  1
  C  208  1  0.94780600  0.28574300  0.73162400  1
  C  209  1  0.92380000  0.20575700  0.70903400  1
  C  210  1  0.94093300  0.17930600  0.72644600  1
  C  211  1  0.97767300  0.18549200  0.72626000  1
  C  212  1  0.98483100  0.21464500  0.70716800  1
  C  213  1  0.00491900  0.16948300  0.74374900  1
  C  214  1  0.03999300  0.18339800  0.74194600  1
  C  215  1  0.04851300  0.21191200  0.72189000  1
  C  216  1  0.02040800  0.22762100  0.70455700  1
  C  217  1  0.88583700  0.20613300  0.70724700  1
  C  218  1  0.86541800  0.17932500  0.72244100  1
  C  219  1  0.88382300  0.15198400  0.73862700  1
  C  220  1  0.92143900  0.15213000  0.74120400  1
  C  233  1  0.95084200  0.23012500  0.69496800  1
  C  234  1  0.08586400  0.22647000  0.72106400  1
  C  237  1  0.82539800  0.17893000  0.72245900  1
  C  240  1  0.94296200  0.18374700  0.58427100  1
  C  243  1  0.95177700  0.34243100  0.76380000  1
  C  246  1  0.95392000  0.62826900  0.69094500  1
  C  247  1  0.96296300  0.61159000  0.66354300  1
  C  248  1  0.96318600  0.63712600  0.64067900  1
  C  249  1  0.95261100  0.67033500  0.65268100  1
  C  250  1  0.94906500  0.70027700  0.63307900  1
  C  251  1  0.95678700  0.69668200  0.60163300  1
  C  252  1  0.96899500  0.66297500  0.59067800  1
  C  253  1  0.97162200  0.63297600  0.60984300  1
  C  254  1  0.96685900  0.57413000  0.66132700  1
  C  255  1  0.96049500  0.55304700  0.68717800  1
  C  256  1  0.95149800  0.56890900  0.71543900  1
  C  257  1  0.94854300  0.60695800  0.71714300  1
  C  258  1  0.97271500  0.69103700  0.70345300  1
  C  259  1  0.95357100  0.71432200  0.72245200  1
  C  260  1  0.91720200  0.70681700  0.71993900  1
  C  261  1  0.91235100  0.68000400  0.69803500  1
  C  262  1  0.88830200  0.72003000  0.73716700  1
  C  263  1  0.85388300  0.70560200  0.73228800  1
  C  264  1  0.84770400  0.67947200  0.70948400  1
  C  265  1  0.87746200  0.66650700  0.69247800  1
  C  266  1  0.01069500  0.69280000  0.70273800  1
  C  267  1  0.02915300  0.71852400  0.72074900  1
  C  268  1  0.00879700  0.74245200  0.73898800  1
  C  269  1  0.97112800  0.74019900  0.74031300  1
  C  282  1  0.94768800  0.66746600  0.68615500  1
  C  283  1  0.81079300  0.66460000  0.70537600  1
  C  286  1  0.06907600  0.72132100  0.72127500  1
  C  289  1  0.95294000  0.72681600  0.57959900  1
  C  292  1  0.94093600  0.54521200  0.74119000  1
  C  295  1  0.26595600  0.94909300  0.20086000  1
  C  296  1  0.28664700  0.95087000  0.17441000  1
  C  297  1  0.26379000  0.95105000  0.14954800  1
  C  298  1  0.22828900  0.94714900  0.15961200  1
  C  299  1  0.19995300  0.94661100  0.13820200  1
  C  300  1  0.20740500  0.95113900  0.10681200  1
  C  301  1  0.24361100  0.95608600  0.09758700  1
  C  302  1  0.27193400  0.95543300  0.11866400  1
  C  303  1  0.32437900  0.94939700  0.17550400  1
  C  304  1  0.34135300  0.94639400  0.20388500  1
  C  305  1  0.32134500  0.94684000  0.23121700  1
  C  306  1  0.28321000  0.94791300  0.22939800  1
  C  307  1  0.20283400  0.97169500  0.20788200  1
  C  308  1  0.17680100  0.95421800  0.22548600  1
  C  309  1  0.18324500  0.91751900  0.22494100  1
  C  310  1  0.21213200  0.91075400  0.20545200  1
  C  311  1  0.16778000  0.89000200  0.24247300  1
  C  312  1  0.18204200  0.85509000  0.24037300  1
  C  313  1  0.21031700  0.84697800  0.21995300  1
  C  314  1  0.22544100  0.87533700  0.20254600  1
  C  315  1  0.20302100  0.00967600  0.20640100  1
  C  316  1  0.17645200  0.02980300  0.22214600  1
  C  317  1  0.14952000  0.01108900  0.23857200  1
  C  318  1  0.14984900  0.97343300  0.24079500  1
  C  331  1  0.22714500  0.94498200  0.19333300  1
  C  332  1  0.22531800  0.80980800  0.21887600  1
  C  335  1  0.17596900  0.06981900  0.22252800  1
  C  338  1  0.17852500  0.95264400  0.08340400  1
  C  341  1  0.34029800  0.94349300  0.26092600  1
  C  344  1  0.62653600  0.94082500  0.19326700  1
  C  345  1  0.60954000  0.93086800  0.16624100  1
  C  346  1  0.63462400  0.93061800  0.14305600  1
  C  347  1  0.66785800  0.94206400  0.15442100  1
  C  348  1  0.69723300  0.94601400  0.13426300  1
  C  349  1  0.69303100  0.93782100  0.10294900  1
  C  350  1  0.65943100  0.92446600  0.09275500  1
  C  351  1  0.62995400  0.92149200  0.11242600  1
  C  352  1  0.57216600  0.92601200  0.16456400  1
  C  353  1  0.55142900  0.93237100  0.19059800  1
  C  354  1  0.56757500  0.94232300  0.21851800  1
  C  355  1  0.60558700  0.94617100  0.21968200  1
  C  356  1  0.68949100  0.92214100  0.20488600  1
  C  357  1  0.71321700  0.94121800  0.22353300  1
  C  358  1  0.70578300  0.97760500  0.22108100  1
  C  359  1  0.67845900  0.98252000  0.19962800  1
  C  360  1  0.71934200  0.00643100  0.23820500  1
  C  361  1  0.70498900  0.04091000  0.23350100  1
  C  362  1  0.67847200  0.04719500  0.21104100  1
  C  363  1  0.66500200  0.01747000  0.19425600  1
  C  364  1  0.69113400  0.88415600  0.20415800  1
  C  365  1  0.71719400  0.86563000  0.22176400  1
  C  366  1  0.74159200  0.88592000  0.23960800  1
  C  367  1  0.73943000  0.92359000  0.24099400  1
  C  380  1  0.66561700  0.94720600  0.18791800  1
  C  381  1  0.66380000  0.08420800  0.20707000  1
  C  384  1  0.71989600  0.82570100  0.22220500  1
  C  387  1  0.72230100  0.94249400  0.08021400  1
  C  390  1  0.54416400  0.95299200  0.24443700  1
  C  393  1  0.15963600  0.11448200  0.26229100  1
  C  394  1  0.17541500  0.14886600  0.25935800  1
  C  395  1  0.15825300  0.17943200  0.27078200  1
  C  396  1  0.12429400  0.17797600  0.28503000  1
  C  397  1  0.10849700  0.14355400  0.28781100  1
  C  398  1  0.12581400  0.11294000  0.27674500  1
  C  401  1  0.20955700  0.19324900  0.25262000  1
  C  403  1  0.07579000  0.09872000  0.29716200  1
  C  405  1  0.24104600  0.21485500  0.24419900  1
  C  409  1  0.04495500  0.07697300  0.30691900  1
  C  417  1  0.73363600  0.78006200  0.26169200  1
  C  418  1  0.71565600  0.74658400  0.26140400  1
  C  419  1  0.73172900  0.71588600  0.27364700  1
  C  420  1  0.76661600  0.71623300  0.28622700  1
  C  421  1  0.78477600  0.74963300  0.28611600  1
  C  422  1  0.76850900  0.78045500  0.27432500  1
  C  425  1  0.67852000  0.70401200  0.25871000  1
  C  427  1  0.82050300  0.79301100  0.29179100  1
  C  429  1  0.64537600  0.68377300  0.25275400  1
  C  433  1  0.85301600  0.81353800  0.29930300  1
  C  441  1  0.78022600  0.16146000  0.76146900  1
  C  442  1  0.74591400  0.17740000  0.75856600  1
  C  443  1  0.71517800  0.15996900  0.76934500  1
  C  444  1  0.71639900  0.12559600  0.78287200  1
  C  445  1  0.75073500  0.10960800  0.78558700  1
  C  446  1  0.78152700  0.12720200  0.77520100  1
  C  449  1  0.70167200  0.21181700  0.75215400  1
  C  451  1  0.79537400  0.07657100  0.79473600  1
  C  453  1  0.68021600  0.24358000  0.74420500  1
  C  457  1  0.81692000  0.04544000  0.80413900  1
  C  465  1  0.11430500  0.73429200  0.76136900  1
  C  466  1  0.14800100  0.71671500  0.76139800  1
  C  467  1  0.17818900  0.73282400  0.77449400  1
  C  468  1  0.17711600  0.76738600  0.78767500  1
  C  469  1  0.14349600  0.78513500  0.78728800  1
  C  470  1  0.11318500  0.76882700  0.77462300  1
  C  473  1  0.19102600  0.68007700  0.75895300  1
  C  475  1  0.09953300  0.82015600  0.79288100  1
  C  477  1  0.21175900  0.64726900  0.75288400  1
  C  481  1  0.07838300  0.85217500  0.80066400  1
  C  489  1  0.73889900  0.78131300  0.73422100  1
  C  490  1  0.72244400  0.74707700  0.73554500  1
  C  491  1  0.73822700  0.71721000  0.72162200  1
  C  492  1  0.77134200  0.71919100  0.70606300  1
  C  493  1  0.78775800  0.75345500  0.70478600  1
  C  494  1  0.77187700  0.78335700  0.71846900  1
  C  497  1  0.68772600  0.70286200  0.74104500  1
  C  499  1  0.82099900  0.79827100  0.69687100  1
  C  501  1  0.65637100  0.68114200  0.74962700  1
  C  505  1  0.85173000  0.82019900  0.68717500  1
  C  513  1  0.16387800  0.11299400  0.74818500  1
  C  514  1  0.17899100  0.14789300  0.74883800  1
  C  515  1  0.16140000  0.17706800  0.73543400  1
  C  516  1  0.12777700  0.17371800  0.72087300  1
  C  517  1  0.11285600  0.13879000  0.71989800  1
  C  518  1  0.13044600  0.10960800  0.73322300  1
  C  521  1  0.21212100  0.19352900  0.75315900  1
  C  523  1  0.08150500  0.09255900  0.71235500  1
  C  525  1  0.24301100  0.21649200  0.76054300  1
  C  529  1  0.05166100  0.06924300  0.70299200  1
  C  537  1  0.11211100  0.73172000  0.24649000  1
  C  538  1  0.14704400  0.71667100  0.24719000  1
  C  539  1  0.17618400  0.73420100  0.23367300  1
  C  540  1  0.17275900  0.76768500  0.21890300  1
  C  541  1  0.13780900  0.78254100  0.21786900  1
  C  542  1  0.10867200  0.76503400  0.23134200  1
  C  545  1  0.19278100  0.68371900  0.25178800  1
  C  547  1  0.09154700  0.81379300  0.21020000  1
  C  549  1  0.21584000  0.65300200  0.25947400  1
  C  553  1  0.06818200  0.84352000  0.20066600  1
  C  561  1  0.78049900  0.15676400  0.23537600  1
  C  562  1  0.74616300  0.17297900  0.23683000  1
  C  563  1  0.71632500  0.15694000  0.22306700  1
  C  564  1  0.71842000  0.12374300  0.20763400  1
  C  565  1  0.75278300  0.10753500  0.20629400  1
  C  566  1  0.78266600  0.12369900  0.21977700  1
  C  569  1  0.70180600  0.20751200  0.24227600  1
  C  571  1  0.79778300  0.07453900  0.19835600  1
  C  573  1  0.67998100  0.23884500  0.25071700  1
  C  577  1  0.81985300  0.04387500  0.18873500  1
  C  585  1  0.95162500  0.40346500  0.25196000  1
  C  586  1  0.96345300  0.41717300  0.28015400  1
  C  587  1  0.95731700  0.45299900  0.28815100  1
  C  588  1  0.94048800  0.47770900  0.26841700  1
  C  589  1  0.92988100  0.46433700  0.23977400  1
  C  590  1  0.93536600  0.42832000  0.23202200  1
  C  593  1  0.98315900  0.42519900  0.32440500  1
  C  595  1  0.90908300  0.45601700  0.19595200  1
  C  597  1  0.99942000  0.41821100  0.35416100  1
  C  601  1  0.89179700  0.46268800  0.16655400  1
  C  609  1  0.49239200  0.95092600  0.75266400  1
  C  610  1  0.47839900  0.96273600  0.78075600  1
  C  611  1  0.44243600  0.95677700  0.78840300  1
  C  612  1  0.41790100  0.94009000  0.76842200  1
  C  613  1  0.43159300  0.92946900  0.73989300  1
  C  614  1  0.46772800  0.93480900  0.73247700  1
  C  617  1  0.46988100  0.98250100  0.82491800  1
  C  619  1  0.44038600  0.90872500  0.69611600  1
  C  621  1  0.47654100  0.99873700  0.85474100  1
  C  625  1  0.43401600  0.89155100  0.66666667  1
  C  633  1  0.93163800  0.40666900  0.76384300  1
  C  634  1  0.91978300  0.42552600  0.73784700  1
  C  635  1  0.93098500  0.46077800  0.73222500  1
  C  636  1  0.95281500  0.48038000  0.75265500  1
  C  637  1  0.96307800  0.46202400  0.77940900  1
  C  638  1  0.95279000  0.42640000  0.78457500  1
  C  641  1  0.89981600  0.44101500  0.69510000  1
  C  643  1  0.98563700  0.44520000  0.82088100  1
  C  645  1  0.88211600  0.43954400  0.66536600  1
  C  649  1  0.00573000  0.44558000  0.84953300  1
  C  657  1  0.40455000  0.96339000  0.26304400  1
  C  658  1  0.42470300  0.97497600  0.23766900  1
  C  659  1  0.46020000  0.96369600  0.23339000  1
  C  660  1  0.47867800  0.94189000  0.25457700  1
  C  661  1  0.45894700  0.93184200  0.28068700  1
  C  662  1  0.42313800  0.94228300  0.28454000  1
  C  665  1  0.44248200  0.99496400  0.19557500  1
  C  667  1  0.43995300  0.90950400  0.32157700  1
  C  669  1  0.44265700  0.01276100  0.16585900  1
  C  673  1  0.43880500  0.88948400  0.35025100  1
  C  681  1  0.94520200  0.16552500  0.46655900  1
  C  682  1  0.93219900  0.19706200  0.48070000  1
  C  683  1  0.93994000  0.20448200  0.51108000  1
  C  684  1  0.95978300  0.18072600  0.52963300  1
  C  685  1  0.97149300  0.14847400  0.51582700  1
  C  686  1  0.96434400  0.14137300  0.48527500  1
  C  689  1  0.90944400  0.24726400  0.49166600  1
  C  691  1  0.99435600  0.09838500  0.50484300  1
  C  693  1  0.89048200  0.28170500  0.48874900  1
  C  697  1  0.01334200  0.06394900  0.50773300  1
  C  705  1  0.94569700  0.74843000  0.46198200  1
  C  706  1  0.96016000  0.71605700  0.47359700  1
  C  707  1  0.95451600  0.70596900  0.50374800  1
  C  708  1  0.93629700  0.72814600  0.52469100  1
  C  709  1  0.92404700  0.76164300  0.51365900  1
  C  710  1  0.92849100  0.77110700  0.48319100  1
  C  713  1  0.98262800  0.66461700  0.48003300  1
  C  715  1  0.90048500  0.81242900  0.50698200  1
  C  717  1  0.00014000  0.63003600  0.47375600  1
  C  721  1  0.88206600  0.84659900  0.51301300  1
  C  729  1  0.73710900  0.94723600  0.96190900  1
  C  730  1  0.70527600  0.93334900  0.97492900  1
  C  731  1  0.69690900  0.93961100  0.00536700  1
  C  732  1  0.72015000  0.95840800  0.02510000  1
  C  733  1  0.75288700  0.97061800  0.01251700  1
  C  734  1  0.76076200  0.96527300  0.98183300  1
  C  737  1  0.65474500  0.91013600  0.98393500  1
  C  739  1  0.80312200  0.99423400  0.00342100  1
  C  741  1  0.62038000  0.89143800  0.97955400  1
  C  745  1  0.83735300  0.01321300  0.00771400  1
  C  753  1  0.15254500  0.94765600  0.96664200  1
  C  754  1  0.18512100  0.96154600  0.97837000  1
  C  755  1  0.19550300  0.95481100  0.00829700  1
  C  756  1  0.17350900  0.93589000  0.02892900  1
  C  757  1  0.13986800  0.92410500  0.01781400  1
  C  758  1  0.13005400  0.92974600  0.98757100  1
  C  761  1  0.23668600  0.98364500  0.98504500  1
  C  763  1  0.08887100  0.90104500  0.01093600  1
  C  765  1  0.27124100  0.00130600  0.97896600  1
  C  769  1  0.05466800  0.88259500  0.01675600  1
  N  399  1  0.18031600  0.20706200  0.26630100  1
  N  402  1  0.10465400  0.08503300  0.28285900  1
  N  413  1  0.17740100  0.08225000  0.25452300  1
  N  415  1  0.10942900  0.20924800  0.29827300  1
  N  423  1  0.70779300  0.68942000  0.27173700  1
  N  426  1  0.79155200  0.80744000  0.27813700  1
  N  437  1  0.71683100  0.81284600  0.25397000  1
  N  439  1  0.78006800  0.68519900  0.30085200  1
  N  447  1  0.68763900  0.18220500  0.76508200  1
  N  450  1  0.80931000  0.10581700  0.78117300  1
  N  461  1  0.81256400  0.17942200  0.75436300  1
  N  463  1  0.68489400  0.11041100  0.79541600  1
  N  471  1  0.20494500  0.70919700  0.77273400  1
  N  474  1  0.08582300  0.79141600  0.77841700  1
  N  485  1  0.08188800  0.71720400  0.75297000  1
  N  487  1  0.20747000  0.78070900  0.80337500  1
  N  495  1  0.71582900  0.68969200  0.72536900  1
  N  498  1  0.79331800  0.81126900  0.71314900  1
  N  509  1  0.72183600  0.81332100  0.74377400  1
  N  511  1  0.78476200  0.68897100  0.69016500  1
  N  519  1  0.18281700  0.20548300  0.73838900  1
  N  522  1  0.11010500  0.08082400  0.72815400  1
  N  533  1  0.18287700  0.08175900  0.75722500  1
  N  535  1  0.11269800  0.20342500  0.70539900  1
  N  543  1  0.20466100  0.71290100  0.23680700  1
  N  546  1  0.07986700  0.78531300  0.22618100  1
  N  557  1  0.08090200  0.71273200  0.25566600  1
  N  559  1  0.20242400  0.78273400  0.20334900  1
  N  567  1  0.68871700  0.17923100  0.22677400  1
  N  570  1  0.81069400  0.10240900  0.21445200  1
  N  581  1  0.81244200  0.17402800  0.24479100  1
  N  583  1  0.68823600  0.11013000  0.19178800  1
  N  591  1  0.96976300  0.45734700  0.31619000  1
  N  594  1  0.92201100  0.42372000  0.20431400  1
  N  605  1  0.95638400  0.36730600  0.24289700  1
  N  607  1  0.93240800  0.51280800  0.27865200  1
  N  615  1  0.43779500  0.96923700  0.81640200  1
  N  618  1  0.47263000  0.92149400  0.70479300  1
  N  629  1  0.52868000  0.95550200  0.74394800  1
  N  631  1  0.38262700  0.93213700  0.77830600  1
  N  639  1  0.91829600  0.46974500  0.70504700  1
  N  642  1  0.96736300  0.41638700  0.81078900  1
  N  653  1  0.92346900  0.37004200  0.76958800  1
  N  655  1  0.96662200  0.51472100  0.74457000  1
  N  663  1  0.47060600  0.97640300  0.20658300  1
  N  666  1  0.41175000  0.92785000  0.31041100  1
  N  677  1  0.36772100  0.97175000  0.26745500  1
  N  679  1  0.51329400  0.92774400  0.24781600  1
  N  687  1  0.92558500  0.23637400  0.51735600  1
  N  690  1  0.97903300  0.10966500  0.47888800  1
  N  701  1  0.93913900  0.15727000  0.43563000  1
  N  703  1  0.96918900  0.19095500  0.55953900  1
  N  711  1  0.96858100  0.67334000  0.50715000  1
  N  714  1  0.91340200  0.80323300  0.47955000  1
  N  725  1  0.94863600  0.75898000  0.43119400  1
  N  727  1  0.92915800  0.71533700  0.55426300  1
  N  735  1  0.66478500  0.92507500  0.01037200  1
  N  738  1  0.79257400  0.98040800  0.97665700  1
  N  749  1  0.74614100  0.94300400  0.93092500  1
  N  751  1  0.70919600  0.96586500  0.05514600  1
  N  759  1  0.22817900  0.96870900  0.01187700  1
  N  762  1  0.09781200  0.91495400  0.98379500  1
  N  773  1  0.14160500  0.95175300  0.93603700  1
  N  775  1  0.18669500  0.92744700  0.05816000  1
  O  400  1  0.20838100  0.15681100  0.24784400  1
  O  404  1  0.07686000  0.13517700  0.30157700  1
  O  424  1  0.68148900  0.73990700  0.25197600  1
  O  428  1  0.81766000  0.75703500  0.29807300  1
  O  448  1  0.73816800  0.21071600  0.74768600  1
  O  452  1  0.75886300  0.07758300  0.79880500  1
  O  472  1  0.15529500  0.68283300  0.75157300  1
  O  476  1  0.13538100  0.81758900  0.79974600  1
  O  496  1  0.68996800  0.73878700  0.74787000  1
  O  500  1  0.81885100  0.76230600  0.69036000  1
  O  520  1  0.21161900  0.15758000  0.76012600  1
  O  524  1  0.08199000  0.12854500  0.70578400  1
  O  544  1  0.15682500  0.68419300  0.25872800  1
  O  548  1  0.12752300  0.81329200  0.20360100  1
  O  568  1  0.73776800  0.20550300  0.24900700  1
  O  572  1  0.76177200  0.07641700  0.19196600  1
  O  592  1  0.98042200  0.39891400  0.30272500  1
  O  596  1  0.91287700  0.48263400  0.21725600  1
  O  616  1  0.49642200  0.97968600  0.80347000  1
  O  620  1  0.41351100  0.91259400  0.71718100  1
  O  640  1  0.89942900  0.41242300  0.71469800  1
  O  644  1  0.98440000  0.47459100  0.80212700  1
  O  664  1  0.41291000  0.99544000  0.21409700  1
  O  668  1  0.47026400  0.91055000  0.30389100  1
  O  688  1  0.91203900  0.22356600  0.46796500  1
  O  692  1  0.99089300  0.12160400  0.52884600  1
  O  712  1  0.97887700  0.69051600  0.45814700  1
  O  716  1  0.90586500  0.78733200  0.52933300  1
  O  736  1  0.67929400  0.91366600  0.96095800  1
  O  740  1  0.77929600  0.98934600  0.02682100  1
  O  760  1  0.21062400  0.98063600  0.96320600  1
  O  764  1  0.11425700  0.90546900  0.03320400  1
