# generated using pymatgen
data_H28C41(NO)4
_symmetry_space_group_name_H-M   'P 1'
_cell_length_a   56.44690000
_cell_length_b   64.76105000
_cell_length_c   64.76100000
_cell_angle_alpha   119.99992338
_cell_angle_beta   90.00000000
_cell_angle_gamma   90.00000000
_symmetry_Int_Tables_number   1
_chemical_formula_structural   H28C41(NO)4
_chemical_formula_sum   'H336 C492 N48 O48'
_cell_volume   205021.06763407
_cell_formula_units_Z   12
loop_
 _symmetry_equiv_pos_site_id
 _symmetry_equiv_pos_as_xyz
  1  'x, y, z'
loop_
 _atom_site_type_symbol
 _atom_site_label
 _atom_site_symmetry_multiplicity
 _atom_site_fract_x
 _atom_site_fract_y
 _atom_site_fract_z
 _atom_site_occupancy
  H  26  1  0.80800600  0.55468900  0.42998000  1
  H  27  1  0.84777800  0.55630800  0.41894100  1
  H  28  1  0.81870900  0.61844400  0.49520600  1
  H  29  1  0.85841300  0.62001900  0.48406500  1
  H  30  1  0.90350400  0.60618400  0.48376800  1
  H  31  1  0.92592300  0.58353800  0.49662400  1
  H  32  1  0.91497600  0.52193700  0.42973400  1
  H  33  1  0.89268600  0.54449700  0.41711700  1
  H  34  1  0.91801200  0.57485300  0.40744400  1
  H  35  1  0.91918400  0.56587400  0.36695600  1
  H  36  1  0.84725500  0.58535800  0.37143000  1
  H  37  1  0.84625000  0.59466300  0.41152600  1
  H  38  1  0.85433600  0.63201000  0.44961100  1
  H  39  1  0.92583800  0.61306100  0.44926500  1
  H  40  1  0.93765600  0.65142800  0.45717100  1
  H  41  1  0.86597200  0.67022400  0.45766900  1
  H  44  1  0.94005500  0.51954000  0.45833700  1
  H  45  1  0.78087900  0.59596200  0.48656900  1
  H  47  1  0.86910900  0.56056500  0.33152400  1
  H  49  1  0.92729200  0.69171600  0.46568200  1
  H  75  1  0.80798100  0.90400800  0.47854300  1
  H  76  1  0.84773900  0.89133300  0.47691900  1
  H  77  1  0.81875400  0.90568800  0.41490600  1
  H  78  1  0.85845100  0.89295300  0.41332200  1
  H  79  1  0.90358100  0.90635900  0.42707000  1
  H  80  1  0.92597400  0.94187500  0.44972200  1
  H  81  1  0.91486000  0.93668700  0.51135800  1
  H  82  1  0.89259800  0.90149100  0.48878400  1
  H  83  1  0.91801800  0.86148000  0.45851000  1
  H  84  1  0.91921300  0.82999800  0.46752500  1
  H  85  1  0.84735200  0.81479300  0.44782500  1
  H  86  1  0.84632900  0.84557000  0.43849700  1
  H  87  1  0.85434900  0.84645700  0.40122700  1
  H  88  1  0.92584700  0.86492500  0.42023200  1
  H  89  1  0.93766700  0.83444200  0.38188400  1
  H  90  1  0.86597500  0.81628000  0.36302800  1
  H  93  1  0.93998500  0.96765900  0.51375500  1
  H  94  1  0.78089200  0.91945100  0.43733600  1
  H  96  1  0.86917400  0.79983800  0.47279900  1
  H  98  1  0.92732000  0.80264700  0.34160900  1
  H  124  1  0.80800200  0.60330900  0.12919400  1
  H  125  1  0.84776900  0.61434200  0.14184100  1
  H  126  1  0.81872400  0.53805300  0.12765800  1
  H  127  1  0.85842700  0.54918600  0.14036400  1
  H  128  1  0.90352500  0.54949600  0.12685000  1
  H  129  1  0.92591100  0.53663400  0.09132900  1
  H  130  1  0.91492100  0.60351500  0.09661100  1
  H  131  1  0.89266400  0.61613300  0.13180500  1
  H  132  1  0.91802400  0.62581800  0.17183900  1
  H  133  1  0.91920900  0.66630500  0.20334300  1
  H  134  1  0.84729900  0.66183100  0.21840700  1
  H  135  1  0.84628800  0.62173600  0.18761600  1
  H  136  1  0.85435600  0.58362700  0.18682800  1
  H  137  1  0.92584700  0.58403700  0.16827500  1
  H  138  1  0.93766900  0.57615700  0.19874800  1
  H  139  1  0.86598300  0.57558900  0.21699600  1
  H  142  1  0.93994200  0.57490300  0.06556700  1
  H  143  1  0.78087600  0.54670900  0.11385300  1
  H  145  1  0.86914400  0.70175500  0.23348000  1
  H  147  1  0.92731700  0.56767100  0.23054000  1
  H  173  1  0.30789300  0.48659000  0.59540300  1
  H  174  1  0.34763900  0.48495100  0.60646100  1
  H  175  1  0.31882000  0.42323500  0.52986300  1
  H  176  1  0.35851100  0.42163600  0.54101900  1
  H  177  1  0.40378000  0.43512600  0.54146100  1
  H  178  1  0.42618000  0.45778400  0.52860800  1
  H  179  1  0.41464900  0.51950800  0.59526100  1
  H  180  1  0.39238700  0.49692800  0.60787800  1
  H  181  1  0.41797900  0.46691200  0.61780900  1
  H  182  1  0.41917000  0.47594100  0.65831400  1
  H  183  1  0.34747900  0.45565600  0.65363700  1
  H  184  1  0.34645700  0.44632700  0.61352600  1
  H  185  1  0.35428900  0.40923800  0.57513800  1
  H  186  1  0.42581700  0.42844600  0.57625500  1
  H  187  1  0.43764000  0.39009400  0.56837400  1
  H  188  1  0.36592800  0.37102100  0.56708400  1
  H  191  1  0.43998000  0.52186500  0.56678300  1
  H  192  1  0.28090900  0.44552600  0.53860200  1
  H  194  1  0.36921100  0.48094500  0.69364800  1
  H  196  1  0.42729800  0.34975300  0.55968600  1
  H  222  1  0.30790400  0.13760300  0.54666700  1
  H  223  1  0.34765300  0.15029100  0.54829800  1
  H  224  1  0.31881200  0.13547700  0.61005200  1
  H  225  1  0.35850700  0.14822100  0.61164500  1
  H  226  1  0.40376200  0.13512900  0.59812000  1
  H  227  1  0.42614600  0.09960900  0.57545400  1
  H  228  1  0.41465900  0.10458200  0.51374700  1
  H  229  1  0.39241200  0.13978400  0.53633500  1
  H  230  1  0.41798100  0.17974200  0.56637700  1
  H  231  1  0.41916200  0.21123500  0.55737200  1
  H  232  1  0.34745400  0.22677600  0.57759600  1
  H  233  1  0.34644100  0.19598700  0.58691000  1
  H  234  1  0.35429600  0.19473300  0.62401600  1
  H  235  1  0.42582500  0.17659900  0.60482500  1
  H  236  1  0.43764700  0.20705800  0.64318400  1
  H  237  1  0.36593700  0.22488200  0.66223500  1
  H  240  1  0.43989700  0.07368200  0.51135400  1
  H  241  1  0.28089500  0.12192100  0.58776000  1
  H  243  1  0.36919000  0.24153400  0.55234100  1
  H  245  1  0.42727100  0.23864100  0.68357900  1
  H  271  1  0.30801400  0.43813900  0.89604300  1
  H  272  1  0.34776400  0.42708700  0.88335100  1
  H  273  1  0.31869300  0.50335600  0.89749200  1
  H  274  1  0.35839200  0.49220600  0.88474100  1
  H  275  1  0.40348400  0.49191600  0.89829300  1
  H  276  1  0.42589300  0.50477200  0.93379800  1
  H  277  1  0.41496600  0.43786800  0.92848300  1
  H  278  1  0.39268600  0.42525400  0.89330400  1
  H  279  1  0.41798400  0.41554900  0.85324400  1
  H  280  1  0.41912200  0.37507200  0.82170200  1
  H  281  1  0.34718300  0.37962300  0.80677700  1
  H  282  1  0.34621800  0.41970200  0.83759700  1
  H  283  1  0.35431200  0.45775200  0.83830500  1
  H  284  1  0.42581800  0.45737600  0.85687700  1
  H  285  1  0.43762800  0.46527700  0.82641300  1
  H  286  1  0.36594300  0.46580800  0.80814600  1
  H  289  1  0.44000300  0.46648300  0.95951600  1
  H  290  1  0.28087300  0.49473000  0.91131800  1
  H  292  1  0.36898800  0.33969200  0.79157700  1
  H  294  1  0.42729000  0.47367100  0.79457500  1
  H  320  1  0.13154500  0.13825800  0.59515100  1
  H  321  1  0.09124600  0.14873600  0.60501100  1
  H  322  1  0.12236500  0.14118400  0.53196100  1
  H  323  1  0.08204200  0.15146700  0.54183900  1
  H  324  1  0.03747800  0.13470500  0.54069100  1
  H  325  1  0.01684700  0.09802100  0.52675900  1
  H  326  1  0.02572800  0.10370100  0.59403700  1
  H  327  1  0.04624900  0.14005900  0.60775200  1
  H  328  1  0.02093000  0.18027400  0.61690300  1
  H  329  1  0.01926100  0.21162500  0.65745600  1
  H  330  1  0.09179000  0.22571600  0.65463400  1
  H  331  1  0.09326700  0.19520500  0.61449100  1
  H  332  1  0.08439300  0.19716100  0.57797100  1
  H  333  1  0.01346300  0.17513900  0.57406800  1
  H  334  1  0.00125100  0.20552500  0.56617100  1
  H  335  1  0.07240500  0.22720600  0.56994700  1
  H  338  1  0.01170400  0.06659100  0.56028000  1
  H  339  1  0.16154000  0.13373800  0.54243600  1
  H  341  1  0.06897900  0.24124700  0.69401800  1
  H  343  1  0.01115300  0.23842400  0.55915200  1
  H  369  1  0.13149900  0.43823700  0.54746500  1
  H  370  1  0.09118400  0.42838500  0.54810500  1
  H  371  1  0.12242900  0.50124400  0.61376500  1
  H  372  1  0.08210800  0.49138000  0.61418000  1
  H  373  1  0.03762200  0.49260100  0.59841400  1
  H  374  1  0.01697600  0.50653900  0.57567300  1
  H  375  1  0.02559300  0.43917900  0.51412200  1
  H  376  1  0.04613300  0.42545600  0.53675100  1
  H  377  1  0.02093200  0.41642000  0.56795200  1
  H  378  1  0.01925800  0.37586600  0.55874800  1
  H  379  1  0.09186600  0.37857000  0.57533300  1
  H  380  1  0.09335400  0.41871900  0.58498000  1
  H  381  1  0.08437200  0.45514300  0.62357800  1
  H  382  1  0.01348100  0.45935300  0.60555100  1
  H  383  1  0.00126200  0.46727000  0.64383800  1
  H  384  1  0.07237700  0.46318000  0.66165000  1
  H  387  1  0.01171400  0.47298600  0.51075200  1
  H  388  1  0.16155800  0.49085600  0.59570600  1
  H  390  1  0.06898800  0.33924400  0.55165000  1
  H  392  1  0.01116300  0.47426700  0.68375900  1
  H  418  1  0.13154900  0.48575800  0.89508000  1
  H  419  1  0.09123300  0.48512700  0.88458200  1
  H  420  1  0.12239000  0.41958500  0.89203900  1
  H  421  1  0.08207200  0.41917700  0.88174700  1
  H  422  1  0.03753000  0.43483600  0.89856700  1
  H  423  1  0.01689800  0.45758200  0.93525300  1
  H  424  1  0.02571200  0.51917500  0.92955100  1
  H  425  1  0.04623000  0.49653700  0.89318700  1
  H  426  1  0.02093500  0.46542900  0.85299300  1
  H  427  1  0.01923600  0.47465700  0.82166100  1
  H  428  1  0.09178400  0.45784300  0.80757900  1
  H  429  1  0.09329500  0.44817900  0.83806800  1
  H  430  1  0.08439100  0.40966000  0.83606400  1
  H  431  1  0.01347700  0.42775500  0.85816900  1
  H  432  1  0.00125900  0.38947000  0.82779100  1
  H  433  1  0.07239600  0.37159000  0.80602400  1
  H  436  1  0.01170400  0.52252500  0.96667000  1
  H  437  1  0.16153600  0.43757700  0.89962100  1
  H  439  1  0.06891900  0.48169500  0.79208600  1
  H  441  1  0.01118100  0.34950900  0.79493600  1
  H  467  1  0.63157800  0.90309200  0.42994600  1
  H  468  1  0.59128000  0.89257700  0.42006500  1
  H  469  1  0.62234600  0.90030600  0.49320600  1
  H  470  1  0.58203600  0.88999600  0.48331300  1
  H  471  1  0.53743300  0.90664500  0.48441100  1
  H  472  1  0.51682600  0.94334000  0.49836200  1
  H  473  1  0.52584900  0.93776000  0.43114100  1
  H  474  1  0.54634000  0.90138300  0.41741000  1
  H  475  1  0.52093400  0.86121000  0.40824400  1
  H  476  1  0.51921400  0.82990900  0.36767500  1
  H  477  1  0.59168600  0.81558800  0.37044600  1
  H  478  1  0.59321300  0.84606600  0.41061100  1
  H  479  1  0.58439400  0.84425500  0.44721800  1
  H  480  1  0.51346200  0.86617800  0.45096200  1
  H  481  1  0.50123600  0.83576200  0.45880000  1
  H  482  1  0.57240200  0.81417900  0.45518700  1
  H  485  1  0.51175200  0.97483500  0.46488900  1
  H  486  1  0.66151900  0.90779100  0.48275900  1
  H  488  1  0.56883600  0.80031000  0.33106100  1
  H  490  1  0.51113000  0.80286800  0.46583500  1
  H  516  1  0.63155700  0.60327300  0.47760800  1
  H  517  1  0.59125300  0.61313400  0.47697300  1
  H  518  1  0.62237800  0.54008000  0.41148900  1
  H  519  1  0.58206400  0.54995400  0.41107400  1
  H  520  1  0.53748400  0.54882100  0.42668500  1
  H  521  1  0.51687200  0.53487300  0.44943000  1
  H  522  1  0.52577800  0.60213500  0.51104500  1
  H  523  1  0.54627700  0.61586400  0.48840000  1
  H  524  1  0.52093200  0.62499100  0.45733100  1
  H  525  1  0.51922100  0.66554900  0.46656700  1
  H  526  1  0.59173300  0.66279900  0.44962400  1
  H  527  1  0.59325200  0.62264400  0.43996400  1
  H  528  1  0.58439000  0.58607900  0.40149300  1
  H  529  1  0.51347100  0.58222600  0.41963100  1
  H  530  1  0.50124500  0.57438900  0.38138000  1
  H  531  1  0.57239800  0.57811200  0.36344600  1
  H  534  1  0.51174300  0.56837500  0.51438800  1
  H  535  1  0.66153700  0.55052500  0.42945000  1
  H  537  1  0.56887700  0.70217300  0.47358500  1
  H  539  1  0.51111400  0.56746000  0.34149700  1
  H  565  1  0.63164700  0.55576600  0.13046000  1
  H  566  1  0.59135100  0.55638500  0.14095500  1
  H  567  1  0.62226800  0.62156000  0.13274100  1
  H  568  1  0.58195800  0.62196300  0.14303600  1
  H  569  1  0.53722700  0.60665400  0.12672500  1
  H  570  1  0.51661500  0.58390500  0.09003300  1
  H  571  1  0.52602900  0.52218200  0.09538900  1
  H  572  1  0.54652300  0.54483000  0.13176800  1
  H  573  1  0.52093600  0.57559900  0.17186700  1
  H  574  1  0.51921000  0.56632000  0.20316400  1
  H  575  1  0.59154000  0.58396500  0.21787800  1
  H  576  1  0.59307400  0.59364900  0.18739400  1
  H  577  1  0.58445800  0.63189400  0.18880900  1
  H  578  1  0.51346200  0.61351800  0.16724300  1
  H  579  1  0.50124000  0.65177700  0.19765200  1
  H  580  1  0.57246000  0.66995500  0.21887200  1
  H  583  1  0.51177300  0.51890300  0.05840000  1
  H  584  1  0.66151200  0.60384300  0.12559900  1
  H  586  1  0.56876500  0.55957600  0.23294700  1
  H  588  1  0.51115000  0.69177100  0.23041200  1
  H  595  1  0.92944200  0.55776000  0.30049800  1
  H  597  1  0.86675200  0.59596500  0.28048900  1
  H  599  1  0.84779500  0.59079900  0.31713500  1
  H  600  1  0.92837900  0.53612200  0.24792100  1
  H  609  1  0.92947700  0.77153900  0.47548900  1
  H  611  1  0.86674500  0.71336800  0.43733400  1
  H  613  1  0.84780400  0.75522200  0.44254900  1
  H  614  1  0.92844600  0.74061600  0.49712200  1
  H  623  1  0.92943600  0.73275200  0.26172200  1
  H  625  1  0.86674300  0.75273400  0.31992700  1
  H  627  1  0.84780400  0.71607500  0.27809700  1
  H  628  1  0.92834200  0.78533900  0.29267000  1
  H  637  1  0.42946200  0.48364600  0.72467300  1
  H  639  1  0.36672400  0.44545700  0.74464000  1
  H  641  1  0.34782300  0.45065000  0.70796300  1
  H  642  1  0.42834800  0.50529000  0.77725600  1
  H  651  1  0.42944300  0.26985700  0.54962300  1
  H  653  1  0.36669000  0.32800200  0.58779000  1
  H  655  1  0.34779600  0.28614400  0.58261500  1
  H  656  1  0.42830600  0.30080200  0.52796800  1
  H  665  1  0.42937200  0.30861200  0.76343300  1
  H  667  1  0.36671300  0.28859400  0.70518700  1
  H  669  1  0.34773600  0.32524000  0.74695400  1
  H  670  1  0.42831300  0.25603500  0.73250900  1
  H  679  1  0.00870800  0.26979500  0.72407600  1
  H  681  1  0.07158500  0.32789100  0.74444500  1
  H  683  1  0.09067900  0.28589100  0.70806300  1
  H  684  1  0.00912400  0.30066200  0.77643000  1
  H  693  1  0.00873100  0.30919500  0.55015800  1
  H  695  1  0.07161700  0.28881000  0.58786000  1
  H  697  1  0.09070200  0.32520100  0.58224500  1
  H  698  1  0.00917400  0.25681800  0.52866100  1
  H  707  1  0.00866200  0.48308800  0.76346200  1
  H  709  1  0.07159900  0.44546500  0.70542000  1
  H  711  1  0.09067900  0.45112200  0.74744900  1
  H  712  1  0.00904300  0.50457900  0.73260200  1
  H  721  1  0.50867700  0.77153800  0.30109300  1
  H  723  1  0.57171800  0.71359800  0.28066800  1
  H  725  1  0.59072900  0.75570000  0.31706200  1
  H  726  1  0.50911600  0.74064200  0.24870100  1
  H  735  1  0.50867800  0.73215000  0.47488600  1
  H  737  1  0.57164700  0.75254300  0.43727400  1
  H  739  1  0.59069300  0.71615800  0.44295000  1
  H  740  1  0.50911600  0.78453300  0.49636900  1
  H  749  1  0.50862300  0.55835700  0.26171500  1
  H  751  1  0.57164600  0.59593000  0.31966600  1
  H  753  1  0.59064700  0.59022600  0.27755700  1
  H  754  1  0.50909300  0.53687000  0.29262000  1
  H  763  1  0.69791100  0.57927600  0.48662600  1
  H  765  1  0.74155600  0.58080700  0.42286400  1
  H  767  1  0.69265500  0.59876300  0.42417600  1
  H  768  1  0.74754900  0.56075900  0.48469100  1
  H  777  1  0.69790700  0.93615000  0.45396700  1
  H  779  1  0.74157000  0.87089200  0.45248800  1
  H  781  1  0.69268000  0.85423100  0.43454500  1
  H  782  1  0.74754000  0.95275400  0.47246800  1
  H  791  1  0.69792200  0.54663700  0.09710700  1
  H  793  1  0.74156100  0.61042000  0.16238600  1
  H  795  1  0.69266400  0.60910400  0.17903300  1
  H  796  1  0.74756300  0.54856900  0.08052000  1
  H  805  1  0.19789300  0.46213100  0.53853500  1
  H  807  1  0.24154600  0.46052500  0.60225500  1
  H  809  1  0.19263100  0.44256000  0.60092900  1
  H  810  1  0.24749900  0.48067300  0.54049300  1
  H  819  1  0.19790000  0.10522800  0.57113800  1
  H  821  1  0.24154800  0.17054200  0.57272000  1
  H  823  1  0.19264400  0.18718200  0.59068600  1
  H  824  1  0.24751300  0.08864200  0.55260000  1
  H  833  1  0.19789500  0.49476700  0.92803200  1
  H  835  1  0.24158500  0.43100500  0.86279200  1
  H  837  1  0.19269100  0.43228000  0.84611200  1
  H  838  1  0.24750900  0.49287600  0.94466100  1
  H  847  1  0.98627400  0.54459300  0.55182600  1
  H  849  1  0.95097000  0.49562800  0.47408800  1
  H  851  1  0.98272400  0.46561400  0.47573300  1
  H  852  1  0.94957000  0.57302600  0.54564500  1
  H  861  1  0.98627900  0.03604600  0.48866700  1
  H  863  1  0.95095500  0.00729700  0.53764500  1
  H  865  1  0.98270200  0.03896500  0.56766200  1
  H  866  1  0.94958400  0.00142600  0.46023200  1
  H  875  1  0.98631700  0.48145800  0.99722300  1
  H  877  1  0.95093600  0.55915400  0.02593900  1
  H  879  1  0.98267600  0.55751800  0.99428100  1
  H  880  1  0.94962500  0.48763100  0.03184800  1
  H  889  1  0.48633500  0.49676600  0.47333100  1
  H  891  1  0.45093900  0.54575300  0.55101700  1
  H  893  1  0.48268400  0.57578000  0.54937800  1
  H  894  1  0.44963500  0.46832400  0.47950200  1
  H  903  1  0.48633700  0.00537900  0.53648700  1
  H  905  1  0.45095300  0.03407700  0.48749300  1
  H  907  1  0.48269600  0.00241400  0.45747400  1
  H  908  1  0.44964100  0.03999700  0.56492800  1
  H  917  1  0.48624500  0.55998100  0.02793200  1
  H  919  1  0.45099100  0.48221900  0.99915000  1
  H  921  1  0.48275800  0.48387700  0.03080400  1
  H  922  1  0.44953400  0.55378400  0.99331800  1
  C  1  1  0.90308000  0.66504100  0.45861100  1
  C  2  1  0.91990800  0.64791500  0.45655300  1
  C  3  1  0.91283900  0.62518100  0.45212400  1
  C  4  1  0.88861200  0.61848900  0.45016400  1
  C  5  1  0.87197200  0.63597400  0.45230400  1
  C  6  1  0.87888400  0.65868700  0.45672000  1
  C  7  1  0.88116100  0.59247000  0.44052700  1
  C  8  1  0.88148700  0.58398900  0.41371300  1
  C  9  1  0.86162700  0.58764700  0.40236500  1
  C  10  1  0.86221200  0.58242700  0.37856100  1
  C  11  1  0.88319800  0.57420700  0.36503600  1
  C  12  1  0.90354100  0.57140700  0.37611000  1
  C  13  1  0.90266700  0.57640600  0.39996600  1
  C  14  1  0.89697400  0.57834200  0.44832500  1
  C  15  1  0.85687900  0.58952700  0.44933100  1
  C  16  1  0.84202600  0.56964000  0.43512400  1
  C  17  1  0.81840800  0.56865000  0.44158200  1
  C  18  1  0.80899400  0.58693400  0.46330900  1
  C  19  1  0.82459100  0.60511100  0.47903600  1
  C  20  1  0.84810800  0.60609300  0.47233200  1
  C  21  1  0.90629700  0.58854400  0.47183400  1
  C  22  1  0.91942100  0.57508000  0.47960000  1
  C  23  1  0.92336600  0.55035900  0.46440800  1
  C  24  1  0.91323000  0.53985100  0.44132200  1
  C  25  1  0.90014000  0.55335400  0.43370200  1
  C  42  1  0.78526200  0.58751500  0.46940500  1
  C  43  1  0.91051200  0.68687400  0.46143000  1
  C  46  1  0.88293600  0.56946800  0.34167700  1
  C  48  1  0.93634700  0.53608400  0.47106000  1
  C  50  1  0.90308800  0.82234300  0.36823200  1
  C  51  1  0.91991900  0.83738100  0.38537400  1
  C  52  1  0.91284800  0.85571300  0.40809000  1
  C  53  1  0.88862100  0.86050400  0.41477900  1
  C  54  1  0.87198700  0.84517200  0.39727100  1
  C  55  1  0.87889300  0.82686400  0.37456300  1
  C  56  1  0.88117200  0.87686400  0.44079700  1
  C  57  1  0.88151500  0.85853800  0.44928200  1
  C  58  1  0.86169700  0.84345700  0.44554900  1
  C  59  1  0.86229100  0.82488500  0.45078500  1
  C  60  1  0.88326100  0.81964800  0.45908500  1
  C  61  1  0.90358000  0.83356700  0.46193000  1
  C  62  1  0.90268900  0.85240800  0.45690800  1
  C  63  1  0.89698700  0.89878600  0.45492000  1
  C  64  1  0.85688300  0.88859600  0.44374600  1
  C  65  1  0.84200500  0.89420800  0.46359700  1
  C  66  1  0.81839600  0.90168500  0.46460400  1
  C  67  1  0.80899900  0.90518700  0.44634900  1
  C  68  1  0.82460900  0.90276400  0.42819100  1
  C  69  1  0.84812900  0.89508800  0.42721700  1
  C  70  1  0.90633400  0.91208500  0.44471900  1
  C  71  1  0.91944200  0.93332700  0.45818700  1
  C  72  1  0.92333700  0.94288700  0.48291900  1
  C  73  1  0.91315400  0.93033600  0.49343500  1
  C  74  1  0.90008000  0.90920500  0.47992400  1
  C  91  1  0.78527600  0.91072900  0.44577500  1
  C  92  1  0.91051600  0.80330600  0.34641200  1
  C  95  1  0.88301100  0.80108400  0.46390900  1
  C  97  1  0.93630900  0.96381900  0.49719800  1
  C  99  1  0.90309300  0.57466800  0.21089000  1
  C  100  1  0.91992000  0.57674200  0.19583300  1
  C  101  1  0.91284700  0.58113600  0.17750600  1
  C  102  1  0.88862100  0.58307700  0.17274600  1
  C  103  1  0.87199300  0.58095300  0.18811400  1
  C  104  1  0.87889800  0.57652300  0.20640100  1
  C  105  1  0.88117200  0.59273300  0.15638300  1
  C  106  1  0.88150200  0.61954400  0.17471000  1
  C  107  1  0.86166300  0.63089500  0.18975400  1
  C  108  1  0.86225000  0.65470000  0.20833800  1
  C  109  1  0.88323200  0.66822600  0.21362300  1
  C  110  1  0.90356700  0.65715000  0.19973900  1
  C  111  1  0.90268400  0.63329400  0.18088400  1
  C  112  1  0.89699200  0.58494400  0.13446700  1
  C  113  1  0.85688800  0.58393800  0.14464400  1
  C  114  1  0.84202500  0.59815700  0.13898900  1
  C  115  1  0.81841400  0.59169200  0.13152100  1
  C  116  1  0.80899900  0.56996400  0.12807700  1
  C  117  1  0.82459800  0.55423400  0.13052000  1
  C  118  1  0.84811800  0.56093400  0.13819700  1
  C  119  1  0.90630400  0.56142900  0.12114000  1
  C  120  1  0.91941300  0.55366100  0.09990100  1
  C  121  1  0.92333800  0.56884800  0.09036500  1
  C  122  1  0.91319300  0.59192900  0.10294200  1
  C  123  1  0.90012200  0.59954900  0.12407600  1
  C  140  1  0.78526700  0.56387100  0.12257500  1
  C  141  1  0.91052300  0.57186600  0.22991600  1
  C  144  1  0.88297200  0.69160000  0.23221300  1
  C  146  1  0.93629500  0.56219300  0.06942300  1
  C  148  1  0.40305200  0.37634300  0.56653600  1
  C  149  1  0.41989200  0.39354500  0.56881000  1
  C  150  1  0.41282200  0.41626500  0.57320600  1
  C  151  1  0.38858700  0.42289200  0.57495400  1
  C  152  1  0.37194300  0.40532900  0.57260300  1
  C  153  1  0.37885000  0.38261400  0.56818200  1
  C  154  1  0.38116800  0.44892300  0.58463000  1
  C  155  1  0.38154800  0.45738900  0.61143800  1
  C  156  1  0.36178100  0.45349200  0.62272800  1
  C  157  1  0.36237800  0.45872800  0.64653700  1
  C  158  1  0.38330000  0.46720100  0.66012400  1
  C  159  1  0.40357300  0.47021100  0.64910700  1
  C  160  1  0.40268000  0.46518900  0.62524300  1
  C  161  1  0.39697500  0.46303100  0.57680600  1
  C  162  1  0.35686700  0.45190900  0.57589400  1
  C  163  1  0.34194100  0.47169000  0.59021600  1
  C  164  1  0.31833700  0.47270100  0.58373900  1
  C  165  1  0.30898800  0.45453400  0.56190600  1
  C  166  1  0.32465100  0.43647600  0.54610400  1
  C  167  1  0.34817400  0.43550100  0.55280500  1
  C  168  1  0.40644400  0.45279800  0.55335200  1
  C  169  1  0.41954900  0.46627000  0.54558100  1
  C  170  1  0.42332600  0.49102900  0.56071000  1
  C  171  1  0.41302600  0.50156900  0.58372500  1
  C  172  1  0.39994800  0.48805800  0.59134400  1
  C  189  1  0.28527000  0.45397800  0.55577000  1
  C  190  1  0.41047500  0.35451700  0.56374400  1
  C  193  1  0.38304700  0.47204700  0.68351700  1
  C  195  1  0.43631000  0.50530700  0.55406400  1
  C  197  1  0.40306100  0.21899300  0.65692200  1
  C  198  1  0.41989900  0.20405700  0.63972500  1
  C  199  1  0.41282700  0.18574300  0.61699800  1
  C  200  1  0.38859200  0.18087600  0.61036600  1
  C  201  1  0.37195000  0.19610000  0.62792400  1
  C  202  1  0.37885900  0.21439300  0.65063900  1
  C  203  1  0.38117100  0.16452000  0.58433500  1
  C  204  1  0.38154500  0.18286200  0.57587000  1
  C  205  1  0.36176700  0.19803200  0.57975000  1
  C  206  1  0.36235000  0.21659700  0.57450400  1
  C  207  1  0.38327900  0.22174500  0.56607100  1
  C  208  1  0.40356200  0.20773400  0.56307700  1
  C  209  1  0.40267800  0.18889000  0.56809500  1
  C  210  1  0.39698100  0.14259000  0.57022400  1
  C  211  1  0.35687400  0.15279400  0.58135500  1
  C  212  1  0.34195000  0.14732000  0.56156700  1
  C  213  1  0.31834700  0.13983200  0.56055500  1
  C  214  1  0.30899000  0.13619700  0.57873900  1
  C  215  1  0.32464400  0.13848200  0.59681400  1
  C  216  1  0.34817400  0.14613400  0.59777600  1
  C  217  1  0.40643700  0.12935800  0.58045100  1
  C  218  1  0.41953300  0.10811100  0.56697400  1
  C  219  1  0.42331900  0.09848900  0.54221800  1
  C  220  1  0.41303300  0.11097900  0.53168600  1
  C  221  1  0.39996600  0.13211300  0.54520100  1
  C  238  1  0.28527000  0.13063000  0.57930500  1
  C  239  1  0.41048000  0.23801400  0.67875300  1
  C  242  1  0.38302100  0.24031200  0.56125500  1
  C  244  1  0.43627800  0.07754900  0.52792900  1
  C  246  1  0.40305000  0.46673600  0.81425500  1
  C  247  1  0.41988200  0.46464800  0.82930600  1
  C  248  1  0.41281500  0.46026200  0.84763900  1
  C  249  1  0.38858900  0.45829700  0.85236900  1
  C  250  1  0.37194600  0.46045100  0.83703500  1
  C  251  1  0.37885600  0.46486300  0.81873500  1
  C  252  1  0.38114100  0.44866600  0.86875800  1
  C  253  1  0.38146200  0.42185100  0.85043500  1
  C  254  1  0.36158600  0.41052400  0.83543700  1
  C  255  1  0.36214400  0.38672500  0.81684100  1
  C  256  1  0.38312300  0.37318500  0.81149600  1
  C  257  1  0.40348400  0.38423700  0.82534900  1
  C  258  1  0.40263200  0.40808700  0.84422100  1
  C  259  1  0.39697400  0.45646500  0.89066900  1
  C  260  1  0.35686500  0.45747800  0.88051700  1
  C  261  1  0.34203300  0.44328900  0.88623900  1
  C  262  1  0.31841500  0.44974400  0.89368900  1
  C  263  1  0.30898800  0.47146200  0.89711300  1
  C  264  1  0.32457500  0.48717700  0.89463100  1
  C  265  1  0.34809200  0.48047700  0.88694600  1
  C  266  1  0.40628000  0.47997800  0.90399200  1
  C  267  1  0.41940000  0.48774400  0.92522500  1
  C  268  1  0.42334900  0.47254800  0.93474700  1
  C  269  1  0.41321900  0.44946100  0.92216200  1
  C  270  1  0.40013600  0.44184200  0.90103500  1
  C  287  1  0.28526300  0.47757000  0.90267400  1
  C  288  1  0.41048200  0.46953900  0.79523100  1
  C  291  1  0.38283100  0.34983500  0.79285100  1
  C  293  1  0.43631800  0.47920100  0.95568200  1
  C  295  1  0.03553100  0.21938200  0.56684400  1
  C  296  1  0.01900800  0.20341700  0.56775500  1
  C  297  1  0.02632800  0.18514300  0.57214500  1
  C  298  1  0.05055300  0.18139600  0.57526500  1
  C  299  1  0.06685300  0.19774600  0.57443700  1
  C  300  1  0.05971000  0.21594700  0.56999200  1
  C  301  1  0.05825700  0.16476100  0.58452300  1
  C  302  1  0.05773100  0.18272700  0.61143200  1
  C  303  1  0.07766300  0.19737600  0.62331400  1
  C  304  1  0.07680000  0.21583300  0.64716500  1
  C  305  1  0.05548500  0.22139100  0.66021700  1
  C  306  1  0.03512400  0.20782100  0.64865300  1
  C  307  1  0.03627700  0.18906800  0.62476500  1
  C  308  1  0.04279000  0.14255200  0.57637700  1
  C  309  1  0.08271600  0.15346000  0.57563600  1
  C  310  1  0.09734000  0.14693600  0.58933300  1
  C  311  1  0.12133800  0.14080900  0.58355900  1
  C  312  1  0.13147300  0.13953500  0.56296100  1
  C  313  1  0.11606400  0.14247600  0.54738900  1
  C  314  1  0.09212600  0.14872600  0.55335000  1
  C  315  1  0.03439200  0.12893300  0.55253000  1
  C  316  1  0.02222900  0.10708800  0.54417200  1
  C  317  1  0.01846900  0.09722400  0.55909000  1
  C  318  1  0.02739500  0.11027700  0.58264700  1
  C  319  1  0.03940100  0.13209900  0.59090400  1
  C  336  1  0.15574300  0.13649200  0.55816000  1
  C  337  1  0.02785000  0.23822300  0.56384300  1
  C  340  1  0.05544400  0.24003600  0.68356900  1
  C  342  1  0.00792000  0.07490000  0.55126900  1
  C  344  1  0.03552300  0.46643400  0.65697500  1
  C  345  1  0.01901500  0.46559900  0.64012100  1
  C  346  1  0.02634000  0.46120600  0.61745700  1
  C  347  1  0.05055800  0.45798900  0.61056400  1
  C  348  1  0.06683900  0.45871600  0.62770900  1
  C  349  1  0.05969200  0.46318200  0.65036000  1
  C  350  1  0.05827000  0.44874700  0.58467500  1
  C  351  1  0.05776800  0.42183300  0.57572900  1
  C  352  1  0.07773000  0.40991700  0.57838400  1
  C  353  1  0.07685500  0.38607100  0.57300400  1
  C  354  1  0.05551800  0.37304900  0.56559500  1
  C  355  1  0.03513600  0.38464500  0.56367800  1
  C  356  1  0.03629100  0.40853500  0.56881500  1
  C  357  1  0.04280900  0.45688100  0.57059700  1
  C  358  1  0.08272400  0.45765700  0.58228300  1
  C  359  1  0.09732900  0.44400300  0.56203300  1
  C  360  1  0.12131800  0.44978900  0.56165100  1
  C  361  1  0.13148000  0.47033500  0.58101600  1
  C  362  1  0.11609700  0.48587500  0.59957700  1
  C  363  1  0.09216900  0.47989900  0.59988900  1
  C  364  1  0.03447200  0.48074900  0.58082000  1
  C  365  1  0.02229200  0.48910700  0.56734200  1
  C  366  1  0.01846200  0.47416800  0.54257400  1
  C  367  1  0.02732500  0.45058900  0.53207800  1
  C  368  1  0.03931700  0.44231900  0.54563900  1
  C  385  1  0.15575100  0.47513200  0.58275100  1
  C  386  1  0.02783000  0.46946000  0.67882200  1
  C  389  1  0.05547000  0.34970700  0.56091600  1
  C  391  1  0.00792300  0.48199300  0.52807000  1
  C  393  1  0.03553100  0.37630000  0.81389400  1
  C  394  1  0.01901700  0.39316100  0.82989200  1
  C  395  1  0.02633900  0.41583300  0.84814900  1
  C  396  1  0.05056300  0.42270600  0.85186400  1
  C  397  1  0.06685300  0.40554100  0.83549100  1
  C  398  1  0.05970500  0.38290100  0.81728700  1
  C  399  1  0.05827100  0.44859900  0.86850200  1
  C  400  1  0.05774900  0.45753600  0.85052800  1
  C  401  1  0.07768100  0.45481700  0.83590000  1
  C  402  1  0.07679300  0.46020900  0.81744400  1
  C  403  1  0.05546500  0.46769600  0.81189900  1
  C  404  1  0.03511200  0.46967700  0.82546600  1
  C  405  1  0.03627700  0.46451600  0.84420300  1
  C  406  1  0.04281800  0.46267900  0.89072100  1
  C  407  1  0.08273300  0.45100300  0.87979400  1
  C  408  1  0.09736500  0.47122000  0.88631600  1
  C  409  1  0.12135400  0.47158700  0.89247000  1
  C  410  1  0.13148700  0.45226500  0.89374800  1
  C  411  1  0.11608000  0.43374600  0.89079600  1
  C  412  1  0.09215100  0.43343800  0.88450400  1
  C  413  1  0.03443700  0.45244500  0.90433900  1
  C  414  1  0.02224500  0.46592300  0.92617000  1
  C  415  1  0.01849400  0.49070600  0.93604000  1
  C  416  1  0.02738700  0.50121000  0.92297600  1
  C  417  1  0.03939300  0.48764900  0.90115400  1
  C  434  1  0.15575400  0.45052300  0.89682300  1
  C  435  1  0.02784300  0.35445900  0.79506300  1
  C  438  1  0.05540100  0.47241500  0.79326200  1
  C  440  1  0.00793000  0.50520400  0.95836000  1
  C  442  1  0.53552100  0.82195900  0.45822200  1
  C  443  1  0.51900000  0.83791900  0.45730000  1
  C  444  1  0.52632900  0.85621300  0.45294500  1
  C  445  1  0.55055800  0.86000900  0.44988500  1
  C  446  1  0.56684800  0.84365600  0.45072400  1
  C  447  1  0.55970300  0.82542900  0.45513100  1
  C  448  1  0.55826100  0.87662300  0.44060600  1
  C  449  1  0.55772300  0.85865200  0.41369900  1
  C  450  1  0.57761000  0.84393700  0.40179900  1
  C  451  1  0.57671400  0.82549300  0.37794400  1
  C  452  1  0.55540500  0.82003000  0.36489600  1
  C  453  1  0.53507700  0.83365200  0.37647400  1
  C  454  1  0.53626000  0.85237100  0.40037800  1
  C  455  1  0.54280400  0.89883500  0.44874500  1
  C  456  1  0.58272800  0.88790300  0.44946700  1
  C  457  1  0.59738800  0.89433800  0.43572500  1
  C  458  1  0.62137000  0.90051900  0.44152400  1
  C  459  1  0.63148200  0.90187300  0.46216700  1
  C  460  1  0.61606200  0.89895900  0.47775000  1
  C  461  1  0.59213200  0.89268100  0.47177000  1
  C  462  1  0.53438600  0.91244200  0.47258600  1
  C  463  1  0.52221900  0.93428700  0.48095200  1
  C  464  1  0.51852700  0.94419300  0.46605900  1
  C  465  1  0.52747800  0.93116200  0.44251400  1
  C  466  1  0.53946700  0.90933100  0.43425000  1
  C  483  1  0.65574600  0.90497000  0.46700400  1
  C  484  1  0.52783300  0.80309000  0.46117200  1
  C  487  1  0.55532600  0.80145800  0.34150900  1
  C  489  1  0.50796800  0.96651600  0.47388800  1
  C  491  1  0.53552500  0.57502100  0.36817200  1
  C  492  1  0.51900700  0.57591300  0.38504300  1
  C  493  1  0.52633600  0.58026700  0.40769300  1
  C  494  1  0.55056200  0.58336400  0.41456100  1
  C  495  1  0.56684600  0.58256900  0.39738500  1
  C  496  1  0.55970500  0.57813500  0.37474100  1
  C  497  1  0.55826300  0.59263900  0.44045400  1
  C  498  1  0.55773700  0.61954800  0.44939500  1
  C  499  1  0.57764100  0.63145200  0.44661800  1
  C  500  1  0.57675100  0.65530200  0.45201200  1
  C  501  1  0.55543200  0.66834200  0.45954400  1
  C  502  1  0.53509100  0.65675900  0.46155300  1
  C  503  1  0.53626700  0.63286000  0.45638600  1
  C  504  1  0.54280100  0.58450400  0.45452800  1
  C  505  1  0.58272700  0.58376500  0.44287000  1
  C  506  1  0.59737100  0.59748500  0.46306800  1
  C  507  1  0.62135100  0.59168300  0.46346300  1
  C  508  1  0.63148200  0.57107800  0.44414400  1
  C  509  1  0.61607500  0.55550200  0.42562900  1
  C  510  1  0.59214600  0.56148200  0.42532300  1
  C  511  1  0.53441200  0.56065300  0.44430100  1
  C  512  1  0.52224000  0.55229000  0.45778000  1
  C  513  1  0.51851100  0.56719500  0.48256800  1
  C  514  1  0.52743400  0.59075200  0.49307700  1
  C  515  1  0.53942800  0.59901400  0.47951100  1
  C  532  1  0.65575100  0.56626300  0.44240100  1
  C  533  1  0.52783300  0.57206700  0.34635200  1
  C  536  1  0.55536300  0.69171300  0.46430900  1
  C  538  1  0.50795900  0.55936900  0.49706700  1
  C  540  1  0.53555100  0.66509600  0.21127700  1
  C  541  1  0.51900800  0.64815900  0.19542100  1
  C  542  1  0.52633000  0.62550600  0.17713100  1
  C  543  1  0.55057600  0.61870600  0.17325300  1
  C  544  1  0.56689100  0.63595300  0.18948900  1
  C  545  1  0.55974600  0.65859100  0.20770600  1
  C  546  1  0.55824500  0.59280100  0.15664100  1
  C  547  1  0.55766600  0.58388600  0.17462900  1
  C  548  1  0.57750900  0.58685300  0.18944700  1
  C  549  1  0.57660600  0.58145000  0.20789600  1
  C  550  1  0.55533300  0.57369900  0.21323800  1
  C  551  1  0.53504500  0.57150400  0.19951000  1
  C  552  1  0.53623500  0.57668700  0.18079000  1
  C  553  1  0.54279700  0.57874300  0.13441700  1
  C  554  1  0.58272300  0.59034100  0.14536300  1
  C  555  1  0.59742500  0.57022800  0.13908400  1
  C  556  1  0.62140700  0.56985400  0.13290800  1
  C  557  1  0.63147700  0.58908100  0.13141300  1
  C  558  1  0.61600600  0.60747400  0.13414200  1
  C  559  1  0.59206500  0.60775600  0.14039400  1
  C  560  1  0.53426000  0.58901100  0.12088400  1
  C  561  1  0.52211000  0.57552500  0.09903000  1
  C  562  1  0.51850900  0.55070700  0.08906800  1
  C  563  1  0.52758100  0.54016700  0.10203200  1
  C  564  1  0.53957600  0.55373300  0.12386200  1
  C  581  1  0.65573900  0.59085300  0.12833200  1
  C  582  1  0.52787200  0.68691700  0.23014800  1
  C  585  1  0.55525000  0.56887200  0.23179800  1
  C  587  1  0.50795900  0.53621500  0.06674000  1
  C  589  1  0.87995200  0.58758900  0.28437800  1
  C  590  1  0.87944700  0.58847300  0.30657700  1
  C  591  1  0.89767200  0.57749000  0.31270200  1
  C  592  1  0.91615000  0.56576100  0.29628000  1
  C  593  1  0.91634400  0.56440000  0.27382000  1
  C  594  1  0.89829400  0.57571800  0.26776600  1
  C  603  1  0.87995400  0.72562300  0.44569900  1
  C  604  1  0.87945000  0.74694400  0.44482500  1
  C  605  1  0.89768600  0.76404000  0.45579400  1
  C  606  1  0.91617800  0.75932700  0.46749400  1
  C  607  1  0.91636600  0.73823000  0.46885800  1
  C  608  1  0.89830300  0.72086800  0.45755300  1
  C  617  1  0.87994300  0.74885100  0.30766300  1
  C  618  1  0.87944800  0.72665100  0.28635000  1
  C  619  1  0.89767500  0.72053400  0.26924700  1
  C  620  1  0.91614200  0.73696500  0.27393700  1
  C  621  1  0.91632900  0.75942400  0.29503600  1
  C  622  1  0.89827700  0.76547100  0.31240700  1
  C  631  1  0.37993800  0.45382200  0.74075600  1
  C  632  1  0.37945400  0.45294200  0.71855800  1
  C  633  1  0.39769500  0.46391500  0.71244300  1
  C  634  1  0.41616000  0.47565000  0.72888100  1
  C  635  1  0.41633200  0.47701100  0.75134100  1
  C  636  1  0.39827200  0.46569000  0.75738100  1
  C  645  1  0.37990600  0.31575300  0.57942600  1
  C  646  1  0.37943000  0.29444200  0.58031900  1
  C  647  1  0.39767300  0.27735800  0.56935200  1
  C  648  1  0.41614000  0.28206100  0.55761900  1
  C  649  1  0.41630500  0.30315300  0.55624500  1
  C  650  1  0.39823800  0.32051000  0.56755800  1
  C  659  1  0.37990600  0.29248400  0.71745900  1
  C  660  1  0.37939600  0.31468700  0.73877100  1
  C  661  1  0.39760800  0.32081400  0.75589200  1
  C  662  1  0.41608900  0.30439700  0.75120700  1
  C  663  1  0.41628200  0.28192900  0.73011800  1
  C  664  1  0.39823800  0.27586900  0.71273500  1
  C  673  1  0.05833900  0.31565500  0.74048100  1
  C  674  1  0.05897600  0.29428200  0.71834300  1
  C  675  1  0.04071000  0.27720600  0.71212400  1
  C  676  1  0.02204600  0.28198300  0.72838100  1
  C  677  1  0.02171100  0.30314600  0.75078700  1
  C  678  1  0.03982600  0.32046900  0.75694100  1
  C  687  1  0.05836300  0.29278300  0.57960300  1
  C  688  1  0.05900300  0.31492100  0.58037000  1
  C  689  1  0.04073100  0.32114700  0.56952200  1
  C  690  1  0.02206700  0.30489000  0.55803900  1
  C  691  1  0.02173600  0.28248100  0.55679000  1
  C  692  1  0.03984700  0.27632500  0.56795900  1
  C  701  1  0.05833700  0.45371200  0.71764300  1
  C  702  1  0.05897800  0.45294900  0.73901700  1
  C  703  1  0.04069200  0.46377800  0.75607900  1
  C  704  1  0.02200900  0.47522400  0.75128500  1
  C  705  1  0.02167400  0.47647000  0.73012200  1
  C  706  1  0.03980600  0.46532700  0.71281400  1
  C  715  1  0.55843100  0.72579900  0.28464900  1
  C  716  1  0.55904800  0.74717000  0.30679000  1
  C  717  1  0.54073200  0.76420100  0.31302300  1
  C  718  1  0.52204000  0.75937600  0.29678500  1
  C  719  1  0.52173300  0.73822200  0.27437000  1
  C  720  1  0.53989500  0.72094100  0.26820100  1
  C  729  1  0.55837800  0.74857000  0.44551600  1
  C  730  1  0.55900400  0.72643100  0.44475000  1
  C  731  1  0.54070700  0.72020600  0.45557300  1
  C  732  1  0.52203300  0.73645700  0.46702400  1
  C  733  1  0.52171000  0.75886300  0.46826600  1
  C  734  1  0.53984900  0.76502300  0.45712700  1
  C  743  1  0.55836000  0.58770300  0.30746700  1
  C  744  1  0.55897200  0.58846400  0.28609000  1
  C  745  1  0.54065900  0.57765600  0.26906100  1
  C  746  1  0.52198600  0.56621300  0.27387500  1
  C  747  1  0.52168200  0.56496900  0.29503700  1
  C  748  1  0.53983200  0.57610600  0.31232500  1
  C  757  1  0.73253300  0.58022100  0.43628400  1
  C  758  1  0.70755700  0.58082200  0.43620400  1
  C  759  1  0.69461800  0.58015700  0.45457400  1
  C  760  1  0.70707500  0.57949800  0.47310100  1
  C  761  1  0.73206700  0.57878900  0.47311900  1
  C  762  1  0.74514600  0.57969400  0.45485100  1
  C  771  1  0.73254500  0.88489100  0.45306600  1
  C  772  1  0.70757000  0.88420800  0.45247000  1
  C  773  1  0.69462300  0.90323800  0.45313300  1
  C  774  1  0.70707500  0.92240900  0.45375600  1
  C  775  1  0.73206700  0.92314400  0.45446600  1
  C  776  1  0.74515200  0.90398100  0.45357700  1
  C  785  1  0.73253800  0.59700300  0.14837800  1
  C  786  1  0.70756300  0.59707600  0.14906300  1
  C  787  1  0.69462500  0.57869900  0.13003300  1
  C  788  1  0.70708200  0.56017100  0.11084900  1
  C  789  1  0.73207400  0.56015400  0.11012100  1
  C  790  1  0.74515200  0.57842900  0.12928900  1
  C  799  1  0.23252200  0.46110500  0.58883400  1
  C  800  1  0.20754600  0.46051100  0.58891900  1
  C  801  1  0.19460500  0.46119900  0.57056200  1
  C  802  1  0.20705900  0.46188700  0.55204800  1
  C  803  1  0.23205000  0.46259800  0.55203000  1
  C  804  1  0.24513400  0.46166700  0.57028300  1
  C  813  1  0.23252500  0.15653400  0.57212500  1
  C  814  1  0.20755000  0.15721800  0.57273100  1
  C  815  1  0.19460800  0.13817600  0.57205000  1
  C  816  1  0.20706400  0.11898200  0.57137500  1
  C  817  1  0.23205400  0.11825000  0.57066100  1
  C  818  1  0.24513700  0.13742900  0.57158000  1
  C  827  1  0.23255400  0.44442400  0.87678300  1
  C  828  1  0.20757800  0.44433300  0.87608900  1
  C  829  1  0.19462200  0.46269500  0.89511400  1
  C  830  1  0.20706600  0.48124400  0.91429300  1
  C  831  1  0.23205800  0.48127300  0.91504000  1
  C  832  1  0.24515300  0.46300500  0.89588300  1
  C  841  1  0.95885600  0.50629600  0.49019800  1
  C  842  1  0.97169400  0.49524100  0.50082100  1
  C  843  1  0.98224000  0.50911700  0.52362600  1
  C  844  1  0.97916600  0.53410200  0.53522600  1
  C  845  1  0.96638200  0.54511100  0.52452700  1
  C  846  1  0.95626700  0.53139500  0.50155700  1
  C  855  1  0.95883400  0.01273900  0.52697400  1
  C  856  1  0.97168600  0.03441100  0.53802600  1
  C  857  1  0.98223500  0.04333400  0.52414600  1
  C  858  1  0.97916700  0.02994400  0.49916100  1
  C  859  1  0.96638400  0.00823500  0.48815600  1
  C  860  1  0.95626400  0.99898500  0.50187500  1
  C  869  1  0.95882900  0.54305000  0.02050700  1
  C  870  1  0.97167300  0.53242900  0.99883100  1
  C  871  1  0.98223600  0.50963200  0.98991500  1
  C  872  1  0.97918900  0.49804700  0.00331700  1
  C  873  1  0.96640200  0.50874700  0.02502400  1
  C  874  1  0.95625600  0.53170300  0.03425900  1
  C  883  1  0.45884400  0.53507900  0.53491900  1
  C  884  1  0.47169100  0.54613000  0.52429600  1
  C  885  1  0.48228000  0.53224700  0.50151400  1
  C  886  1  0.47921400  0.50726200  0.48992300  1
  C  887  1  0.46641900  0.49625800  0.50062200  1
  C  888  1  0.45629100  0.50997800  0.52358400  1
  C  897  1  0.45885300  0.02865000  0.49816700  1
  C  898  1  0.47169500  0.00697500  0.48711900  1
  C  899  1  0.48226600  0.99806800  0.50100400  1
  C  900  1  0.47921000  0.01147200  0.52599100  1
  C  901  1  0.46642300  0.03317600  0.53699100  1
  C  902  1  0.45628100  0.04240900  0.52326800  1
  C  911  1  0.45885300  0.49834200  0.00460200  1
  C  912  1  0.47170600  0.50896200  0.02626900  1
  C  913  1  0.48223400  0.53177500  0.03520300  1
  C  914  1  0.47914400  0.54337800  0.02182300  1
  C  915  1  0.46636100  0.53267500  0.00011700  1
  C  916  1  0.45625200  0.50969900  0.99085900  1
  N  601  1  0.89669000  0.57600800  0.24737000  1
  N  602  1  0.89810400  0.57878400  0.33388900  1
  N  615  1  0.89669700  0.70017700  0.45725400  1
  N  616  1  0.89812500  0.78393700  0.45450900  1
  N  629  1  0.89666700  0.78587000  0.33308900  1
  N  630  1  0.89810800  0.69935400  0.24934600  1
  N  643  1  0.39664400  0.46541400  0.77778300  1
  N  644  1  0.39814600  0.46263000  0.69126100  1
  N  657  1  0.39660900  0.34118400  0.56782500  1
  N  658  1  0.39812900  0.25746600  0.57064800  1
  N  671  1  0.39664000  0.25546900  0.69205200  1
  N  672  1  0.39804400  0.34200500  0.77578100  1
  N  685  1  0.04135800  0.34118200  0.77729200  1
  N  686  1  0.04044900  0.25726200  0.69098100  1
  N  699  1  0.04139200  0.25596100  0.56829100  1
  N  700  1  0.04047400  0.34229100  0.57072600  1
  N  713  1  0.04134000  0.46497100  0.69210400  1
  N  714  1  0.04043300  0.46256800  0.77601600  1
  N  727  1  0.54145300  0.70024400  0.24783600  1
  N  728  1  0.54045200  0.78413800  0.33416500  1
  N  741  1  0.54139800  0.78538200  0.45678300  1
  N  742  1  0.54044300  0.69906900  0.45438200  1
  N  755  1  0.54139800  0.57643900  0.33302200  1
  N  756  1  0.54037700  0.57885300  0.24911800  1
  N  769  1  0.76874900  0.57986200  0.45357200  1
  N  770  1  0.67114100  0.58202900  0.45566000  1
  N  783  1  0.76875500  0.90253600  0.45340700  1
  N  784  1  0.67114800  0.90243900  0.45124000  1
  N  797  1  0.76875500  0.57970500  0.13074200  1
  N  798  1  0.67115000  0.57759400  0.13081100  1
  N  811  1  0.26873400  0.46153300  0.57157700  1
  N  812  1  0.17112400  0.45935100  0.56948300  1
  N  825  1  0.26874000  0.13886200  0.57172200  1
  N  826  1  0.17113000  0.13895400  0.57391300  1
  N  839  1  0.26875800  0.46172700  0.89446400  1
  N  840  1  0.17114500  0.46378000  0.89431700  1
  N  853  1  0.94396500  0.54273100  0.49229200  1
  N  854  1  0.99379000  0.50000400  0.53547900  1
  N  867  1  0.94396100  0.97838500  0.49053900  1
  N  868  1  0.99379000  0.06429700  0.53325600  1
  N  881  1  0.94396500  0.54097300  0.05486600  1
  N  882  1  0.99380200  0.49778700  0.96895900  1
  N  895  1  0.44397500  0.49864600  0.53284400  1
  N  896  1  0.49382700  0.54135600  0.48965600  1
  N  909  1  0.44398000  0.06301100  0.53460200  1
  N  910  1  0.49382600  0.97710700  0.49189500  1
  N  923  1  0.44395600  0.50042900  0.97025600  1
  N  924  1  0.49379000  0.54362500  0.05616600  1
  O  596  1  0.86196100  0.60102000  0.32242400  1
  O  598  1  0.93441100  0.55228200  0.25870700  1
  O  610  1  0.86195100  0.75026400  0.43230300  1
  O  612  1  0.93444900  0.73521800  0.48094800  1
  O  624  1  0.86196700  0.71079500  0.28304200  1
  O  626  1  0.93438800  0.77454700  0.29803100  1
  O  638  1  0.36197100  0.44040500  0.70270100  1
  O  640  1  0.43438900  0.48913300  0.76646900  1
  O  652  1  0.36194800  0.29112300  0.59285800  1
  O  654  1  0.43435700  0.30615600  0.54411800  1
  O  666  1  0.36191800  0.33053700  0.74205400  1
  O  668  1  0.43434800  0.26681700  0.72713200  1
  O  680  1  0.07665500  0.29088600  0.70264400  1
  O  682  1  0.00343900  0.30629500  0.76573800  1
  O  694  1  0.07668500  0.33061500  0.59267100  1
  O  696  1  0.00346900  0.26752300  0.54497500  1
  O  708  1  0.07667600  0.44067700  0.74242800  1
  O  710  1  0.00338400  0.48824300  0.72695900  1
  O  722  1  0.57675800  0.75061600  0.32246900  1
  O  724  1  0.50344500  0.73504500  0.25942700  1
  O  736  1  0.57670200  0.71074400  0.43249000  1
  O  738  1  0.50343100  0.77381300  0.48005100  1
  O  750  1  0.57667300  0.60071000  0.28264700  1
  O  752  1  0.50340600  0.55318700  0.29821400  1
  O  764  1  0.69630400  0.58184000  0.41814900  1
  O  766  1  0.74282600  0.57751100  0.49123000  1
  O  778  1  0.69632000  0.86514100  0.45146700  1
  O  780  1  0.74281900  0.94252400  0.45572000  1
  O  792  1  0.69630800  0.61512900  0.16813400  1
  O  794  1  0.74283300  0.54203800  0.09073900  1
  O  806  1  0.19629300  0.45948200  0.60696800  1
  O  808  1  0.24280600  0.46391100  0.53393900  1
  O  820  1  0.19629800  0.17629800  0.57376300  1
  O  822  1  0.24281100  0.09885200  0.56935900  1
  O  834  1  0.19633700  0.42626400  0.85701600  1
  O  836  1  0.24280200  0.49939700  0.93442700  1
  O  848  1  0.97211000  0.47099000  0.48954600  1
  O  850  1  0.96446900  0.56930300  0.53658700  1
  O  862  1  0.97208600  0.04739300  0.56227700  1
  O  864  1  0.96447900  0.99609400  0.46396300  1
  O  876  1  0.97207600  0.54369200  0.98584500  1
  O  878  1  0.96451500  0.49670200  0.03717200  1
  O  890  1  0.47208700  0.57038000  0.53554900  1
  O  892  1  0.46452500  0.47206400  0.48857400  1
  O  904  1  0.47209700  0.99398100  0.46286900  1
  O  906  1  0.46453100  0.04532800  0.56118600  1
  O  918  1  0.47213300  0.49768300  0.03924100  1
  O  920  1  0.46443700  0.54473300  0.98798400  1
