# generated using pymatgen
data_H16C35(N2O)2
_symmetry_space_group_name_H-M   'P 1'
_cell_length_a   19.28000000
_cell_length_b   52.40880000
_cell_length_c   52.40880000
_cell_angle_alpha   90.00000000
_cell_angle_beta   90.00000000
_cell_angle_gamma   90.00000000
_symmetry_Int_Tables_number   1
_chemical_formula_structural   H16C35(N2O)2
_chemical_formula_sum   'H256 C560 N64 O32'
_cell_volume   52956.03508024
_cell_formula_units_Z   16
loop_
 _symmetry_equiv_pos_site_id
 _symmetry_equiv_pos_as_xyz
  1  'x, y, z'
loop_
 _atom_site_type_symbol
 _atom_site_label
 _atom_site_symmetry_multiplicity
 _atom_site_fract_x
 _atom_site_fract_y
 _atom_site_fract_z
 _atom_site_occupancy
  C  1  1  0.18660100  0.07859100  0.00696500  1
  C  2  1  0.15602000  0.09384700  0.98812300  1
  C  3  1  0.20199600  0.11247200  0.98060900  1
  C  4  1  0.26467000  0.10945800  0.99379600  1
  C  5  1  0.32096300  0.12551500  0.98692300  1
  C  6  1  0.31374300  0.14368800  0.96677700  1
  C  7  1  0.24838000  0.14622500  0.95463600  1
  C  8  1  0.19241700  0.13078300  0.96142100  1
  C  9  1  0.09152300  0.08835900  0.97703300  1
  C  10  1  0.05756600  0.06593100  0.98405500  1
  C  11  1  0.08700200  0.04875000  0.00190900  1
  C  12  1  0.15137200  0.05566000  0.01376200  1
  C  13  1  0.31367000  0.07190300  0.02096200  1
  C  14  1  0.33205300  0.07462500  0.04674700  1
  C  15  1  0.29534100  0.09426300  0.05765300  1
  C  16  1  0.24968600  0.10456500  0.03976700  1
  C  17  1  0.30568200  0.10505000  0.08181500  1
  C  18  1  0.27032900  0.12741500  0.08801700  1
  C  19  1  0.22392900  0.13946600  0.07070200  1
  C  20  1  0.21352000  0.12729300  0.04654400  1
  C  21  1  0.35210400  0.05374300  0.00639800  1
  C  22  1  0.40699500  0.03934000  0.01792300  1
  C  23  1  0.42147200  0.04275800  0.04413800  1
  C  24  1  0.38452700  0.06037700  0.05862500  1
  C  37  1  0.25511600  0.09025800  0.01484300  1
  C  38  1  0.68690000  0.42876600  0.00008700  1
  C  39  1  0.65614000  0.41353000  0.01891500  1
  C  40  1  0.70217200  0.39497800  0.02657500  1
  C  41  1  0.76491100  0.39794300  0.01342400  1
  C  42  1  0.82113500  0.38188100  0.02036500  1
  C  43  1  0.81374900  0.36372000  0.04050900  1
  C  44  1  0.74832900  0.36122400  0.05261500  1
  C  45  1  0.69245200  0.37669100  0.04577800  1
  C  46  1  0.59179400  0.41915300  0.03006300  1
  C  47  1  0.55805400  0.44162700  0.02304800  1
  C  48  1  0.58772200  0.45877400  0.00521800  1
  C  49  1  0.65207400  0.45181400  0.99339300  1
  C  50  1  0.81420800  0.43542300  0.98625300  1
  C  51  1  0.83308200  0.43254200  0.96053400  1
  C  52  1  0.79638900  0.41291600  0.94962000  1
  C  53  1  0.75032000  0.40273600  0.96743400  1
  C  54  1  0.80693900  0.40206800  0.92549600  1
  C  55  1  0.77146700  0.37973600  0.91928300  1
  C  56  1  0.72460500  0.36781800  0.93652100  1
  C  57  1  0.71393800  0.38006400  0.96062600  1
  C  58  1  0.85244200  0.45365300  0.00080200  1
  C  59  1  0.90746000  0.46801100  0.98930400  1
  C  60  1  0.92233000  0.46446400  0.96313700  1
  C  61  1  0.88564200  0.44675900  0.94867300  1
  C  74  1  0.75553000  0.41710400  0.99233200  1
  C  75  1  0.43657100  0.25010900  0.82815900  1
  C  76  1  0.40573400  0.26892400  0.84338400  1
  C  77  1  0.45173500  0.27659700  0.86194500  1
  C  78  1  0.51452100  0.26347100  0.85896500  1
  C  79  1  0.57071500  0.27039800  0.87504300  1
  C  80  1  0.56336500  0.29062300  0.89311200  1
  C  81  1  0.49795000  0.30271500  0.89563300  1
  C  82  1  0.44205700  0.29584900  0.88018700  1
  C  83  1  0.34149800  0.28011900  0.83769000  1
  C  84  1  0.30778900  0.27306100  0.81522200  1
  C  85  1  0.33744200  0.25517500  0.79812800  1
  C  86  1  0.40167300  0.24330700  0.80516100  1
  C  87  1  0.56370800  0.23622000  0.82151700  1
  C  88  1  0.58229700  0.21046300  0.82431400  1
  C  89  1  0.54573600  0.19958700  0.84400400  1
  C  90  1  0.50007200  0.21748100  0.85428500  1
  C  91  1  0.55619200  0.17546700  0.85487200  1
  C  92  1  0.52088400  0.16931300  0.87726400  1
  C  93  1  0.47437100  0.18663400  0.88925000  1
  C  94  1  0.46375900  0.21073000  0.87698300  1
  C  95  1  0.60194900  0.25077300  0.80329900  1
  C  96  1  0.65683200  0.23925600  0.78889300  1
  C  97  1  0.67149300  0.21306000  0.79236200  1
  C  98  1  0.63476600  0.19859100  0.81006100  1
  C  111  1  0.50513300  0.24234100  0.83985600  1
  C  112  1  0.93651300  0.25704300  0.17918200  1
  C  113  1  0.90590100  0.23815900  0.16398500  1
  C  114  1  0.95188400  0.23057600  0.14538700  1
  C  115  1  0.01447900  0.24383900  0.14828000  1
  C  116  1  0.07061100  0.23702500  0.13212000  1
  C  117  1  0.06330600  0.21685100  0.11398500  1
  C  118  1  0.99797100  0.20468500  0.11150200  1
  C  119  1  0.94217200  0.21141700  0.12705200  1
  C  120  1  0.84151600  0.22702500  0.16956400  1
  C  121  1  0.80762300  0.23409400  0.19199100  1
  C  122  1  0.83706600  0.25201300  0.20910200  1
  C  123  1  0.90135200  0.26388300  0.20211700  1
  C  124  1  0.06360800  0.27102100  0.18577600  1
  C  125  1  0.08209800  0.29679000  0.18300200  1
  C  126  1  0.04512900  0.30773300  0.16345000  1
  C  127  1  0.99953200  0.28982600  0.15313900  1
  C  128  1  0.05576000  0.33182800  0.15255100  1
  C  129  1  0.02050800  0.33799100  0.13015400  1
  C  130  1  0.97403900  0.32067700  0.11814000  1
  C  131  1  0.96346300  0.29656300  0.13037800  1
  C  132  1  0.10210000  0.25645300  0.20391600  1
  C  133  1  0.15702200  0.26798000  0.21830100  1
  C  134  1  0.17155300  0.29418700  0.21485700  1
  C  135  1  0.13457200  0.30867200  0.19724800  1
  C  148  1  0.00497300  0.26491000  0.16745800  1
  C  149  1  0.82767000  0.92863300  0.00015700  1
  C  150  1  0.85851500  0.91279800  0.01846400  1
  C  151  1  0.81167900  0.89455300  0.02619700  1
  C  152  1  0.74867600  0.89809200  0.01335400  1
  C  153  1  0.69203700  0.88220700  0.02024400  1
  C  154  1  0.69914600  0.86382900  0.04020700  1
  C  155  1  0.76476000  0.86081000  0.05204900  1
  C  156  1  0.82110900  0.87601900  0.04517800  1
  C  157  1  0.92427000  0.91743200  0.02892400  1
  C  158  1  0.96000400  0.93935200  0.02152000  1
  C  159  1  0.93030500  0.95715500  0.00435300  1
  C  160  1  0.86380600  0.95143400  0.99352100  1
  C  161  1  0.70025800  0.93581100  0.98625900  1
  C  162  1  0.68214100  0.93324100  0.96042900  1
  C  163  1  0.71878800  0.91362000  0.94946100  1
  C  164  1  0.76395100  0.90311000  0.96739500  1
  C  165  1  0.70876400  0.90298600  0.92520800  1
  C  166  1  0.74405800  0.88062400  0.91892800  1
  C  167  1  0.79004600  0.86841000  0.93627300  1
  C  168  1  0.80011300  0.88040400  0.96053400  1
  C  169  1  0.66114000  0.95369000  0.00093800  1
  C  170  1  0.60620800  0.96809900  0.98944300  1
  C  171  1  0.59225200  0.96492400  0.96315600  1
  C  172  1  0.62975500  0.94754600  0.94856700  1
  C  185  1  0.75858000  0.91734300  0.99237600  1
  C  186  1  0.32795000  0.57868900  0.00732500  1
  C  187  1  0.35894700  0.59453400  0.98905600  1
  C  188  1  0.31227700  0.61284000  0.98133000  1
  C  189  1  0.24919900  0.60930600  0.99412800  1
  C  190  1  0.19242000  0.62503700  0.98704900  1
  C  191  1  0.19953700  0.64330800  0.96698700  1
  C  192  1  0.26522800  0.64636300  0.95522200  1
  C  193  1  0.32167800  0.63127400  0.96224900  1
  C  194  1  0.42501800  0.59001200  0.97881100  1
  C  195  1  0.46061000  0.56805200  0.98620000  1
  C  196  1  0.43069400  0.55022100  0.00327700  1
  C  197  1  0.36411100  0.55591800  0.01404100  1
  C  198  1  0.20043300  0.57154900  0.02113000  1
  C  199  1  0.18220700  0.57409300  0.04695500  1
  C  200  1  0.21885100  0.59368900  0.05796600  1
  C  201  1  0.26399100  0.60423500  0.04005200  1
  C  202  1  0.20872800  0.60429200  0.08222700  1
  C  203  1  0.24402500  0.62663800  0.08854900  1
  C  204  1  0.29021000  0.63883400  0.07126100  1
  C  205  1  0.30035600  0.62687200  0.04698900  1
  C  206  1  0.16134300  0.55369600  0.00641100  1
  C  207  1  0.10618700  0.53934900  0.01784100  1
  C  208  1  0.09199600  0.54254900  0.04410800  1
  C  209  1  0.12953300  0.55987000  0.05874400  1
  C  222  1  0.25885100  0.58999900  0.01506800  1
  C  223  1  0.57787200  0.75727400  0.17868100  1
  C  224  1  0.60886800  0.73876400  0.16312800  1
  C  225  1  0.56255600  0.73110700  0.14466200  1
  C  226  1  0.49951000  0.74397500  0.14801800  1
  C  227  1  0.44287100  0.73686000  0.13224200  1
  C  228  1  0.45023800  0.71681900  0.11397400  1
  C  229  1  0.51598800  0.70509400  0.11095000  1
  C  230  1  0.57222200  0.71208500  0.12617800  1
  C  231  1  0.67352100  0.72774300  0.16851000  1
  C  232  1  0.70745700  0.73461000  0.19099700  1
  C  233  1  0.67752000  0.75206700  0.20846500  1
  C  234  1  0.61291400  0.76383400  0.20171800  1
  C  235  1  0.45067800  0.77109600  0.18566700  1
  C  236  1  0.43201500  0.79685500  0.18295400  1
  C  237  1  0.46834800  0.80779600  0.16324400  1
  C  238  1  0.51398600  0.78994400  0.15287300  1
  C  239  1  0.45766500  0.83193300  0.15243500  1
  C  240  1  0.49261200  0.83813700  0.12997800  1
  C  241  1  0.53891500  0.82083800  0.11786100  1
  C  242  1  0.54976000  0.79672700  0.13006800  1
  C  243  1  0.41252900  0.75648400  0.20386500  1
  C  244  1  0.35776200  0.76795700  0.21836600  1
  C  245  1  0.34320800  0.79418000  0.21504200  1
  C  246  1  0.37983600  0.80871000  0.19736800  1
  C  259  1  0.50901700  0.76502100  0.16721100  1
  C  260  1  0.07751000  0.74992600  0.82869300  1
  C  261  1  0.10864500  0.76840800  0.84424800  1
  C  262  1  0.06243100  0.77607100  0.86275500  1
  C  263  1  0.99922100  0.76332100  0.85934900  1
  C  264  1  0.94274200  0.77040400  0.87522400  1
  C  265  1  0.95021400  0.79047300  0.89345900  1
  C  266  1  0.01599300  0.80219000  0.89640900  1
  C  267  1  0.07218900  0.79512700  0.88119800  1
  C  268  1  0.17320300  0.77947800  0.83881200  1
  C  269  1  0.20683100  0.77273300  0.81622800  1
  C  270  1  0.17688700  0.75524800  0.79878800  1
  C  271  1  0.11234700  0.74345800  0.80558100  1
  C  272  1  0.95018800  0.73615500  0.82178800  1
  C  273  1  0.93130300  0.71042700  0.82460100  1
  C  274  1  0.96767500  0.69949700  0.84430000  1
  C  275  1  0.01344900  0.71733200  0.85461500  1
  C  276  1  0.95692800  0.67537900  0.85513600  1
  C  277  1  0.99213000  0.66914200  0.87752100  1
  C  278  1  0.03885700  0.68637000  0.88952100  1
  C  279  1  0.04969300  0.71047700  0.87730200  1
  C  280  1  0.91206000  0.75074300  0.80356000  1
  C  281  1  0.85718800  0.73926600  0.78911000  1
  C  282  1  0.84236400  0.71308100  0.79256600  1
  C  283  1  0.87891500  0.69858500  0.81028400  1
  C  296  1  0.00864900  0.74222300  0.84020300  1
  C  297  1  0.68641800  0.57862500  0.50736200  1
  C  298  1  0.65548900  0.59411400  0.48878800  1
  C  299  1  0.70161000  0.61268600  0.48122100  1
  C  300  1  0.76465400  0.60936900  0.49410100  1
  C  301  1  0.82126400  0.62515900  0.48696600  1
  C  302  1  0.81392500  0.64339600  0.46688800  1
  C  303  1  0.74819600  0.64630600  0.45510900  1
  C  304  1  0.69195700  0.63110100  0.46213500  1
  C  305  1  0.59070200  0.58878300  0.47784900  1
  C  306  1  0.55686600  0.56627000  0.48469800  1
  C  307  1  0.58672800  0.54883200  0.50220800  1
  C  308  1  0.65135000  0.55560200  0.51395800  1
  C  309  1  0.81355700  0.57173500  0.52125100  1
  C  310  1  0.83180400  0.57434900  0.54706300  1
  C  311  1  0.79534900  0.59404600  0.55798500  1
  C  312  1  0.74997000  0.60447100  0.54007600  1
  C  313  1  0.80578200  0.60480300  0.58215600  1
  C  314  1  0.77080800  0.62725800  0.58835000  1
  C  315  1  0.72469600  0.63942000  0.57101300  1
  C  316  1  0.71416400  0.62727500  0.54685100  1
  C  317  1  0.85205300  0.55363800  0.50663500  1
  C  318  1  0.90680400  0.53915800  0.51814600  1
  C  319  1  0.92107800  0.54243000  0.54439600  1
  C  320  1  0.88409600  0.56000200  0.55892900  1
  C  333  1  0.75517200  0.59016100  0.51514100  1
  C  334  1  0.18653800  0.92870900  0.49958800  1
  C  335  1  0.15530900  0.91320000  0.51808900  1
  C  336  1  0.20148800  0.89472100  0.52584700  1
  C  337  1  0.26471300  0.89805000  0.51309500  1
  C  338  1  0.32127400  0.88230500  0.52036500  1
  C  339  1  0.31366600  0.86405800  0.54041500  1
  C  340  1  0.24777900  0.86110600  0.55205800  1
  C  341  1  0.19160600  0.87629600  0.54491300  1
  C  342  1  0.09061100  0.91865000  0.52904700  1
  C  343  1  0.05706700  0.94123400  0.52223500  1
  C  344  1  0.08729600  0.95868100  0.50482400  1
  C  345  1  0.15196400  0.95187700  0.49314100  1
  C  346  1  0.31401300  0.93562800  0.48598900  1
  C  347  1  0.33308400  0.93281300  0.46028200  1
  C  348  1  0.29683300  0.91309700  0.44932600  1
  C  349  1  0.25080300  0.90282600  0.46710100  1
  C  350  1  0.30779900  0.90223100  0.42523200  1
  C  351  1  0.27274700  0.87980700  0.41900100  1
  C  352  1  0.22588500  0.86782800  0.43619000  1
  C  353  1  0.21481200  0.88008200  0.46026300  1
  C  354  1  0.35197900  0.95387100  0.50061100  1
  C  355  1  0.40690800  0.96833000  0.48918900  1
  C  356  1  0.42182500  0.96491900  0.46300500  1
  C  357  1  0.38545400  0.94717400  0.44847700  1
  C  370  1  0.25551100  0.91721900  0.49200500  1
  C  371  1  0.93650800  0.74990100  0.32868700  1
  C  372  1  0.90549100  0.76813700  0.34456100  1
  C  373  1  0.95230700  0.77590100  0.36280800  1
  C  374  1  0.01537200  0.76310100  0.35924500  1
  C  375  1  0.07221400  0.77017800  0.37494500  1
  C  376  1  0.06520200  0.79026300  0.39319400  1
  C  377  1  0.99954700  0.80205500  0.39625800  1
  C  378  1  0.94301200  0.79501000  0.38122100  1
  C  379  1  0.83965600  0.77853000  0.33992600  1
  C  380  1  0.80408800  0.77115700  0.31795400  1
  C  381  1  0.83392000  0.75403000  0.30014600  1
  C  382  1  0.90042400  0.74322500  0.30588800  1
  C  383  1  0.06383800  0.73597800  0.32152100  1
  C  384  1  0.08146600  0.71008400  0.32392700  1
  C  385  1  0.04482800  0.69912700  0.34356100  1
  C  386  1  0.00022700  0.71715300  0.35422900  1
  C  387  1  0.05445400  0.67480900  0.35409900  1
  C  388  1  0.01936000  0.66856600  0.37652100  1
  C  389  1  0.97387800  0.68600000  0.38886800  1
  C  390  1  0.96408400  0.71030700  0.37693900  1
  C  391  1  0.10318500  0.75068000  0.30373400  1
  C  392  1  0.15803400  0.73916500  0.28930300  1
  C  393  1  0.17164800  0.71283700  0.29235200  1
  C  394  1  0.13383100  0.69821500  0.30961200  1
  C  407  1  0.00556900  0.74212600  0.33999100  1
  C  408  1  0.43652400  0.75740200  0.67874700  1
  C  409  1  0.40559600  0.73902300  0.66301500  1
  C  410  1  0.45222800  0.73128000  0.64469900  1
  C  411  1  0.51514300  0.74423000  0.64805000  1
  C  412  1  0.57176800  0.73723500  0.63220100  1
  C  413  1  0.56464100  0.71715300  0.61395500  1
  C  414  1  0.49905000  0.70526000  0.61106400  1
  C  415  1  0.44274700  0.71220500  0.62626500  1
  C  416  1  0.33972400  0.72866800  0.66767500  1
  C  417  1  0.30416800  0.73613100  0.68961700  1
  C  418  1  0.33395100  0.75338200  0.70731300  1
  C  419  1  0.40039300  0.76420400  0.70150300  1
  C  420  1  0.56401900  0.77126200  0.68570800  1
  C  421  1  0.58229700  0.79707300  0.68309900  1
  C  422  1  0.54527900  0.80810900  0.66360800  1
  C  423  1  0.50000700  0.79019200  0.65312700  1
  C  424  1  0.55558800  0.83231100  0.65289300  1
  C  425  1  0.52019400  0.83860400  0.63055900  1
  C  426  1  0.47383700  0.82132400  0.61844000  1
  C  427  1  0.46371300  0.79707500  0.63045400  1
  C  428  1  0.60322800  0.75655300  0.70352900  1
  C  429  1  0.65846100  0.76799000  0.71782800  1
  C  430  1  0.67266200  0.79425100  0.71459000  1
  C  431  1  0.63500400  0.80888000  0.69729400  1
  C  444  1  0.50545500  0.76519600  0.66733100  1
  C  445  1  0.32785500  0.42854100  0.49963200  1
  C  446  1  0.35909200  0.41244600  0.51762100  1
  C  447  1  0.31209900  0.39427900  0.52545200  1
  C  448  1  0.24868200  0.39815300  0.51297300  1
  C  449  1  0.19173100  0.38256200  0.52017300  1
  C  450  1  0.19900300  0.36411300  0.54006200  1
  C  451  1  0.26501900  0.36069000  0.55148000  1
  C  452  1  0.32163800  0.37563400  0.54431900  1
  C  453  1  0.42515900  0.41690700  0.52789100  1
  C  454  1  0.46075100  0.43892500  0.52066900  1
  C  455  1  0.43058100  0.45701500  0.50391600  1
  C  456  1  0.36379900  0.45145100  0.49323800  1
  C  457  1  0.20033600  0.43596100  0.48590700  1
  C  458  1  0.18218600  0.43347300  0.46007000  1
  C  459  1  0.21846700  0.41377000  0.44907900  1
  C  460  1  0.26345700  0.40315400  0.46700600  1
  C  461  1  0.20819800  0.40314600  0.42483200  1
  C  462  1  0.24308800  0.38069600  0.41854300  1
  C  463  1  0.28892900  0.36839600  0.43587600  1
  C  464  1  0.29924700  0.38037500  0.46012700  1
  C  465  1  0.16134800  0.45383200  0.50063600  1
  C  466  1  0.10657600  0.46834900  0.48917600  1
  C  467  1  0.09268900  0.46530000  0.46286700  1
  C  468  1  0.13001400  0.44790600  0.44823400  1
  C  481  1  0.25846700  0.41740500  0.49199400  1
  C  482  1  0.82812100  0.07878400  0.50773900  1
  C  483  1  0.85942300  0.09490100  0.48978400  1
  C  484  1  0.81254200  0.11313100  0.48200900  1
  C  485  1  0.74910200  0.10923700  0.49446900  1
  C  486  1  0.69194200  0.12464000  0.48709800  1
  C  487  1  0.69912500  0.14298400  0.46711100  1
  C  488  1  0.76516800  0.14648300  0.45574400  1
  C  489  1  0.82194900  0.13168300  0.46303900  1
  C  490  1  0.92579200  0.09056600  0.47971600  1
  C  491  1  0.96130000  0.06851400  0.48690700  1
  C  492  1  0.93098400  0.05038900  0.50358000  1
  C  493  1  0.86414800  0.05591700  0.51421600  1
  C  494  1  0.70069400  0.07133900  0.52148500  1
  C  495  1  0.68303300  0.07362900  0.54738900  1
  C  496  1  0.71937100  0.09330400  0.55841000  1
  C  497  1  0.76374400  0.10412400  0.54040400  1
  C  498  1  0.70942600  0.10378700  0.58273800  1
  C  499  1  0.74403900  0.12629700  0.58902600  1
  C  500  1  0.78932400  0.13878200  0.57162600  1
  C  501  1  0.79943000  0.12691600  0.54730900  1
  C  502  1  0.66137600  0.05361100  0.50670300  1
  C  503  1  0.60662500  0.03908800  0.51816500  1
  C  504  1  0.59309000  0.04197800  0.54451600  1
  C  505  1  0.63082900  0.05919900  0.55920800  1
  C  518  1  0.75875900  0.08991900  0.51539500  1
  C  519  1  0.07778400  0.25747800  0.67822200  1
  C  520  1  0.10882700  0.23945400  0.66211400  1
  C  521  1  0.06175800  0.23172300  0.64393800  1
  C  522  1  0.99857200  0.24436900  0.64776400  1
  C  523  1  0.94135500  0.23714900  0.63231800  1
  C  524  1  0.94830800  0.21720600  0.61391600  1
  C  525  1  0.01416900  0.20567200  0.61046700  1
  C  526  1  0.07096900  0.21278900  0.62534200  1
  C  527  1  0.17488500  0.22915400  0.66653400  1
  C  528  1  0.21063100  0.23637500  0.68852400  1
  C  529  1  0.18063100  0.25317700  0.70659700  1
  C  530  1  0.11397600  0.26395400  0.70105300  1
  C  531  1  0.95052800  0.27139000  0.68567900  1
  C  532  1  0.93292900  0.29729600  0.68337000  1
  C  533  1  0.96942600  0.30831300  0.66373200  1
  C  534  1  0.01388800  0.29030400  0.65295600  1
  C  535  1  0.95974200  0.33266800  0.65328200  1
  C  536  1  0.99449000  0.33895100  0.63079700  1
  C  537  1  0.03959500  0.32150700  0.61828600  1
  C  538  1  0.04950400  0.29717200  0.63013700  1
  C  539  1  0.91118600  0.25663300  0.70341900  1
  C  540  1  0.85653600  0.26812900  0.71796400  1
  C  541  1  0.84308000  0.29448300  0.71506200  1
  C  542  1  0.88089600  0.30916200  0.69784700  1
  C  555  1  0.00853200  0.26526700  0.66709100  1
  C  556  1  0.57774300  0.24965700  0.32923300  1
  C  557  1  0.60901900  0.26751800  0.34546300  1
  C  558  1  0.56199100  0.27527100  0.36365300  1
  C  559  1  0.49850000  0.26288700  0.35962300  1
  C  560  1  0.44136100  0.27014600  0.37509200  1
  C  561  1  0.44850000  0.29004900  0.39353000  1
  C  562  1  0.51453700  0.30139600  0.39710000  1
  C  563  1  0.57135800  0.29415100  0.38229700  1
  C  564  1  0.67514400  0.27777600  0.34109600  1
  C  565  1  0.71064400  0.27074300  0.31899800  1
  C  566  1  0.68055200  0.25407200  0.30081400  1
  C  567  1  0.61379600  0.24334100  0.30632300  1
  C  568  1  0.45022600  0.23590100  0.32174000  1
  C  569  1  0.43207300  0.21006000  0.32418400  1
  C  570  1  0.46840600  0.19902400  0.34384500  1
  C  571  1  0.51327500  0.21694800  0.35453200  1
  C  572  1  0.45829700  0.17472400  0.35436800  1
  C  573  1  0.49328200  0.16836800  0.37677700  1
  C  574  1  0.53916900  0.18566200  0.38910900  1
  C  575  1  0.54934800  0.20996700  0.37722300  1
  C  576  1  0.41121100  0.25065800  0.30389800  1
  C  577  1  0.35642000  0.23922000  0.28937000  1
  C  578  1  0.34244700  0.21291700  0.29241700  1
  C  579  1  0.37982600  0.19825300  0.30976700  1
  C  592  1  0.50833900  0.24196100  0.34031700  1
  C  593  1  0.05131000  0.02487700  0.00462400  1
  C  595  1  0.93804800  0.00470900  0.00439800  1
  C  596  1  0.96804000  0.98043700  0.00123300  1
  C  598  1  0.08189700  0.00041900  0.00145300  1
  C  600  1  0.15146500  0.99549400  0.99797000  1
  C  603  1  0.55231800  0.48270000  0.00256100  1
  C  605  1  0.43887200  0.50272900  0.00245400  1
  C  606  1  0.46840500  0.52695400  0.00644100  1
  C  608  1  0.58252000  0.50710400  0.00657100  1
  C  610  1  0.65182800  0.51193200  0.01081200  1
  C  613  1  0.30208800  0.25241200  0.77420100  1
  C  615  1  0.18873200  0.25236400  0.75411200  1
  C  616  1  0.21842000  0.25615200  0.72987800  1
  C  618  1  0.33244100  0.25623200  0.74979300  1
  C  620  1  0.40182300  0.26030200  0.74497100  1
  C  623  1  0.80144600  0.25476800  0.23299300  1
  C  625  1  0.68824100  0.25449200  0.25321700  1
  C  626  1  0.71828000  0.25124600  0.27747300  1
  C  628  1  0.83208900  0.25151700  0.25743000  1
  C  630  1  0.90162200  0.24799700  0.26228600  1
  C  633  1  0.95130300  0.48628300  0.00128100  1
  C  635  1  0.07261700  0.49534700  0.00781200  1
  C  636  1  0.06097900  0.52181000  0.00559800  1
  C  638  1  0.93848200  0.51297700  0.99939400  1
  C  640  1  0.87349500  0.52314500  0.99419600  1
  C  643  1  0.45079700  0.02105300  0.00592600  1
  C  645  1  0.57219600  0.01208200  0.99962300  1
  C  646  1  0.56081800  0.98557200  0.00166400  1
  C  648  1  0.43809900  0.99437000  0.00770200  1
  C  650  1  0.37319300  0.98414100  0.01270000  1
  C  653  1  0.70056600  0.25127700  0.77063100  1
  C  655  1  0.82207300  0.25777000  0.76172200  1
  C  656  1  0.81069200  0.25580600  0.73520700  1
  C  658  1  0.68815800  0.24954600  0.74391400  1
  C  660  1  0.62335500  0.24445900  0.73363300  1
  C  663  1  0.20093200  0.25598400  0.23655200  1
  C  665  1  0.32219600  0.24938400  0.24548600  1
  C  666  1  0.31093100  0.25153000  0.27200000  1
  C  668  1  0.18824400  0.25780400  0.26324400  1
  C  670  1  0.12337400  0.26301900  0.27347300  1
  C  673  1  0.71308200  0.75456500  0.23239400  1
  C  675  1  0.82630100  0.75439500  0.25260900  1
  C  676  1  0.79633700  0.75089000  0.27683900  1
  C  678  1  0.68253500  0.75102700  0.25681400  1
  C  680  1  0.61302800  0.74732000  0.26168000  1
  C  683  1  0.21238000  0.75281500  0.77483800  1
  C  685  1  0.32580600  0.75267600  0.75480100  1
  C  686  1  0.29626400  0.75664400  0.73057200  1
  C  688  1  0.18215100  0.75677800  0.75043200  1
  C  690  1  0.11285200  0.76099700  0.74559700  1
  C  693  1  0.31409600  0.75587000  0.23661900  1
  C  695  1  0.19260100  0.74945300  0.24547600  1
  C  696  1  0.20380700  0.75143000  0.27200400  1
  C  698  1  0.32648800  0.75760400  0.26332400  1
  C  700  1  0.39128900  0.76264900  0.27361800  1
  C  703  1  0.81338000  0.75129400  0.77086300  1
  C  705  1  0.69207600  0.75787500  0.76181300  1
  C  706  1  0.70373600  0.75574800  0.73534500  1
  C  708  1  0.82624400  0.74952300  0.74416400  1
  C  710  1  0.89120200  0.74433200  0.73399400  1
  C  713  1  0.55118700  0.52488900  0.50469000  1
  C  715  1  0.43805400  0.50460300  0.50445000  1
  C  716  1  0.46816200  0.48038100  0.50105000  1
  C  718  1  0.58188400  0.50048100  0.50126900  1
  C  720  1  0.65143000  0.49564400  0.49762300  1
  C  723  1  0.05208500  0.98268900  0.50242200  1
  C  725  1  0.93882400  0.00287400  0.50232100  1
  C  726  1  0.96853600  0.02704300  0.50648800  1
  C  728  1  0.08245600  0.00703600  0.50662100  1
  C  730  1  0.15174000  0.01175900  0.51099700  1
  C  733  1  0.45051100  0.98658700  0.50130000  1
  C  735  1  0.57203400  0.99530700  0.50787700  1
  C  736  1  0.56084400  0.02182100  0.50582600  1
  C  738  1  0.43833200  0.01330600  0.49945700  1
  C  740  1  0.37366500  0.02363800  0.49425100  1
  C  743  1  0.95095600  0.52104100  0.50606800  1
  C  745  1  0.07235900  0.51228100  0.49955400  1
  C  746  1  0.06117200  0.48576400  0.50148100  1
  C  748  1  0.93840600  0.49432000  0.50763800  1
  C  750  1  0.87353600  0.48399700  0.51266800  1
  C  753  1  0.36984200  0.15627800  0.95431600  1
  C  755  1  0.39463400  0.19283200  0.92759100  1
  C  756  1  0.44106600  0.17847300  0.91249200  1
  C  758  1  0.42018500  0.14216700  0.94055400  1
  C  760  1  0.43380600  0.11647700  0.94281200  1
  C  763  1  0.86983600  0.35118400  0.05302600  1
  C  765  1  0.89439400  0.31454700  0.07974600  1
  C  766  1  0.94087500  0.32885500  0.09487200  1
  C  768  1  0.92027900  0.36518900  0.06682000  1
  C  770  1  0.93378000  0.39084900  0.06459900  1
  C  773  1  0.61946500  0.30299100  0.90575500  1
  C  775  1  0.64423100  0.32960900  0.94247200  1
  C  776  1  0.69101000  0.34467500  0.92824000  1
  C  778  1  0.66996000  0.31683100  0.89180500  1
  C  780  1  0.68386800  0.31452600  0.86618100  1
  C  783  1  0.11935500  0.20443700  0.10130500  1
  C  785  1  0.14390900  0.17777000  0.06467100  1
  C  786  1  0.19050700  0.16266100  0.07894800  1
  C  788  1  0.16966700  0.19059600  0.11535000  1
  C  790  1  0.18394500  0.19298700  0.14096300  1
  C  793  1  0.64297600  0.85130600  0.05268000  1
  C  795  1  0.61793800  0.81466100  0.07933900  1
  C  796  1  0.57187100  0.82903100  0.09456600  1
  C  798  1  0.59283400  0.86538600  0.06659100  1
  C  800  1  0.57928600  0.89108600  0.06440400  1
  C  803  1  0.14325100  0.65574500  0.95448300  1
  C  805  1  0.11793000  0.69248500  0.92805800  1
  C  806  1  0.07212500  0.67809800  0.91272900  1
  C  808  1  0.09343700  0.64161600  0.94050900  1
  C  810  1  0.08054900  0.61589900  0.94254800  1
  C  813  1  0.39401600  0.70400400  0.10186600  1
  C  815  1  0.36799200  0.67772800  0.06506800  1
  C  816  1  0.32359200  0.66199000  0.07961000  1
  C  818  1  0.34609800  0.68939800  0.11624500  1
  C  820  1  0.33449500  0.69119000  0.14206800  1
  C  823  1  0.89421600  0.80325700  0.90575500  1
  C  825  1  0.86828200  0.82963600  0.94248200  1
  C  826  1  0.82345600  0.84523600  0.92796700  1
  C  828  1  0.84593800  0.81774500  0.89137800  1
  C  830  1  0.83360400  0.81582200  0.86558800  1
  C  833  1  0.87002000  0.65566300  0.45411500  1
  C  835  1  0.89576900  0.69230600  0.42765000  1
  C  836  1  0.94074000  0.67777000  0.41212400  1
  C  838  1  0.91872800  0.64129200  0.43983500  1
  C  840  1  0.93075600  0.61546200  0.44171000  1
  C  843  1  0.36970200  0.85193600  0.55333900  1
  C  845  1  0.39572800  0.81513800  0.57962300  1
  C  846  1  0.44040700  0.82965300  0.59528000  1
  C  848  1  0.41795400  0.86628300  0.56782900  1
  C  850  1  0.42930300  0.89212700  0.56616100  1
  C  853  1  0.12151700  0.80276100  0.40558300  1
  C  855  1  0.14688100  0.82928500  0.44230800  1
  C  856  1  0.19262800  0.84462200  0.42791500  1
  C  858  1  0.17109900  0.81686700  0.39145600  1
  C  860  1  0.18432300  0.81465200  0.36577700  1
  C  863  1  0.62079800  0.70461500  0.60144900  1
  C  865  1  0.64565200  0.67795500  0.56483900  1
  C  866  1  0.69161000  0.66269100  0.57922900  1
  C  868  1  0.67060100  0.69063600  0.61560700  1
  C  870  1  0.68454500  0.69301800  0.64124400  1
  C  873  1  0.14288300  0.35191300  0.55287900  1
  C  875  1  0.11698000  0.31520700  0.57932900  1
  C  876  1  0.07233800  0.32975400  0.59496300  1
  C  878  1  0.09431400  0.36624800  0.56727700  1
  C  880  1  0.08226100  0.39207600  0.56543400  1
  C  883  1  0.64282600  0.15503300  0.45425600  1
  C  885  1  0.61630800  0.19188000  0.42816300  1
  C  886  1  0.57229400  0.17729400  0.41231300  1
  C  888  1  0.59503000  0.14060100  0.43964800  1
  C  890  1  0.58405800  0.11472900  0.44123200  1
  C  893  1  0.89187600  0.20434900  0.60195800  1
  C  895  1  0.86577200  0.17797900  0.56523400  1
  C  896  1  0.82201100  0.16210400  0.57989200  1
  C  898  1  0.84429600  0.18967500  0.61642400  1
  C  900  1  0.83279200  0.19156000  0.64224400  1
  C  903  1  0.39231200  0.30299700  0.40554500  1
  C  905  1  0.36565300  0.32927500  0.44226800  1
  C  906  1  0.32199900  0.34516000  0.42758500  1
  C  908  1  0.34509200  0.31776700  0.39097800  1
  C  910  1  0.33360400  0.31596200  0.36512800  1
  H  25  1  0.46017400  0.03268700  0.05304800  1
  H  26  1  0.39722400  0.06286500  0.07739000  1
  H  27  1  0.34062200  0.09767200  0.09448800  1
  H  28  1  0.28095800  0.13498400  0.10557800  1
  H  29  1  0.18141400  0.13529800  0.03330600  1
  H  30  1  0.34102000  0.05139600  0.98747400  1
  H  31  1  0.36743000  0.12339800  0.99606400  1
  H  32  1  0.24162600  0.15823700  0.93940200  1
  H  33  1  0.14686000  0.13226900  0.95156600  1
  H  34  1  0.17382100  0.04366200  0.02672500  1
  H  35  1  0.07105800  0.09942800  0.96285200  1
  H  36  1  0.01272800  0.06157100  0.97449300  1
  H  62  1  0.96113400  0.47449900  0.95424500  1
  H  63  1  0.89854100  0.44420600  0.92993600  1
  H  64  1  0.84231200  0.40930900  0.91290800  1
  H  65  1  0.78241800  0.37207500  0.90179000  1
  H  66  1  0.68154800  0.37213800  0.97381600  1
  H  67  1  0.84110400  0.45608800  0.01969400  1
  H  68  1  0.86765200  0.38397000  0.01125000  1
  H  69  1  0.74142000  0.34920900  0.06783800  1
  H  70  1  0.64673600  0.37515700  0.05552800  1
  H  71  1  0.67475500  0.46384600  0.98051500  1
  H  72  1  0.57137900  0.40816100  0.04431200  1
  H  73  1  0.51339600  0.44609500  0.03267600  1
  H  99  1  0.71020600  0.20416100  0.78228700  1
  H  100  1  0.64755100  0.17983800  0.81258000  1
  H  101  1  0.59114500  0.16278500  0.84751900  1
  H  102  1  0.53162200  0.15179300  0.88490500  1
  H  103  1  0.43151800  0.22396300  0.88492300  1
  H  104  1  0.59072200  0.26967800  0.80091000  1
  H  105  1  0.61720800  0.26126200  0.87298000  1
  H  106  1  0.49108800  0.31795300  0.90763300  1
  H  107  1  0.39634700  0.30560500  0.88170000  1
  H  108  1  0.42433400  0.23038100  0.79317300  1
  H  109  1  0.32091200  0.29430600  0.84872100  1
  H  110  1  0.26304800  0.28263200  0.81074600  1
  H  136  1  0.21031900  0.30309100  0.22490100  1
  H  137  1  0.14726000  0.32743800  0.19475600  1
  H  138  1  0.09084800  0.34447700  0.15987500  1
  H  139  1  0.03135200  0.35550200  0.12251200  1
  H  140  1  0.93146600  0.28329600  0.12236200  1
  H  141  1  0.09095200  0.23754000  0.20629600  1
  H  142  1  0.11702600  0.24622400  0.13414000  1
  H  143  1  0.99119200  0.18941800  0.09953400  1
  H  144  1  0.89662700  0.20154500  0.12561700  1
  H  145  1  0.92381800  0.27688300  0.21407300  1
  H  146  1  0.82108000  0.21279100  0.15855600  1
  H  147  1  0.76285700  0.22451600  0.19641200  1
  H  173  1  0.55327700  0.97489000  0.95428700  1
  H  174  1  0.61724000  0.94516100  0.92977200  1
  H  175  1  0.67416400  0.91050200  0.91249000  1
  H  176  1  0.73358300  0.87314600  0.90131700  1
  H  177  1  0.83199000  0.87228200  0.97377200  1
  H  178  1  0.67151600  0.95571000  0.01995300  1
  H  179  1  0.64544200  0.88460800  0.01126200  1
  H  180  1  0.77151800  0.84864600  0.06716100  1
  H  181  1  0.86698500  0.87412900  0.05476100  1
  H  182  1  0.84126400  0.96394800  0.98107300  1
  H  183  1  0.94514200  0.90585200  0.04260900  1
  H  184  1  0.00625900  0.94296600  0.03045300  1
  H  210  1  0.05286200  0.53262300  0.05292900  1
  H  211  1  0.11685500  0.56227200  0.07752200  1
  H  212  1  0.17408000  0.59676500  0.09492000  1
  H  213  1  0.23350500  0.63409600  0.10616700  1
  H  214  1  0.33246300  0.63496600  0.03380700  1
  H  215  1  0.17183600  0.55167500  0.98740400  1
  H  216  1  0.14571400  0.62256800  0.99593500  1
  H  217  1  0.27197800  0.65849900  0.94008700  1
  H  218  1  0.36757700  0.63313500  0.95267700  1
  H  219  1  0.34148600  0.54339200  0.02645600  1
  H  220  1  0.44606800  0.60161900  0.96519000  1
  H  221  1  0.50712500  0.56449500  0.97742200  1
  H  247  1  0.30460300  0.80305300  0.22519700  1
  H  248  1  0.36701600  0.82746800  0.19491400  1
  H  249  1  0.42268900  0.84456900  0.15985400  1
  H  250  1  0.48163900  0.85564700  0.12235900  1
  H  251  1  0.58181700  0.78350600  0.12201400  1
  H  252  1  0.42369000  0.73756000  0.20615300  1
  H  253  1  0.39606600  0.74568600  0.13468200  1
  H  254  1  0.52282600  0.68993400  0.09884700  1
  H  255  1  0.61817800  0.70253700  0.12436900  1
  H  256  1  0.59007700  0.77650400  0.21392800  1
  H  257  1  0.69422400  0.71375300  0.15725900  1
  H  258  1  0.75239500  0.72506600  0.19525000  1
  H  284  1  0.80364200  0.70420900  0.78247000  1
  H  285  1  0.86598600  0.67984400  0.81279200  1
  H  286  1  0.92184800  0.66275600  0.84776300  1
  H  287  1  0.98115000  0.65163500  0.88514800  1
  H  288  1  0.08204700  0.72364600  0.88528300  1
  H  289  1  0.92338600  0.76964200  0.80118500  1
  H  290  1  0.89592700  0.76157300  0.87283500  1
  H  291  1  0.02297600  0.81731900  0.90853900  1
  H  292  1  0.11819900  0.80464200  0.88299200  1
  H  293  1  0.08945300  0.73081300  0.79335600  1
  H  294  1  0.19389500  0.79349700  0.85002800  1
  H  295  1  0.25176200  0.78227000  0.81194400  1
  H  321  1  0.95974400  0.53232100  0.55328300  1
  H  322  1  0.89673400  0.56242300  0.57770900  1
  H  323  1  0.84055600  0.59733900  0.59484100  1
  H  324  1  0.78150300  0.63481000  0.60591400  1
  H  325  1  0.68220600  0.63535000  0.53361100  1
  H  326  1  0.84118600  0.55142100  0.48767800  1
  H  327  1  0.86803300  0.62276800  0.49582900  1
  H  328  1  0.74134200  0.65838000  0.43992800  1
  H  329  1  0.64612400  0.63279300  0.45248500  1
  H  330  1  0.67411200  0.54343400  0.52668700  1
  H  331  1  0.56998900  0.60001200  0.46384400  1
  H  332  1  0.51182900  0.56203200  0.47521100  1
  H  358  1  0.46054800  0.97504300  0.45416800  1
  H  359  1  0.39846800  0.94468200  0.42974300  1
  H  360  1  0.34320300  0.90952900  0.41268900  1
  H  361  1  0.28400800  0.87211600  0.40154500  1
  H  362  1  0.18233200  0.87212300  0.47340400  1
  H  363  1  0.34055700  0.95622600  0.51950700  1
  H  364  1  0.36818800  0.88472600  0.51161100  1
  H  365  1  0.24071400  0.84900300  0.56720300  1
  H  366  1  0.14552800  0.87450600  0.55438600  1
  H  367  1  0.17506500  0.96410600  0.48055300  1
  H  368  1  0.06987400  0.90747800  0.54309200  1
  H  369  1  0.01216700  0.94556300  0.53177200  1
  H  395  1  0.21063500  0.70396600  0.28239400  1
  H  396  1  0.14614400  0.67939400  0.31193400  1
  H  397  1  0.08865400  0.66201300  0.34646900  1
  H  398  1  0.02948500  0.65089100  0.38391300  1
  H  399  1  0.93247800  0.72359500  0.38512300  1
  H  400  1  0.09315800  0.76973400  0.30184600  1
  H  401  1  0.11887700  0.76126200  0.37247800  1
  H  402  1  0.99284100  0.81719900  0.40838600  1
  H  403  1  0.89711500  0.80458100  0.38310800  1
  H  404  1  0.92306400  0.73080300  0.29337100  1
  H  405  1  0.81864000  0.79215900  0.35153500  1
  H  406  1  0.75768600  0.77999700  0.31436300  1
  H  432  1  0.71187600  0.80307400  0.72447000  1
  H  433  1  0.64768600  0.82765400  0.69486300  1
  H  434  1  0.59048700  0.84496700  0.66032100  1
  H  435  1  0.53083400  0.85618300  0.62303500  1
  H  436  1  0.43168500  0.78385900  0.62237100  1
  H  437  1  0.59265800  0.73755800  0.70560700  1
  H  438  1  0.61835500  0.74624200  0.63452400  1
  H  439  1  0.49231100  0.69005400  0.59901400  1
  H  440  1  0.39699500  0.70251000  0.62454400  1
  H  441  1  0.42293900  0.77673100  0.71393800  1
  H  442  1  0.31876400  0.71494500  0.65616500  1
  H  443  1  0.25777900  0.72730000  0.69326800  1
  H  469  1  0.05380100  0.47533800  0.45402900  1
  H  470  1  0.11747800  0.44558000  0.42943400  1
  H  471  1  0.17367100  0.41073500  0.41213000  1
  H  472  1  0.23242200  0.37320900  0.40095000  1
  H  473  1  0.33111400  0.37220300  0.47333700  1
  H  474  1  0.17166900  0.45576200  0.51966500  1
  H  475  1  0.14481700  0.38525000  0.51150200  1
  H  476  1  0.27192900  0.34845700  0.56652700  1
  H  477  1  0.36782600  0.37351200  0.55365000  1
  H  478  1  0.34089100  0.46416500  0.48108600  1
  H  479  1  0.44630000  0.40515400  0.54136900  1
  H  480  1  0.50722800  0.44240300  0.52949900  1
  H  506  1  0.55414800  0.03195700  0.55334300  1
  H  507  1  0.61848200  0.06144000  0.57803700  1
  H  508  1  0.67531500  0.09605500  0.59550500  1
  H  509  1  0.73367600  0.13366000  0.60669600  1
  H  510  1  0.83097400  0.13519600  0.53406300  1
  H  511  1  0.67130600  0.05184800  0.48763000  1
  H  512  1  0.64493700  0.12184300  0.49566900  1
  H  513  1  0.77197000  0.15869200  0.44067100  1
  H  514  1  0.86812100  0.13379100  0.45369500  1
  H  515  1  0.84122300  0.04319200  0.52635100  1
  H  516  1  0.94706000  0.10235800  0.46629800  1
  H  517  1  0.00801800  0.06509900  0.47822300  1
  H  543  1  0.80419800  0.30333500  0.72509200  1
  H  544  1  0.86857800  0.32798900  0.69558800  1
  H  545  1  0.92561800  0.34544000  0.66099600  1
  H  546  1  0.98425000  0.35663700  0.62344900  1
  H  547  1  0.08080700  0.28387000  0.62182200  1
  H  548  1  0.92104600  0.23755400  0.70518200  1
  H  549  1  0.89450100  0.24584200  0.63507900  1
  H  550  1  0.02081400  0.19057500  0.59827400  1
  H  551  1  0.11701100  0.20335700  0.62322800  1
  H  552  1  0.09128400  0.27618700  0.71374300  1
  H  553  1  0.19591700  0.21566200  0.65477000  1
  H  554  1  0.25711500  0.22753600  0.69197800  1
  H  580  1  0.30349400  0.20409800  0.28239400  1
  H  581  1  0.36724900  0.17945500  0.31207800  1
  H  582  1  0.42384200  0.16202300  0.34673600  1
  H  583  1  0.48276800  0.15072500  0.38417800  1
  H  584  1  0.58122600  0.22315400  0.38542400  1
  H  585  1  0.42152300  0.26969200  0.30199500  1
  H  586  1  0.39437200  0.26157500  0.37225800  1
  H  587  1  0.52135600  0.31643900  0.40934900  1
  H  588  1  0.61755800  0.30345500  0.38449500  1
  H  589  1  0.59093800  0.23123400  0.29355600  1
  H  590  1  0.69626700  0.29119900  0.35291600  1
  H  591  1  0.75721600  0.27954300  0.31561100  1
  H  599  1  0.88571700  0.00698700  0.00648200  1
  H  602  1  0.17889300  0.00872600  0.98899500  1
  H  609  1  0.38671400  0.50045100  0.99984600  1
  H  612  1  0.68118700  0.49807100  0.01781100  1
  H  619  1  0.13651300  0.24992600  0.75639100  1
  H  622  1  0.43118600  0.26740600  0.75877600  1
  H  629  1  0.63589600  0.25654900  0.25095800  1
  H  632  1  0.92985900  0.23938600  0.24907300  1
  H  639  1  0.12063200  0.48826800  0.01209900  1
  H  642  1  0.83274200  0.51250000  0.99868400  1
  H  649  1  0.62022200  0.01921700  0.99544800  1
  H  652  1  0.33194400  0.99476700  0.00876100  1
  H  659  1  0.87004200  0.26194700  0.76891100  1
  H  662  1  0.58199800  0.24820500  0.74427100  1
  H  669  1  0.37014300  0.24511200  0.23833200  1
  H  672  1  0.08218700  0.25932100  0.26278200  1
  H  679  1  0.87858800  0.75666000  0.25037200  1
  H  682  1  0.58578000  0.73843200  0.24833600  1
  H  689  1  0.37795500  0.75003700  0.75707000  1
  H  692  1  0.08360300  0.76816500  0.75940200  1
  H  699  1  0.14463100  0.74530100  0.23827100  1
  H  702  1  0.43263200  0.75881600  0.26300600  1
  H  709  1  0.64405000  0.76212800  0.76890200  1
  H  712  1  0.93230200  0.74792600  0.74476500  1
  H  719  1  0.38572900  0.50682000  0.50661200  1
  H  722  1  0.67860900  0.50894500  0.48864300  1
  H  729  1  0.88666400  0.00067200  0.49965700  1
  H  732  1  0.18079700  0.99786600  0.51810400  1
  H  739  1  0.61991100  0.98807900  0.51213200  1
  H  742  1  0.33219600  0.01303500  0.49792800  1
  H  749  1  0.12031400  0.51948900  0.49539400  1
  H  752  1  0.83233800  0.49470200  0.50902600  1
  H  759  1  0.38198500  0.21121500  0.92322300  1
  H  762  1  0.44562200  0.11061400  0.96024400  1
  H  769  1  0.88125400  0.29623500  0.08420300  1
  H  772  1  0.94437600  0.39729800  0.04724800  1
  H  779  1  0.63118200  0.33398400  0.96081400  1
  H  782  1  0.69419000  0.29713700  0.85977000  1
  H  789  1  0.13112000  0.17342900  0.04629600  1
  H  792  1  0.19398700  0.21038700  0.14727000  1
  H  799  1  0.63047400  0.79624700  0.08360800  1
  H  802  1  0.56709700  0.89697600  0.04701600  1
  H  809  1  0.13044000  0.71090600  0.92380700  1
  H  812  1  0.06981100  0.60931000  0.95983400  1
  H  819  1  0.37940800  0.67383000  0.04647300  1
  H  822  1  0.32435600  0.70841600  0.14893700  1
  H  829  1  0.87970600  0.83358600  0.96106600  1
  H  832  1  0.82341200  0.79857800  0.85889400  1
  H  839  1  0.88412700  0.71084900  0.42359900  1
  H  842  1  0.94263100  0.60926300  0.45902100  1
  H  849  1  0.38412600  0.79657900  0.58360500  1
  H  852  1  0.43952100  0.89907500  0.54897300  1
  H  859  1  0.13447000  0.83348300  0.46075100  1
  H  862  1  0.19496700  0.79731500  0.35930200  1
  H  869  1  0.63319400  0.67369600  0.54641600  1
  H  872  1  0.69491400  0.71039500  0.64754600  1
  H  879  1  0.12857600  0.29664700  0.58331300  1
  H  882  1  0.06984200  0.39826000  0.54817000  1
  H  889  1  0.62752800  0.21049900  0.42431300  1
  H  892  1  0.57367400  0.10772400  0.45838300  1
  H  899  1  0.87707900  0.17409200  0.54663000  1
  H  902  1  0.82219800  0.20878600  0.64902300  1
  H  909  1  0.37633300  0.33304000  0.46095000  1
  H  912  1  0.32301800  0.29878400  0.35834800  1
  N  594  1  0.98039300  0.02539400  0.00573500  1
  N  597  1  0.03879900  0.97986300  0.00023700  1
  N  604  1  0.48147500  0.48212900  0.00093900  1
  N  607  1  0.53908800  0.52757200  0.00793500  1
  N  614  1  0.23122200  0.25091200  0.77474800  1
  N  617  1  0.28911600  0.25754300  0.72929600  1
  N  624  1  0.73052300  0.25588100  0.23251500  1
  N  627  1  0.78904400  0.25023100  0.27799900  1
  N  634  1  0.01858900  0.47899600  0.00469900  1
  N  637  1  0.99362400  0.52907900  0.00251000  1
  N  644  1  0.51810000  0.02841500  0.00270400  1
  N  647  1  0.49334900  0.97832900  0.00459500  1
  N  654  1  0.76788800  0.25456600  0.77798200  1
  N  657  1  0.74338100  0.25279000  0.72788600  1
  N  664  1  0.26812100  0.25257000  0.22916600  1
  N  667  1  0.24355000  0.25462500  0.27925700  1
  N  674  1  0.78398200  0.75584900  0.23192500  1
  N  677  1  0.72559500  0.74972600  0.27737500  1
  N  684  1  0.28321400  0.75115900  0.77540500  1
  N  687  1  0.22557300  0.75812500  0.72995800  1
  N  694  1  0.24681000  0.75263000  0.22921500  1
  N  697  1  0.27117600  0.75440400  0.27931600  1
  N  704  1  0.74608800  0.75469400  0.77815600  1
  N  707  1  0.77109600  0.75268500  0.72807100  1
  N  714  1  0.48027300  0.52531900  0.50590600  1
  N  717  1  0.53891500  0.47989500  0.49993700  1
  N  724  1  0.98125200  0.98223100  0.50071000  1
  N  727  1  0.03920900  0.02755200  0.50807500  1
  N  734  1  0.51770500  0.97911100  0.50466900  1
  N  737  1  0.49367600  0.02927700  0.50271000  1
  N  744  1  0.01813100  0.52851800  0.50280100  1
  N  747  1  0.99383700  0.47837400  0.50441900  1
  N  754  1  0.35978000  0.18098900  0.94679800  1
  N  757  1  0.45071000  0.15396700  0.92051200  1
  N  764  1  0.85956600  0.32647800  0.06058300  1
  N  767  1  0.95066800  0.35335700  0.08687000  1
  N  774  1  0.60925400  0.31052400  0.93047200  1
  N  777  1  0.70074600  0.33674100  0.90371700  1
  N  784  1  0.10911800  0.19695200  0.07659000  1
  N  787  1  0.20033000  0.17064100  0.10345700  1
  N  794  1  0.65267000  0.82654700  0.06013800  1
  N  797  1  0.56237700  0.85357300  0.08664300  1
  N  804  1  0.15287300  0.68055400  0.94718900  1
  N  807  1  0.06295000  0.65349000  0.92050200  1
  N  814  1  0.40263300  0.69699200  0.07692000  1
  N  817  1  0.31562700  0.66938800  0.10438600  1
  N  824  1  0.90295000  0.81036600  0.93065500  1
  N  827  1  0.81528900  0.83772600  0.90323400  1
  N  834  1  0.86106200  0.68052700  0.44693500  1
  N  837  1  0.94915600  0.65308200  0.41976200  1
  N  844  1  0.36095800  0.82701100  0.56039900  1
  N  847  1  0.44839500  0.85442000  0.58784800  1
  N  854  1  0.11205800  0.81011800  0.43039200  1
  N  857  1  0.20174100  0.83685600  0.40330300  1
  N  864  1  0.61099800  0.69720600  0.57668800  1
  N  867  1  0.70113000  0.67061100  0.60377500  1
  N  874  1  0.15153900  0.32701600  0.56003400  1
  N  877  1  0.06398800  0.35446000  0.58737700  1
  N  884  1  0.65107800  0.18002400  0.44738500  1
  N  887  1  0.56464600  0.15247100  0.41961300  1
  N  894  1  0.90018800  0.19734100  0.57699900  1
  N  897  1  0.81410200  0.16954100  0.60466200  1
  N  904  1  0.40017000  0.30991800  0.43053500  1
  N  907  1  0.31458500  0.33782700  0.40276300  1
  O  601  1  0.18080200  0.98502400  0.01577000  1
  O  611  1  0.68127200  0.52617500  0.99586800  1
  O  621  1  0.43114900  0.24514200  0.73092500  1
  O  631  1  0.93048800  0.26601800  0.27259400  1
  O  641  1  0.86437400  0.54615100  0.99606400  1
  O  651  1  0.36355600  0.96116400  0.01078700  1
  O  661  1  0.61372300  0.24649100  0.71066400  1
  O  671  1  0.11405800  0.25985000  0.29634000  1
  O  681  1  0.58335500  0.76492000  0.27235500  1
  O  691  1  0.08330800  0.74587500  0.73157000  1
  O  701  1  0.40083300  0.76065100  0.29659500  1
  O  711  1  0.90078200  0.74764600  0.71116200  1
  O  721  1  0.68112200  0.48513800  0.51531800  1
  O  731  1  0.18158100  0.02588600  0.49605100  1
  O  741  1  0.36415400  0.04661400  0.49626600  1
  O  751  1  0.86435600  0.46116100  0.50923700  1
  O  761  1  0.39541700  0.10236300  0.93079800  1
  O  771  1  0.89807400  0.40520300  0.07744000  1
  O  781  1  0.64874400  0.32747200  0.85172800  1
  O  791  1  0.14652300  0.18046300  0.15502100  1
  O  801  1  0.61797600  0.90516700  0.07632500  1
  O  811  1  0.11681000  0.60173900  0.92970100  1
  O  821  1  0.37122800  0.67809500  0.15582700  1
  O  831  1  0.87263400  0.82835600  0.85214200  1
  O  841  1  0.89112400  0.60185400  0.42965700  1
  O  851  1  0.39228100  0.90578500  0.57925400  1
  O  861  1  0.14842600  0.82748200  0.35147900  1
  O  871  1  0.64664300  0.68063200  0.65524700  1
  O  881  1  0.12225400  0.40569400  0.57731200  1
  O  891  1  0.62147700  0.10117500  0.42818400  1
  O  901  1  0.86996200  0.17868400  0.65605100  1
  O  911  1  0.37353400  0.32833600  0.35189500  1
