# generated using pymatgen
data_H9C18(NO3)2
_symmetry_space_group_name_H-M   'P 1'
_cell_length_a   48.68500000
_cell_length_b   49.02330000
_cell_length_c   83.19500000
_cell_angle_alpha   90.00000000
_cell_angle_beta   90.00000000
_cell_angle_gamma   90.00000000
_symmetry_Int_Tables_number   1
_chemical_formula_structural   H9C18(NO3)2
_chemical_formula_sum   'H576 C1152 N128 O384'
_cell_volume   198561.45329680
_cell_formula_units_Z   64
loop_
 _symmetry_equiv_pos_site_id
 _symmetry_equiv_pos_as_xyz
  1  'x, y, z'
loop_
 _atom_site_type_symbol
 _atom_site_label
 _atom_site_symmetry_multiplicity
 _atom_site_fract_x
 _atom_site_fract_y
 _atom_site_fract_z
 _atom_site_occupancy
  H  7  1  0.20905800  0.08004900  0.09867000  1
  H  16  1  0.20614500  0.13653000  0.07829300  1
  H  19  1  0.16418800  0.07615300  0.04627700  1
  H  20  1  0.12935600  0.07186800  0.06845200  1
  H  21  1  0.26396400  0.02328300  0.06234800  1
  H  22  1  0.11484300  0.16867600  0.09809700  1
  H  29  1  0.35068300  0.92205600  0.59867400  1
  H  38  1  0.35359500  0.86558500  0.57829500  1
  H  41  1  0.39555300  0.92596000  0.54627800  1
  H  42  1  0.43038300  0.93025200  0.56845500  1
  H  43  1  0.29577700  0.97882500  0.56235800  1
  H  44  1  0.44490000  0.83343900  0.59809600  1
  H  51  1  0.20697300  0.92956900  0.35045000  1
  H  60  1  0.15019400  0.92685600  0.33084900  1
  H  63  1  0.20952400  0.88234800  0.29870000  1
  H  64  1  0.21264200  0.84838100  0.32138900  1
  H  65  1  0.26164300  0.98298200  0.31247800  1
  H  66  1  0.11503600  0.83745500  0.35134500  1
  H  73  1  0.35276500  0.07253600  0.85044800  1
  H  82  1  0.40954500  0.07525500  0.83084200  1
  H  85  1  0.35021400  0.11975900  0.79869900  1
  H  86  1  0.34708800  0.15372200  0.82138900  1
  H  87  1  0.29809200  0.01912000  0.81247900  1
  H  88  1  0.44470100  0.16466300  0.85133300  1
  H  95  1  0.35181200  0.07873500  0.40853600  1
  H  104  1  0.35416400  0.13272600  0.42914900  1
  H  107  1  0.39462800  0.06545700  0.46216500  1
  H  108  1  0.43147500  0.06919400  0.44020600  1
  H  109  1  0.29791500  0.01913400  0.44538000  1
  H  110  1  0.44553100  0.16625900  0.41062900  1
  H  117  1  0.20791200  0.92337200  0.90853400  1
  H  126  1  0.20555800  0.86938700  0.92914900  1
  H  129  1  0.16510200  0.93666100  0.96216400  1
  H  130  1  0.12825200  0.93292800  0.94020700  1
  H  131  1  0.26181500  0.98297400  0.94537200  1
  H  132  1  0.11418700  0.83586000  0.91063400  1
  H  139  1  0.35264200  0.92971600  0.15677500  1
  H  148  1  0.40726900  0.92733300  0.17671800  1
  H  151  1  0.34135700  0.88446200  0.20986000  1
  H  152  1  0.34537100  0.84883800  0.18725000  1
  H  153  1  0.29460800  0.98154200  0.19540500  1
  H  154  1  0.44326300  0.83767400  0.15745000  1
  H  161  1  0.20708400  0.07239100  0.65677600  1
  H  170  1  0.15245400  0.07478000  0.67672300  1
  H  173  1  0.21837100  0.11764900  0.70986000  1
  H  174  1  0.21436200  0.15327000  0.68724900  1
  H  175  1  0.26512000  0.02056800  0.69540700  1
  H  176  1  0.11646300  0.16444500  0.65745900  1
  H  183  1  0.84393900  0.92551300  0.90830400  1
  H  192  1  0.84833200  0.86836500  0.93042000  1
  H  195  1  0.88928900  0.92833700  0.96028300  1
  H  196  1  0.91653400  0.93955800  0.93559700  1
  H  197  1  0.78786600  0.97977800  0.94552300  1
  H  198  1  0.93766400  0.83210700  0.91214400  1
  H  205  1  0.71578900  0.07661000  0.40829800  1
  H  214  1  0.71139100  0.13375200  0.43041600  1
  H  217  1  0.67043400  0.07377900  0.46027900  1
  H  218  1  0.64318700  0.06255300  0.43559000  1
  H  219  1  0.77185900  0.02234600  0.44551200  1
  H  220  1  0.62205800  0.17000600  0.41214200  1
  H  227  1  0.86068500  0.07239900  0.66000900  1
  H  236  1  0.91726100  0.07663800  0.68228600  1
  H  239  1  0.85545200  0.11888500  0.71159800  1
  H  240  1  0.85077300  0.15208500  0.68827900  1
  H  241  1  0.80362500  0.01841500  0.69674200  1
  H  242  1  0.95189600  0.15935400  0.65814100  1
  H  249  1  0.69904400  0.92972600  0.16001100  1
  H  258  1  0.64246400  0.92547500  0.18228200  1
  H  261  1  0.70427600  0.88323200  0.21159900  1
  H  262  1  0.70895700  0.85003100  0.18828200  1
  H  263  1  0.75610500  0.98370600  0.19674500  1
  H  264  1  0.60785000  0.84275500  0.15813100  1
  H  271  1  0.71371200  0.92704700  0.60031900  1
  H  280  1  0.71066000  0.87230600  0.57738100  1
  H  283  1  0.67151200  0.93928200  0.54675800  1
  H  284  1  0.64091800  0.94219100  0.57177000  1
  H  285  1  0.76939400  0.98453900  0.56320900  1
  H  286  1  0.62193400  0.83433400  0.59503100  1
  H  293  1  0.84602800  0.07507300  0.10032400  1
  H  302  1  0.84908200  0.12981100  0.07738300  1
  H  305  1  0.88822500  0.06283000  0.04676300  1
  H  306  1  0.91882600  0.05991900  0.07177400  1
  H  307  1  0.79034100  0.01758400  0.06321600  1
  H  308  1  0.93781200  0.16777600  0.09503300  1
  H  315  1  0.69823300  0.07262000  0.84871900  1
  H  324  1  0.64483900  0.07665900  0.82562100  1
  H  327  1  0.71469400  0.11714300  0.79614200  1
  H  328  1  0.71107000  0.15235900  0.81922800  1
  H  329  1  0.75912200  0.01942700  0.81225000  1
  H  330  1  0.60909700  0.15991900  0.84827400  1
  H  337  1  0.86150700  0.92950100  0.34871700  1
  H  346  1  0.91490300  0.92545000  0.32562400  1
  H  349  1  0.84504200  0.88496900  0.29614100  1
  H  350  1  0.84866700  0.84975400  0.31922600  1
  H  351  1  0.80061700  0.98268600  0.31224600  1
  H  352  1  0.95062700  0.84218600  0.34828400  1
  H  359  1  0.71287800  0.58300500  0.59787600  1
  H  368  1  0.70904900  0.63904700  0.57337500  1
  H  371  1  0.66599500  0.57820500  0.54669700  1
  H  372  1  0.63373900  0.57252600  0.57111100  1
  H  373  1  0.76678000  0.52465500  0.56208800  1
  H  374  1  0.62729900  0.67609100  0.59799200  1
  H  381  1  0.84686400  0.41910100  0.09787900  1
  H  390  1  0.85068800  0.36307200  0.07337300  1
  H  393  1  0.89374500  0.42391500  0.04669700  1
  H  394  1  0.92599900  0.42960200  0.07111400  1
  H  395  1  0.79296400  0.47745900  0.06210100  1
  H  396  1  0.93244400  0.32602100  0.09797900  1
  H  403  1  0.70342700  0.43483800  0.84919200  1
  H  412  1  0.64541600  0.42873900  0.82636900  1
  H  415  1  0.70640400  0.38881100  0.79776500  1
  H  416  1  0.71924100  0.36328500  0.82321700  1
  H  417  1  0.75771100  0.49041000  0.81179100  1
  H  418  1  0.61104200  0.34033200  0.84641500  1
  H  425  1  0.85631000  0.56726700  0.34918900  1
  H  434  1  0.91433000  0.57338300  0.32636000  1
  H  437  1  0.85333600  0.61329600  0.29776700  1
  H  438  1  0.84048800  0.63881700  0.32322200  1
  H  439  1  0.80202900  0.51169400  0.31178900  1
  H  440  1  0.94868300  0.66179600  0.34641000  1
  H  447  1  0.84815200  0.58153400  0.90931300  1
  H  456  1  0.85087100  0.63516000  0.93446100  1
  H  459  1  0.89269100  0.56746700  0.96179200  1
  H  460  1  0.92704000  0.56962100  0.93734800  1
  H  461  1  0.79546400  0.51986500  0.94552600  1
  H  462  1  0.93285900  0.67378000  0.91119500  1
  H  469  1  0.71157200  0.42057600  0.40931000  1
  H  478  1  0.70885400  0.36695800  0.43446300  1
  H  481  1  0.66704300  0.43465700  0.46179100  1
  H  482  1  0.63269100  0.43250900  0.43734600  1
  H  483  1  0.76426800  0.48224600  0.44551600  1
  H  484  1  0.62685800  0.32834000  0.41120800  1
  H  491  1  0.85664700  0.43423900  0.65775300  1
  H  500  1  0.91174400  0.42851700  0.68129300  1
  H  503  1  0.84284400  0.39035100  0.71049500  1
  H  504  1  0.83872600  0.36167300  0.68471500  1
  H  505  1  0.79885900  0.48892300  0.69528700  1
  H  506  1  0.94720300  0.34011000  0.66210900  1
  H  513  1  0.70307800  0.56786900  0.15775500  1
  H  522  1  0.64797700  0.57360700  0.18129900  1
  H  525  1  0.71687900  0.61176200  0.21049400  1
  H  526  1  0.72101000  0.64043300  0.18470900  1
  H  527  1  0.76086200  0.51318900  0.19529200  1
  H  528  1  0.61253500  0.66201800  0.16210800  1
  H  535  1  0.34882600  0.42254400  0.40903800  1
  H  544  1  0.35570100  0.36538400  0.43345100  1
  H  547  1  0.39669100  0.42624000  0.45976200  1
  H  548  1  0.42019900  0.43947300  0.43308600  1
  H  549  1  0.29415400  0.47790000  0.44627100  1
  H  550  1  0.45285000  0.33518800  0.43086700  1
  H  557  1  0.21089800  0.57958200  0.90903600  1
  H  566  1  0.20402400  0.63672800  0.93345700  1
  H  569  1  0.16303000  0.57587100  0.95975900  1
  H  570  1  0.13952100  0.56263700  0.93307800  1
  H  571  1  0.26557000  0.52421800  0.94625900  1
  H  572  1  0.10687300  0.66692200  0.93086800  1
  H  579  1  0.35820400  0.56865000  0.15924600  1
  H  588  1  0.41510100  0.57506800  0.18524200  1
  H  591  1  0.35286400  0.61326400  0.21070000  1
  H  592  1  0.33986200  0.63834800  0.18390300  1
  H  593  1  0.30251000  0.51152600  0.19521100  1
  H  594  1  0.44401700  0.67232400  0.18334900  1
  H  601  1  0.20152500  0.43347600  0.65924700  1
  H  610  1  0.14462100  0.42704600  0.68523400  1
  H  613  1  0.20686000  0.38885800  0.71070200  1
  H  614  1  0.21986600  0.36377200  0.68391000  1
  H  615  1  0.25721400  0.49059800  0.69521400  1
  H  616  1  0.11571900  0.32979000  0.68333800  1
  H  623  1  0.20941300  0.42378200  0.09954900  1
  H  632  1  0.20331700  0.36931000  0.07413300  1
  H  635  1  0.16360200  0.43726000  0.04758800  1
  H  636  1  0.13722600  0.44227000  0.07485800  1
  H  637  1  0.26305800  0.48234800  0.06195200  1
  H  638  1  0.10642100  0.33766400  0.07613500  1
  H  645  1  0.35032900  0.57833800  0.59955100  1
  H  654  1  0.35642400  0.63279900  0.57412700  1
  H  657  1  0.39613600  0.56484800  0.54759100  1
  H  658  1  0.42251800  0.55983800  0.57486600  1
  H  659  1  0.29668000  0.51976500  0.56196100  1
  H  660  1  0.45332200  0.66444600  0.57613500  1
  H  667  1  0.20204400  0.56913200  0.34959400  1
  H  676  1  0.14712600  0.57486000  0.32279600  1
  H  679  1  0.21560000  0.61131800  0.29697900  1
  H  680  1  0.22183000  0.63892500  0.32439100  1
  H  681  1  0.25990300  0.51247300  0.31304600  1
  H  682  1  0.11750200  0.67202400  0.32425700  1
  H  689  1  0.35769500  0.43299200  0.84959300  1
  H  698  1  0.41261500  0.42725400  0.82280500  1
  H  701  1  0.34413200  0.39079600  0.79697900  1
  H  702  1  0.33790700  0.36318900  0.82438300  1
  H  703  1  0.29983700  0.48964300  0.81304100  1
  H  704  1  0.44222800  0.33008800  0.82426900  1
  H  711  1  0.16260100  0.19093700  0.10640100  1
  H  718  1  0.14447000  0.31455900  0.05946600  1
  H  719  1  0.20350100  0.32599600  0.09588900  1
  H  720  1  0.19223300  0.18129700  0.05915800  1
  H  721  1  0.21277600  0.27813700  0.09604200  1
  H  722  1  0.19972600  0.22931600  0.05728600  1
  H  735  1  0.39714200  0.81117600  0.60639900  1
  H  742  1  0.41527700  0.68755700  0.55946100  1
  H  743  1  0.35624300  0.67611600  0.59588000  1
  H  744  1  0.36751100  0.82081800  0.55915700  1
  H  745  1  0.34697100  0.72397500  0.59603700  1
  H  746  1  0.36002000  0.77279800  0.55728300  1
  H  759  1  0.09364900  0.88515100  0.35919600  1
  H  766  1  0.97211400  0.86815900  0.31100400  1
  H  767  1  0.95798400  0.92639500  0.34733700  1
  H  768  1  0.10518600  0.91538000  0.31226600  1
  H  769  1  0.00605200  0.93642500  0.34819000  1
  H  770  1  0.05717100  0.92428300  0.31013300  1
  H  783  1  0.46607900  0.11696100  0.85918900  1
  H  790  1  0.58761800  0.13394700  0.81099400  1
  H  791  1  0.60174900  0.07571900  0.84733000  1
  H  792  1  0.45454600  0.08673500  0.81225600  1
  H  793  1  0.55368100  0.06569100  0.84818600  1
  H  794  1  0.50256300  0.07782400  0.81012600  1
  H  807  1  0.39747500  0.18708900  0.40141100  1
  H  814  1  0.41525700  0.31146800  0.44751100  1
  H  815  1  0.35586300  0.32242400  0.41123600  1
  H  816  1  0.36750700  0.17831800  0.44863700  1
  H  817  1  0.34680500  0.27450200  0.41121000  1
  H  818  1  0.35985800  0.22636000  0.45014900  1
  H  831  1  0.16224000  0.81502500  0.90141400  1
  H  838  1  0.14446100  0.69064500  0.94751600  1
  H  839  1  0.20385600  0.67968900  0.91124300  1
  H  840  1  0.19221300  0.82379600  0.94863900  1
  H  841  1  0.21290900  0.72761200  0.91121300  1
  H  842  1  0.19986000  0.77575400  0.95015100  1
  H  855  1  0.46349100  0.88567100  0.14870400  1
  H  862  1  0.58571400  0.86752300  0.19575700  1
  H  863  1  0.59966500  0.92692500  0.16005800  1
  H  864  1  0.45299500  0.91584300  0.19572600  1
  H  865  1  0.55157800  0.93703700  0.15943400  1
  H  866  1  0.50110700  0.92454300  0.19754300  1
  H  879  1  0.09624300  0.11644500  0.64870700  1
  H  886  1  0.97402400  0.13458600  0.69576600  1
  H  887  1  0.96006700  0.07519300  0.66006300  1
  H  888  1  0.10673900  0.08627200  0.69573300  1
  H  889  1  0.00815200  0.06508100  0.65943600  1
  H  890  1  0.05862600  0.07756600  0.69754800  1
  H  903  1  0.89233600  0.81353000  0.90308700  1
  H  910  1  0.90851900  0.69089200  0.94994000  1
  H  911  1  0.84909200  0.68019700  0.91365400  1
  H  912  1  0.86263400  0.82518600  0.95016700  1
  H  913  1  0.83979600  0.72808100  0.91393300  1
  H  914  1  0.85388000  0.77735900  0.95244100  1
  H  927  1  0.66738400  0.18858700  0.40308900  1
  H  934  1  0.65120200  0.31122000  0.44995000  1
  H  935  1  0.71062300  0.32192100  0.41366200  1
  H  936  1  0.69708700  0.17692800  0.45016600  1
  H  937  1  0.71991900  0.27403900  0.41393600  1
  H  938  1  0.70583900  0.22475200  0.45244300  1
  H  951  1  0.66797300  0.81748500  0.60466000  1
  H  958  1  0.65000700  0.69400700  0.55906600  1
  H  959  1  0.71132500  0.68383400  0.59431400  1
  H  960  1  0.69606800  0.82815800  0.55716700  1
  H  961  1  0.72050000  0.73174400  0.59368400  1
  H  962  1  0.70484300  0.78028000  0.55516200  1
  H  975  1  0.89177500  0.18463300  0.10465800  1
  H  982  1  0.90973300  0.30810300  0.05905400  1
  H  983  1  0.84842300  0.31828400  0.09430700  1
  H  984  1  0.86367400  0.17395400  0.05716700  1
  H  985  1  0.83924900  0.27037400  0.09368200  1
  H  986  1  0.85489900  0.22183100  0.05516000  1
  H  999  1  0.59130900  0.38547800  0.85451100  1
  H  1006  1  0.46599700  0.36697700  0.80740500  1
  H  1007  1  0.45694500  0.42699900  0.84327400  1
  H  1008  1  0.60237000  0.41148000  0.80667300  1
  H  1009  1  0.50528700  0.43504400  0.84285900  1
  H  1010  1  0.55397100  0.41868900  0.80415500  1
  H  1023  1  0.96842500  0.61664600  0.35450400  1
  H  1030  1  0.09373400  0.63513700  0.30739200  1
  H  1031  1  0.10278400  0.57511700  0.34326000  1
  H  1032  1  0.95735800  0.59064800  0.30666200  1
  H  1033  1  0.05444200  0.56707600  0.34284900  1
  H  1034  1  0.00575600  0.58343500  0.30414400  1
  H  1047  1  0.96594700  0.38564500  0.65352100  1
  H  1054  1  0.09155400  0.36634000  0.70013400  1
  H  1055  1  0.10055800  0.42688900  0.66457000  1
  H  1056  1  0.95535100  0.41122700  0.70147100  1
  H  1057  1  0.05222800  0.43502800  0.66511000  1
  H  1058  1  0.00379400  0.41836700  0.70385700  1
  H  1071  1  0.59378400  0.61647700  0.15352500  1
  H  1078  1  0.46818100  0.63577200  0.20014500  1
  H  1079  1  0.45917600  0.57522700  0.16458100  1
  H  1080  1  0.60438700  0.59089700  0.20147700  1
  H  1081  1  0.50750500  0.56709000  0.16511800  1
  H  1082  1  0.55594300  0.58375100  0.20386300  1
  H  1095  1  0.95947500  0.12667000  0.10831900  1
  H  1102  1  0.09115200  0.14158400  0.06341200  1
  H  1103  1  0.10001600  0.08965300  0.10344800  1
  H  1104  1  0.95888400  0.09112700  0.06220400  1
  H  1105  1  0.05128900  0.08294600  0.10416400  1
  H  1106  1  0.00775600  0.08800000  0.06273000  1
  H  1119  1  0.60026800  0.87544100  0.60831500  1
  H  1126  1  0.46858900  0.86053400  0.56341000  1
  H  1127  1  0.45972400  0.91245800  0.60344800  1
  H  1128  1  0.60085800  0.91099000  0.56220100  1
  H  1129  1  0.50845200  0.91916500  0.60416500  1
  H  1130  1  0.55198300  0.91412100  0.56272900  1
  H  1143  1  0.14993100  0.68060700  0.35870200  1
  H  1150  1  0.14276600  0.81291600  0.31636600  1
  H  1151  1  0.19284500  0.82054100  0.35744900  1
  H  1152  1  0.19411900  0.68219400  0.31515600  1
  H  1153  1  0.19846400  0.77194200  0.35828200  1
  H  1154  1  0.19810800  0.73052400  0.31702700  1
  H  1167  1  0.40979300  0.32149600  0.85870600  1
  H  1174  1  0.41696000  0.18919300  0.81636100  1
  H  1175  1  0.36688900  0.18156700  0.85744800  1
  H  1176  1  0.36561300  0.31991700  0.81515900  1
  H  1177  1  0.36127100  0.23016600  0.85828100  1
  H  1178  1  0.36162600  0.27158700  0.81702600  1
  H  1191  1  0.60036300  0.12869300  0.39929100  1
  H  1198  1  0.46923200  0.13946500  0.44535300  1
  H  1199  1  0.46124600  0.08776200  0.40515500  1
  H  1200  1  0.60316500  0.09307600  0.44535800  1
  H  1201  1  0.51012000  0.08247600  0.40413900  1
  H  1202  1  0.55441000  0.08863000  0.44529200  1
  H  1215  1  0.95936000  0.87342000  0.89929500  1
  H  1222  1  0.09049000  0.86265800  0.94535800  1
  H  1223  1  0.09847700  0.91435300  0.90515700  1
  H  1224  1  0.95655900  0.90904200  0.94536300  1
  H  1225  1  0.04960400  0.91963900  0.90414200  1
  H  1226  1  0.00531300  0.91349300  0.94529400  1
  H  1239  1  0.41094300  0.68137000  0.14940600  1
  H  1246  1  0.41563900  0.81338500  0.19248500  1
  H  1247  1  0.36573200  0.82027400  0.15128800  1
  H  1248  1  0.36721300  0.68142700  0.19312000  1
  H  1249  1  0.36102500  0.77159900  0.15036400  1
  H  1250  1  0.36234700  0.72969600  0.19156800  1
  H  1263  1  0.14879800  0.32073900  0.64940000  1
  H  1270  1  0.14409600  0.18872600  0.69248700  1
  H  1271  1  0.19399500  0.18183800  0.65128600  1
  H  1272  1  0.19252100  0.32068600  0.69311600  1
  H  1273  1  0.19870400  0.23051300  0.65036200  1
  H  1274  1  0.19738300  0.27242000  0.69156800  1
  H  1287  1  0.90549000  0.32068900  0.64805100  1
  H  1294  1  0.92162400  0.19112100  0.69301000  1
  H  1295  1  0.86916000  0.17991400  0.65325000  1
  H  1296  1  0.86877600  0.32049500  0.69392200  1
  H  1297  1  0.86155800  0.22819200  0.65194900  1
  H  1298  1  0.86538500  0.27202800  0.69302000  1
  H  1311  1  0.65424600  0.68142900  0.14804600  1
  H  1318  1  0.63811200  0.81099600  0.19300400  1
  H  1319  1  0.69058000  0.82220100  0.15324600  1
  H  1320  1  0.69096600  0.68162100  0.19391400  1
  H  1321  1  0.69817900  0.77392200  0.15194400  1
  H  1322  1  0.69435300  0.73008800  0.19301400  1
  H  1335  1  0.65278800  0.32043400  0.85991200  1
  H  1342  1  0.63992100  0.19145700  0.81368900  1
  H  1343  1  0.69135400  0.18061400  0.85393900  1
  H  1344  1  0.68978500  0.32200000  0.81412800  1
  H  1345  1  0.69807300  0.22897500  0.85554200  1
  H  1346  1  0.69408600  0.27361700  0.81463100  1
  H  1359  1  0.90694200  0.68168000  0.35991400  1
  H  1366  1  0.91980800  0.81065800  0.31369400  1
  H  1367  1  0.86837300  0.82149800  0.35394400  1
  H  1368  1  0.86993400  0.68011400  0.31413500  1
  H  1369  1  0.86165500  0.77313700  0.35554600  1
  H  1370  1  0.86563500  0.72849500  0.31463700  1
  H  1383  1  0.46352600  0.63191400  0.60975300  1
  H  1390  1  0.59374900  0.64217100  0.56464300  1
  H  1391  1  0.60638300  0.59490100  0.60631700  1
  H  1392  1  0.46508300  0.58772700  0.56631600  1
  H  1393  1  0.55778700  0.58750100  0.60845200  1
  H  1394  1  0.51377600  0.58481800  0.56780300  1
  H  1407  1  0.09621000  0.37020600  0.10974900  1
  H  1414  1  0.96599500  0.35995400  0.06463400  1
  H  1415  1  0.95335200  0.40721300  0.10631300  1
  H  1416  1  0.09465700  0.41439300  0.06631000  1
  H  1417  1  0.00194800  0.41461700  0.10844900  1
  H  1418  1  0.04596200  0.41731000  0.06780000  1
  H  1431  1  0.09618400  0.63352800  0.89793900  1
  H  1438  1  0.96652900  0.63997600  0.94431600  1
  H  1439  1  0.95465700  0.59322600  0.90236300  1
  H  1440  1  0.09690000  0.58982000  0.94155200  1
  H  1441  1  0.00338800  0.58717400  0.89997300  1
  H  1442  1  0.04830000  0.58560100  0.94051000  1
  H  1455  1  0.46354300  0.36859000  0.39794300  1
  H  1462  1  0.59319200  0.36215500  0.44432600  1
  H  1463  1  0.60507300  0.40889200  0.40236900  1
  H  1464  1  0.46282200  0.41230200  0.44155800  1
  H  1465  1  0.55634100  0.41494800  0.39997600  1
  H  1466  1  0.51142200  0.41652900  0.44051300  1
  H  1479  1  0.23093500  0.93709400  0.97849500  1
  H  1486  1  0.17322100  0.02341200  0.04241400  1
  H  1487  1  0.25462400  0.04912500  0.03395000  1
  H  1488  1  0.19596200  0.00686200  0.95700600  1
  H  1489  1  0.25446200  0.02581800  0.00859700  1
  H  1490  1  0.19649300  0.02986300  0.98239600  1
  H  1503  1  0.32879300  0.06502000  0.47849700  1
  H  1510  1  0.38652300  0.97870000  0.54241600  1
  H  1511  1  0.30511400  0.95299800  0.53395800  1
  H  1512  1  0.36377700  0.99525600  0.45701000  1
  H  1513  1  0.30527200  0.97630600  0.50860600  1
  H  1514  1  0.36324900  0.97225500  0.48240100  1
  H  1527  1  0.34296200  0.94905100  0.22690200  1
  H  1534  1  0.26230000  0.89241100  0.29317600  1
  H  1535  1  0.23346200  0.97235700  0.28503000  1
  H  1536  1  0.27037000  0.91657100  0.20690800  1
  H  1537  1  0.25462200  0.97233800  0.25899900  1
  H  1538  1  0.24923100  0.91665600  0.23290800  1
  H  1551  1  0.21676900  0.05305600  0.72690300  1
  H  1558  1  0.29743400  0.10969500  0.79317700  1
  H  1559  1  0.32627500  0.02975000  0.78502700  1
  H  1560  1  0.28935600  0.08554400  0.70690700  1
  H  1561  1  0.30511200  0.02977200  0.75899600  1
  H  1562  1  0.31049800  0.08545800  0.73290800  1
  H  1575  1  0.82209000  0.06402600  0.03032500  1
  H  1582  1  0.87858800  0.98121800  0.96510200  1
  H  1583  1  0.79798400  0.95303300  0.97348100  1
  H  1584  1  0.85520900  0.99263500  0.05095800  1
  H  1585  1  0.79787300  0.97516300  0.99920400  1
  H  1586  1  0.85437500  0.97065700  0.02526000  1
  H  1599  1  0.73764900  0.93809100  0.53032000  1
  H  1606  1  0.68113500  0.02090200  0.46510000  1
  H  1607  1  0.76174300  0.04907500  0.47347200  1
  H  1608  1  0.70451800  0.00947800  0.55095200  1
  H  1609  1  0.76185800  0.02694400  0.49919400  1
  H  1610  1  0.70535000  0.03145600  0.52525400  1
  H  1623  1  0.71457500  0.05209300  0.77887200  1
  H  1630  1  0.80212100  0.10868700  0.71579600  1
  H  1631  1  0.82990400  0.02865500  0.72489700  1
  H  1632  1  0.78483200  0.08454100  0.80157700  1
  H  1633  1  0.80617600  0.02872200  0.75016400  1
  H  1634  1  0.80881300  0.08443600  0.77643700  1
  H  1647  1  0.84515700  0.95002000  0.27886900  1
  H  1654  1  0.75761000  0.89343100  0.21579300  1
  H  1655  1  0.72981700  0.97345800  0.22490200  1
  H  1656  1  0.77490500  0.91756600  0.30157600  1
  H  1657  1  0.75354600  0.97338700  0.25016900  1
  H  1658  1  0.75092000  0.91767200  0.27643800  1
  H  1671  1  0.73403400  0.43694100  0.47898600  1
  H  1678  1  0.67541900  0.52523200  0.54204400  1
  H  1679  1  0.75733900  0.54930200  0.53359900  1
  H  1680  1  0.69783400  0.50556200  0.45691700  1
  H  1681  1  0.75695100  0.52545500  0.50843700  1
  H  1682  1  0.69808100  0.52923000  0.48210300  1
  H  1695  1  0.82569700  0.56518300  0.97899000  1
  H  1702  1  0.88432500  0.47688600  0.04204800  1
  H  1703  1  0.80239800  0.45283400  0.03360900  1
  H  1704  1  0.86190700  0.49656200  0.95692500  1
  H  1705  1  0.80278400  0.47668400  0.00844700  1
  H  1706  1  0.86166300  0.47290000  0.98211400  1
  H  1719  1  0.84468800  0.45510200  0.72810300  1
  H  1726  1  0.75960900  0.39993200  0.79256500  1
  H  1727  1  0.73113400  0.47980900  0.78378500  1
  H  1728  1  0.77252900  0.42485300  0.70643500  1
  H  1729  1  0.75386200  0.47977600  0.75820100  1
  H  1730  1  0.74979100  0.42520200  0.73195500  1
  H  1743  1  0.71504300  0.54700600  0.22810600  1
  H  1750  1  0.80012700  0.60217300  0.29256700  1
  H  1751  1  0.82861200  0.52229900  0.28377900  1
  H  1752  1  0.78719700  0.57726500  0.20643500  1
  H  1753  1  0.80588000  0.52233600  0.25819600  1
  H  1754  1  0.80993900  0.57691400  0.23195400  1
  H  1767  1  0.33025500  0.56525400  0.52925100  1
  H  1774  1  0.38583300  0.47918900  0.46511700  1
  H  1775  1  0.30508300  0.45225500  0.47436600  1
  H  1776  1  0.36193700  0.49437100  0.55121300  1
  H  1777  1  0.30569100  0.47534800  0.49977500  1
  H  1778  1  0.36172700  0.47140100  0.52580700  1
  H  1791  1  0.22948300  0.43685400  0.02924800  1
  H  1798  1  0.17388600  0.52292300  0.96511500  1
  H  1799  1  0.25464500  0.54984300  0.97435600  1
  H  1800  1  0.19778900  0.50773400  0.05120600  1
  H  1801  1  0.25403900  0.52674600  0.99976400  1
  H  1802  1  0.19799400  0.53070100  0.02579900  1
  H  1815  1  0.21436200  0.54465400  0.27962400  1
  H  1822  1  0.29932400  0.60123700  0.21539300  1
  H  1823  1  0.32809000  0.52128500  0.22365000  1
  H  1824  1  0.28612500  0.57646500  0.30098200  1
  H  1825  1  0.30499500  0.52059200  0.24912500  1
  H  1826  1  0.30882400  0.57578000  0.27545500  1
  H  1839  1  0.34536700  0.45746400  0.77962300  1
  H  1846  1  0.26040200  0.40088500  0.71539400  1
  H  1847  1  0.23162800  0.48083300  0.72365600  1
  H  1848  1  0.27361000  0.42564300  0.80098300  1
  H  1849  1  0.25472500  0.48152200  0.74913000  1
  H  1850  1  0.25090700  0.42633200  0.77545700  1
  H  1863  1  0.30019900  0.92948700  0.14389200  1
  H  1870  1  0.28262900  0.04969100  0.08899600  1
  H  1871  1  0.20751100  0.02187300  0.10821400  1
  H  1872  1  0.31736800  0.00269200  0.16857400  1
  H  1873  1  0.23178800  0.99788500  0.12885700  1
  H  1874  1  0.29586300  0.02824700  0.14752100  1
  H  1887  1  0.25952700  0.07262000  0.64389200  1
  H  1894  1  0.27711200  0.95240900  0.58900400  1
  H  1895  1  0.35222500  0.98024300  0.60821800  1
  H  1896  1  0.24236400  0.99941800  0.66857700  1
  H  1897  1  0.32794700  0.00422900  0.62886000  1
  H  1898  1  0.26387600  0.97386000  0.64752700  1
  H  1911  1  0.35365500  0.02662100  0.39540200  1
  H  1918  1  0.23486500  0.00226200  0.33884500  1
  H  1919  1  0.26603400  0.93009500  0.35956500  1
  H  1920  1  0.27787600  0.04230300  0.41817900  1
  H  1921  1  0.28882600  0.95639500  0.37980700  1
  H  1922  1  0.25420100  0.01968800  0.39676800  1
  H  1935  1  0.20607600  0.97548800  0.89539600  1
  H  1942  1  0.32487200  0.99984400  0.83884200  1
  H  1943  1  0.29370000  0.07201100  0.85956300  1
  H  1944  1  0.28185000  0.95980100  0.91817500  1
  H  1945  1  0.27090700  0.04571000  0.87980500  1
  H  1946  1  0.30552700  0.98241500  0.89676500  1
  H  1959  1  0.75036800  0.07324700  0.86262600  1
  H  1966  1  0.76955700  0.95443600  0.91882800  1
  H  1967  1  0.84387300  0.98285600  0.89884100  1
  H  1968  1  0.73388900  0.99904200  0.83882600  1
  H  1969  1  0.81881600  0.00618800  0.87826900  1
  H  1970  1  0.75510200  0.97438000  0.86034900  1
  H  1983  1  0.80937000  0.92887500  0.36262400  1
  H  1990  1  0.79016900  0.04769000  0.41881900  1
  H  1991  1  0.71585400  0.01926100  0.39883500  1
  H  1992  1  0.82584100  0.00307800  0.33881900  1
  H  1993  1  0.74091100  0.99593100  0.37826200  1
  H  1994  1  0.80462300  0.02774000  0.36033900  1
  H  2007  1  0.71286600  0.97946900  0.61304000  1
  H  2014  1  0.83035600  0.99929100  0.67065300  1
  H  2015  1  0.80308200  0.07283800  0.64972300  1
  H  2016  1  0.78848000  0.96139800  0.59067900  1
  H  2017  1  0.78018600  0.04765500  0.62903700  1
  H  2018  1  0.81251800  0.98332500  0.61220700  1
  H  2031  1  0.84687200  0.02265000  0.11304700  1
  H  2038  1  0.72937600  0.00283000  0.17065800  1
  H  2039  1  0.75665100  0.92928500  0.14972500  1
  H  2040  1  0.77125900  0.04072500  0.09068500  1
  H  2041  1  0.77954700  0.95446700  0.12904300  1
  H  2042  1  0.74721900  0.01880100  0.11221400  1
  H  2055  1  0.80459600  0.43433500  0.64466900  1
  H  2062  1  0.78595800  0.55258400  0.58814000  1
  H  2063  1  0.71140300  0.52465700  0.60804200  1
  H  2064  1  0.82216200  0.50863200  0.66809000  1
  H  2065  1  0.73622400  0.50155800  0.62881700  1
  H  2066  1  0.80055400  0.53323400  0.64668400  1
  H  2079  1  0.75513100  0.56777100  0.14467200  1
  H  2086  1  0.77378600  0.44951700  0.08814900  1
  H  2087  1  0.84833600  0.47745900  0.10805000  1
  H  2088  1  0.73756900  0.49347600  0.16809800  1
  H  2089  1  0.82351400  0.50055400  0.12882500  1
  H  2090  1  0.75918600  0.46887300  0.14669300  1
  H  2103  1  0.85041300  0.52956700  0.89551600  1
  H  2110  1  0.73206900  0.50872000  0.83850900  1
  H  2111  1  0.76121500  0.43519100  0.85857500  1
  H  2112  1  0.77486400  0.54438400  0.91875800  1
  H  2113  1  0.78425900  0.46028800  0.87923600  1
  H  2114  1  0.75093900  0.52288200  0.89703900  1
  H  2127  1  0.70931600  0.47254300  0.39550900  1
  H  2134  1  0.82766900  0.49338600  0.33850500  1
  H  2135  1  0.79852000  0.56691400  0.35856900  1
  H  2136  1  0.78486100  0.45772100  0.41875100  1
  H  2137  1  0.77547000  0.54181600  0.37922900  1
  H  2138  1  0.80879000  0.47921900  0.39703100  1
  H  2151  1  0.25447900  0.56928500  0.36267900  1
  H  2158  1  0.27498400  0.45146700  0.41996100  1
  H  2159  1  0.34865100  0.48027000  0.39937000  1
  H  2160  1  0.23608700  0.49412200  0.34046900  1
  H  2161  1  0.32299400  0.50323400  0.37890500  1
  H  2162  1  0.25811000  0.47031700  0.36202600  1
  H  2175  1  0.30526000  0.43284100  0.86267600  1
  H  2182  1  0.28474000  0.55066100  0.91995300  1
  H  2183  1  0.21107500  0.52184800  0.89936500  1
  H  2184  1  0.32364100  0.50800200  0.84046000  1
  H  2185  1  0.23673200  0.49888500  0.87889800  1
  H  2186  1  0.30161200  0.53180900  0.86201500  1
  H  2199  1  0.20930000  0.47562500  0.11283900  1
  H  2206  1  0.32914800  0.49420400  0.16865200  1
  H  2207  1  0.30051900  0.56833000  0.14910900  1
  H  2208  1  0.28369700  0.45870700  0.08883500  1
  H  2209  1  0.27714700  0.54379700  0.12833900  1
  H  2210  1  0.30882200  0.48016400  0.11010200  1
  H  2223  1  0.35043800  0.52649300  0.61284700  1
  H  2230  1  0.23058200  0.50792000  0.66865600  1
  H  2231  1  0.25921300  0.43379600  0.64911600  1
  H  2232  1  0.27604400  0.54341300  0.58884200  1
  H  2233  1  0.28259000  0.45832700  0.62834700  1
  H  2234  1  0.25091900  0.52196000  0.61010800  1
  C  1  1  0.19487500  0.08433100  0.07479500  1
  C  2  1  0.21074200  0.07264400  0.08718100  1
  C  3  1  0.22856900  0.05060100  0.08401300  1
  C  4  1  0.23032100  0.03993800  0.06822000  1
  C  5  1  0.21407400  0.05118100  0.05572100  1
  C  6  1  0.19640300  0.07346000  0.05905400  1
  C  9  1  0.17608600  0.10543500  0.07856100  1
  C  10  1  0.14768000  0.09983400  0.08015200  1
  C  11  1  0.12887400  0.12135400  0.08309400  1
  C  12  1  0.13891200  0.14843600  0.08464900  1
  C  13  1  0.16733400  0.15419800  0.08294700  1
  C  14  1  0.18563800  0.13251600  0.07981500  1
  C  23  1  0.36486600  0.91778400  0.57479700  1
  C  24  1  0.34899200  0.92946100  0.58718500  1
  C  25  1  0.33116900  0.95150700  0.58401800  1
  C  26  1  0.32942600  0.96217600  0.56822600  1
  C  27  1  0.34566900  0.95093400  0.55572700  1
  C  28  1  0.36334400  0.92865700  0.55905600  1
  C  31  1  0.38365600  0.89667800  0.57856200  1
  C  32  1  0.41206100  0.90228200  0.58015400  1
  C  33  1  0.43086700  0.88075900  0.58309200  1
  C  34  1  0.42082900  0.85367800  0.58464800  1
  C  35  1  0.39240800  0.84791600  0.58294700  1
  C  36  1  0.37410500  0.86959700  0.57981500  1
  C  45  1  0.20213600  0.91393900  0.32695000  1
  C  46  1  0.21414200  0.93052500  0.33887000  1
  C  47  1  0.23596600  0.94832100  0.33507300  1
  C  48  1  0.24598100  0.94943700  0.31910200  1
  C  49  1  0.23437600  0.93252000  0.30706000  1
  C  50  1  0.21238800  0.91479600  0.31103100  1
  C  53  1  0.18051600  0.89603200  0.33121800  1
  C  54  1  0.18528300  0.86772500  0.33309100  1
  C  55  1  0.16306400  0.84986600  0.33635800  1
  C  56  1  0.13612400  0.86068900  0.33785900  1
  C  57  1  0.13121200  0.88905300  0.33595900  1
  C  58  1  0.15359700  0.90641800  0.33257000  1
  C  67  1  0.35760100  0.08816500  0.82694700  1
  C  68  1  0.34559700  0.07157900  0.83886700  1
  C  69  1  0.32377100  0.05378600  0.83507100  1
  C  70  1  0.31375300  0.05266600  0.81910000  1
  C  71  1  0.32536100  0.06958500  0.80705900  1
  C  72  1  0.34734700  0.08731200  0.81102900  1
  C  75  1  0.37921900  0.10607300  0.83121500  1
  C  76  1  0.37445000  0.13438100  0.83308800  1
  C  77  1  0.39666600  0.15224300  0.83635500  1
  C  78  1  0.42360800  0.14142200  0.83785300  1
  C  79  1  0.42852400  0.11305800  0.83594900  1
  C  80  1  0.40613900  0.09569000  0.83256800  1
  C  89  1  0.36594000  0.08058000  0.43251600  1
  C  90  1  0.35009500  0.07013900  0.41973200  1
  C  91  1  0.33230700  0.04773800  0.42203200  1
  C  92  1  0.33048800  0.03559300  0.43745200  1
  C  93  1  0.34655800  0.04565800  0.45038100  1
  C  94  1  0.36427400  0.06823200  0.44786600  1
  C  97  1  0.38470300  0.10206700  0.42944600  1
  C  98  1  0.41326700  0.09692100  0.42829500  1
  C  99  1  0.43185700  0.11871900  0.42560000  1
  C  100  1  0.42147600  0.14563900  0.42388600  1
  C  101  1  0.39291100  0.15095700  0.42517000  1
  C  102  1  0.37480300  0.12901200  0.42802200  1
  C  111  1  0.19378600  0.92153600  0.93251500  1
  C  112  1  0.20963500  0.93196600  0.91972900  1
  C  113  1  0.22741900  0.95437100  0.92202800  1
  C  114  1  0.22923900  0.96651800  0.93744600  1
  C  115  1  0.21317200  0.95645600  0.95037900  1
  C  116  1  0.19545400  0.93388300  0.94786400  1
  C  119  1  0.17502100  0.90004800  0.92944600  1
  C  120  1  0.14645800  0.90519700  0.92829700  1
  C  121  1  0.12786500  0.88339900  0.92560400  1
  C  122  1  0.13824500  0.85647700  0.92388900  1
  C  123  1  0.16680800  0.85115700  0.92517200  1
  C  124  1  0.18492000  0.87310200  0.92802300  1
  C  133  1  0.35525700  0.91425400  0.18041200  1
  C  134  1  0.34431100  0.93071300  0.16808500  1
  C  135  1  0.32192800  0.94832300  0.17102700  1
  C  136  1  0.31039500  0.94941400  0.18665300  1
  C  137  1  0.32102100  0.93277100  0.19914600  1
  C  138  1  0.34352000  0.91518600  0.19596700  1
  C  141  1  0.37718200  0.89625200  0.17680700  1
  C  142  1  0.37268100  0.86782000  0.17534700  1
  C  143  1  0.39506000  0.85001500  0.17236100  1
  C  144  1  0.42190800  0.86099900  0.17073600  1
  C  145  1  0.42655800  0.88946500  0.17224800  1
  C  146  1  0.40403200  0.90679400  0.17535100  1
  C  155  1  0.20447100  0.08785500  0.68041300  1
  C  156  1  0.21541700  0.07139500  0.66808500  1
  C  157  1  0.23780000  0.05378800  0.67102800  1
  C  158  1  0.24933300  0.05269600  0.68665400  1
  C  159  1  0.23870600  0.06934000  0.69914600  1
  C  160  1  0.21620600  0.08692400  0.69596800  1
  C  163  1  0.18254700  0.10585800  0.67680700  1
  C  164  1  0.18704800  0.13428800  0.67534700  1
  C  165  1  0.16467200  0.15209600  0.67236100  1
  C  166  1  0.13782300  0.14111500  0.67073800  1
  C  167  1  0.13316900  0.11265000  0.67225300  1
  C  168  1  0.15569500  0.09531800  0.67535000  1
  C  177  1  0.85832900  0.92095000  0.93210400  1
  C  178  1  0.84216600  0.93261000  0.91985500  1
  C  179  1  0.82377000  0.95406900  0.92329700  1
  C  180  1  0.82178400  0.96416900  0.93921100  1
  C  181  1  0.83835800  0.95293300  0.95156300  1
  C  182  1  0.85654600  0.93120500  0.94797500  1
  C  185  1  0.87735800  0.90017200  0.92824400  1
  C  186  1  0.90540100  0.90643500  0.92564000  1
  C  187  1  0.92476200  0.88521800  0.92327400  1
  C  188  1  0.91563200  0.85769100  0.92347000  1
  C  189  1  0.88745700  0.85133200  0.92581000  1
  C  190  1  0.86862000  0.87276700  0.92834700  1
  C  199  1  0.70139800  0.08116500  0.43209800  1
  C  200  1  0.71756300  0.06951300  0.41985000  1
  C  201  1  0.73595700  0.04805200  0.42328800  1
  C  202  1  0.73793500  0.03794900  0.43920300  1
  C  203  1  0.72136700  0.04918100  0.45155600  1
  C  204  1  0.70317700  0.07090900  0.44796900  1
  C  207  1  0.68236600  0.10194300  0.42824100  1
  C  208  1  0.65432200  0.09567500  0.42563600  1
  C  209  1  0.63496500  0.11689200  0.42327200  1
  C  210  1  0.64408900  0.14442100  0.42346800  1
  C  211  1  0.67226400  0.15078200  0.42580900  1
  C  212  1  0.69110300  0.12934900  0.42834600  1
  C  221  1  0.86439100  0.08731800  0.68373900  1
  C  222  1  0.85301300  0.07104800  0.67146400  1
  C  223  1  0.83097000  0.05320000  0.67471100  1
  C  224  1  0.82005700  0.05179200  0.69047300  1
  C  225  1  0.83102500  0.06843700  0.70284400  1
  C  226  1  0.85324100  0.08619800  0.69943600  1
  C  229  1  0.88563300  0.10589200  0.67989700  1
  C  230  1  0.87977900  0.13386700  0.67738200  1
  C  231  1  0.90139000  0.15250300  0.67421000  1
  C  232  1  0.92880100  0.14271300  0.67361300  1
  C  233  1  0.93490900  0.11494900  0.67685000  1
  C  234  1  0.91307700  0.09667200  0.67972300  1
  C  243  1  0.69533700  0.91480200  0.18373900  1
  C  244  1  0.70671600  0.93107400  0.17146600  1
  C  245  1  0.72875800  0.94892100  0.17471400  1
  C  246  1  0.73967100  0.95033000  0.19047500  1
  C  247  1  0.72870000  0.93368100  0.20284500  1
  C  248  1  0.70648600  0.91591800  0.19943600  1
  C  251  1  0.67409800  0.89622500  0.17989500  1
  C  252  1  0.67995400  0.86825300  0.17738000  1
  C  253  1  0.65835200  0.84961500  0.17420100  1
  C  254  1  0.63093900  0.85940000  0.17360500  1
  C  255  1  0.62482600  0.88716400  0.17684100  1
  C  256  1  0.64665400  0.90544800  0.17970900  1
  C  265  1  0.69999900  0.92486300  0.57627800  1
  C  266  1  0.71573500  0.93537200  0.58907100  1
  C  267  1  0.73399300  0.95735100  0.58663900  1
  C  268  1  0.73634900  0.96900100  0.57111100  1
  C  269  1  0.72032600  0.95885900  0.55818100  1
  C  270  1  0.70217500  0.93667800  0.56081300  1
  C  273  1  0.68101400  0.90363000  0.57930700  1
  C  274  1  0.65280600  0.90939300  0.58171600  1
  C  275  1  0.63380000  0.88783100  0.58397800  1
  C  276  1  0.64339100  0.86046900  0.58374900  1
  C  277  1  0.67169500  0.85461700  0.58153300  1
  C  278  1  0.69023000  0.87636500  0.57920400  1
  C  287  1  0.85974000  0.07725300  0.07628200  1
  C  288  1  0.84400000  0.06675000  0.08907500  1
  C  289  1  0.82574600  0.04476700  0.08664600  1
  C  290  1  0.82338800  0.03311600  0.07111800  1
  C  291  1  0.83941000  0.04325800  0.05818700  1
  C  292  1  0.85756300  0.06543700  0.06081800  1
  C  295  1  0.87872600  0.09848500  0.07931000  1
  C  296  1  0.90693300  0.09272000  0.08171800  1
  C  297  1  0.92593900  0.11428000  0.08398000  1
  C  298  1  0.91635300  0.14164300  0.08375100  1
  C  299  1  0.88804900  0.14749900  0.08153500  1
  C  300  1  0.86951100  0.12574900  0.07920500  1
  C  309  1  0.69775200  0.08748000  0.82489000  1
  C  310  1  0.70741000  0.07118400  0.83765300  1
  C  311  1  0.72981700  0.05329100  0.83549300  1
  C  312  1  0.74274500  0.05181100  0.82026000  1
  C  313  1  0.73345500  0.06836800  0.80737600  1
  C  314  1  0.71088600  0.08621500  0.80973700  1
  C  317  1  0.67621400  0.10623000  0.82782000  1
  C  318  1  0.68180100  0.13435000  0.82996900  1
  C  319  1  0.65998700  0.15296300  0.83267000  1
  C  320  1  0.63262500  0.14301800  0.83311700  1
  C  321  1  0.62677400  0.11510500  0.83017300  1
  C  322  1  0.64881500  0.09685100  0.82784000  1
  C  331  1  0.86198700  0.91463700  0.32488800  1
  C  332  1  0.85232700  0.93093500  0.33765000  1
  C  333  1  0.82992000  0.94882700  0.33549000  1
  C  334  1  0.81699200  0.95030400  0.32025800  1
  C  335  1  0.82628200  0.93374200  0.30737500  1
  C  336  1  0.84885200  0.91589800  0.30973600  1
  C  339  1  0.88352200  0.89588500  0.32782100  1
  C  340  1  0.87793300  0.86776500  0.32997000  1
  C  341  1  0.89974000  0.84915000  0.33267800  1
  C  342  1  0.92710400  0.85909200  0.33312600  1
  C  343  1  0.93296000  0.88700500  0.33018200  1
  C  344  1  0.91092000  0.90526200  0.32785400  1
  C  353  1  0.69821200  0.58647700  0.57405600  1
  C  354  1  0.71421500  0.57512100  0.58648300  1
  C  355  1  0.73183000  0.55286200  0.58345300  1
  C  356  1  0.73321500  0.54165500  0.56777900  1
  C  357  1  0.71674400  0.55252900  0.55526400  1
  C  358  1  0.69925600  0.57500600  0.55845400  1
  C  361  1  0.67983100  0.60797700  0.57764500  1
  C  362  1  0.65183700  0.60248700  0.58096600  1
  C  363  1  0.63325600  0.62426100  0.58371900  1
  C  364  1  0.64310900  0.65147800  0.58308300  1
  C  365  1  0.67081800  0.65714900  0.57898300  1
  C  366  1  0.68907000  0.63518800  0.57654400  1
  C  375  1  0.86152700  0.41564100  0.07405800  1
  C  376  1  0.84552400  0.42698900  0.08648700  1
  C  377  1  0.82791100  0.44925000  0.08346000  1
  C  378  1  0.82653300  0.46046500  0.06778800  1
  C  379  1  0.84300000  0.44959500  0.05527000  1
  C  380  1  0.86048600  0.42711600  0.05845600  1
  C  383  1  0.87991100  0.39413900  0.07764300  1
  C  384  1  0.90790300  0.39963300  0.08096400  1
  C  385  1  0.92648400  0.37785500  0.08370900  1
  C  386  1  0.91663500  0.35063800  0.08307200  1
  C  387  1  0.88892600  0.34496700  0.07897200  1
  C  388  1  0.87067400  0.36692800  0.07653000  1
  C  397  1  0.69878500  0.42031100  0.82544700  1
  C  398  1  0.71049500  0.43654600  0.83762100  1
  C  399  1  0.73203000  0.45486200  0.83410000  1
  C  400  1  0.74215200  0.45669300  0.81816800  1
  C  401  1  0.73093700  0.43999900  0.80589100  1
  C  402  1  0.70916000  0.42185900  0.80957500  1
  C  405  1  0.67826000  0.40107100  0.82947100  1
  C  406  1  0.68533800  0.37362100  0.83279700  1
  C  407  1  0.66450800  0.35394000  0.83546900  1
  C  408  1  0.63653400  0.36213400  0.83482100  1
  C  409  1  0.62934300  0.38971500  0.83175700  1
  C  410  1  0.65040900  0.40888700  0.82892800  1
  C  419  1  0.86095600  0.58179300  0.32544500  1
  C  420  1  0.84924400  0.56555800  0.33761900  1
  C  421  1  0.82771000  0.54724400  0.33409800  1
  C  422  1  0.81759000  0.54541000  0.31816600  1
  C  423  1  0.82880700  0.56210400  0.30588600  1
  C  424  1  0.85057900  0.58024700  0.30957300  1
  C  427  1  0.88147800  0.60103900  0.32947000  1
  C  428  1  0.87439200  0.62848300  0.33280000  1
  C  429  1  0.89521300  0.64817000  0.33547800  1
  C  430  1  0.92319100  0.63999000  0.33482200  1
  C  431  1  0.93038800  0.61241100  0.33175100  1
  C  432  1  0.90933100  0.59323000  0.32892300  1
  C  441  1  0.86239600  0.58272100  0.93328000  1
  C  442  1  0.84670300  0.57246300  0.92039000  1
  C  443  1  0.82929600  0.54971200  0.92247400  1
  C  444  1  0.82778000  0.53700400  0.93774800  1
  C  445  1  0.84382200  0.54685300  0.95074800  1
  C  446  1  0.86112700  0.56979300  0.94846600  1
  C  449  1  0.88074900  0.60459000  0.93047500  1
  C  450  1  0.90895300  0.59957600  0.92751800  1
  C  451  1  0.92730300  0.62166800  0.92514400  1
  C  452  1  0.91702300  0.64872000  0.92584400  1
  C  453  1  0.88909600  0.65391200  0.92964200  1
  C  454  1  0.87106200  0.63164500  0.93163400  1
  C  463  1  0.69733300  0.41939700  0.43327900  1
  C  464  1  0.71302600  0.42964700  0.42038800  1
  C  465  1  0.73043000  0.45240100  0.42246700  1
  C  466  1  0.73195000  0.46511200  0.43774000  1
  C  467  1  0.71591200  0.45526700  0.45074300  1
  C  468  1  0.69860500  0.43232700  0.44846400  1
  C  471  1  0.67897600  0.39752800  0.43047800  1
  C  472  1  0.65077300  0.40254600  0.42752200  1
  C  473  1  0.63242200  0.38045400  0.42515500  1
  C  474  1  0.64269800  0.35339900  0.42585500  1
  C  475  1  0.67062500  0.34820600  0.42965300  1
  C  476  1  0.68865900  0.37047300  0.43164700  1
  C  485  1  0.85835200  0.41979400  0.68163600  1
  C  486  1  0.84817200  0.43602600  0.66899100  1
  C  487  1  0.82622900  0.45435400  0.67152000  1
  C  488  1  0.81427900  0.45626300  0.68701600  1
  C  489  1  0.82403300  0.43972200  0.69979900  1
  C  490  1  0.84618200  0.42151000  0.69705000  1
  C  493  1  0.87918400  0.40042000  0.67840100  1
  C  494  1  0.87242600  0.37281700  0.67528700  1
  C  495  1  0.89348600  0.35331200  0.67280400  1
  C  496  1  0.92136300  0.36176700  0.67354600  1
  C  497  1  0.92823800  0.38947000  0.67644700  1
  C  498  1  0.90696000  0.40852600  0.67898500  1
  C  507  1  0.70137300  0.58231500  0.18163700  1
  C  508  1  0.71155100  0.56608200  0.16899300  1
  C  509  1  0.73349800  0.54775600  0.17152200  1
  C  510  1  0.74544700  0.54584900  0.18701800  1
  C  511  1  0.73569000  0.56239200  0.19980200  1
  C  512  1  0.71354100  0.58060200  0.19705100  1
  C  515  1  0.68054400  0.60169200  0.17840100  1
  C  516  1  0.68730800  0.62929300  0.17528200  1
  C  517  1  0.66625400  0.64880000  0.17279400  1
  C  518  1  0.63837300  0.64035700  0.17354300  1
  C  519  1  0.63149200  0.61265600  0.17645000  1
  C  520  1  0.65276500  0.59359400  0.17898800  1
  C  529  1  0.36394300  0.41839500  0.43271100  1
  C  530  1  0.34743900  0.42986900  0.42055700  1
  C  531  1  0.32926900  0.45149800  0.42403800  1
  C  532  1  0.32788700  0.46197900  0.43989000  1
  C  533  1  0.34489600  0.45102900  0.45213000  1
  C  534  1  0.36288600  0.42915300  0.44849300  1
  C  537  1  0.38311400  0.39779700  0.42873800  1
  C  538  1  0.41051000  0.40466500  0.42469400  1
  C  539  1  0.43024300  0.38388100  0.42203200  1
  C  540  1  0.42224300  0.35614100  0.42383500  1
  C  541  1  0.39473700  0.34913400  0.42773300  1
  C  542  1  0.37542700  0.37018700  0.43018300  1
  C  551  1  0.19578100  0.58371700  0.93271100  1
  C  552  1  0.21228900  0.57225300  0.92055400  1
  C  553  1  0.23045700  0.55062200  0.92403300  1
  C  554  1  0.23183100  0.54013300  0.93988300  1
  C  555  1  0.21482400  0.55107900  0.95212500  1
  C  556  1  0.19683400  0.57295400  0.94849200  1
  C  559  1  0.17661000  0.60431700  0.92873900  1
  C  560  1  0.14921500  0.59744500  0.92469100  1
  C  561  1  0.12948500  0.61823100  0.92203200  1
  C  562  1  0.13748200  0.64597100  0.92383900  1
  C  563  1  0.16498500  0.65298000  0.92774000  1
  C  564  1  0.18429400  0.63192400  0.93019500  1
  C  573  1  0.36171100  0.58229100  0.18324600  1
  C  574  1  0.35062100  0.56648200  0.17067500  1
  C  575  1  0.32905200  0.54791100  0.17363100  1
  C  576  1  0.31821500  0.54546300  0.18937400  1
  C  577  1  0.32875400  0.56178800  0.20201400  1
  C  578  1  0.35058200  0.58016100  0.19891300  1
  C  581  1  0.38233900  0.60177700  0.17987700  1
  C  582  1  0.37520100  0.62896700  0.17592400  1
  C  583  1  0.39596800  0.64889400  0.17378000  1
  C  584  1  0.42390200  0.64140600  0.17610100  1
  C  585  1  0.43118400  0.61419600  0.18012500  1
  C  586  1  0.41015300  0.59463400  0.18197800  1
  C  595  1  0.19801500  0.41983100  0.68324700  1
  C  596  1  0.20910500  0.43564200  0.67067700  1
  C  597  1  0.23067500  0.45421300  0.67363400  1
  C  598  1  0.24150900  0.45666100  0.68937800  1
  C  599  1  0.23096800  0.44033400  0.70201800  1
  C  600  1  0.20914200  0.42195900  0.69891400  1
  C  603  1  0.17738900  0.40034300  0.67987500  1
  C  604  1  0.18453200  0.37315500  0.67592100  1
  C  605  1  0.16377300  0.35322400  0.67376700  1
  C  606  1  0.13583500  0.36070800  0.67609100  1
  C  607  1  0.12854800  0.38791800  0.68011400  1
  C  608  1  0.14957400  0.40748600  0.68196500  1
  C  617  1  0.19449900  0.42219500  0.07574000  1
  C  618  1  0.21088000  0.43238900  0.08834500  1
  C  619  1  0.22901700  0.45443500  0.08579300  1
  C  620  1  0.23050200  0.46653100  0.07034300  1
  C  621  1  0.21373700  0.45679300  0.05762400  1
  C  622  1  0.19578000  0.43450600  0.06037400  1
  C  625  1  0.17532700  0.40120100  0.07894800  1
  C  626  1  0.14777700  0.40755300  0.08293300  1
  C  627  1  0.12837500  0.38640000  0.08538600  1
  C  628  1  0.13678000  0.35884200  0.08330300  1
  C  629  1  0.16439800  0.35234100  0.07937800  1
  C  630  1  0.18343900  0.37374500  0.07726500  1
  C  639  1  0.36523900  0.57991600  0.57574100  1
  C  640  1  0.34885700  0.56973100  0.58834800  1
  C  641  1  0.33072600  0.54767900  0.58579900  1
  C  642  1  0.32923700  0.53558200  0.57035000  1
  C  643  1  0.34599700  0.54531700  0.55762800  1
  C  644  1  0.36395600  0.56760600  0.56037600  1
  C  647  1  0.38441200  0.60091100  0.57894700  1
  C  648  1  0.41196000  0.59455600  0.58293500  1
  C  649  1  0.43136000  0.61571200  0.58538600  1
  C  650  1  0.42295900  0.64327000  0.58330000  1
  C  651  1  0.39534300  0.64977100  0.57937200  1
  C  652  1  0.37630200  0.62836700  0.57725400  1
  C  661  1  0.20042200  0.58229900  0.32545000  1
  C  662  1  0.21056200  0.56675900  0.33840600  1
  C  663  1  0.23243700  0.54821900  0.33621100  1
  C  664  1  0.24443200  0.54549800  0.32076900  1
  C  665  1  0.23475200  0.56141500  0.30770300  1
  C  666  1  0.21264400  0.57979200  0.31009500  1
  C  669  1  0.17961300  0.60188100  0.32821300  1
  C  670  1  0.18648500  0.62915000  0.33213500  1
  C  671  1  0.16552800  0.64891800  0.33413600  1
  C  672  1  0.13770100  0.64123600  0.33161600  1
  C  673  1  0.13069300  0.61396800  0.32757500  1
  C  674  1  0.15189000  0.59452200  0.32595000  1
  C  683  1  0.35931600  0.41981900  0.82544900  1
  C  684  1  0.34917500  0.43536300  0.83840400  1
  C  685  1  0.32730000  0.45390300  0.83621000  1
  C  686  1  0.31530200  0.45661800  0.82076600  1
  C  687  1  0.32498500  0.44069700  0.80770200  1
  C  688  1  0.34709000  0.42232200  0.81009500  1
  C  691  1  0.38012100  0.40023400  0.82821500  1
  C  692  1  0.37324600  0.37296800  0.83213600  1
  C  693  1  0.39419700  0.35319800  0.83414800  1
  C  694  1  0.42202700  0.36087600  0.83162600  1
  C  695  1  0.42903900  0.38814400  0.82758700  1
  C  696  1  0.40784600  0.40759400  0.82596300  1
  C  705  1  0.17698800  0.18161000  0.08306600  1
  C  706  1  0.18873200  0.19310300  0.06910100  1
  C  707  1  0.19291400  0.22141300  0.06796100  1
  C  708  1  0.18537600  0.23897000  0.08070800  1
  C  709  1  0.17492600  0.22749800  0.09515900  1
  C  710  1  0.17132700  0.19891000  0.09623300  1
  C  712  1  0.18383500  0.26761800  0.07797200  1
  C  713  1  0.16405200  0.27850900  0.06717000  1
  C  714  1  0.15934500  0.30698500  0.06693500  1
  C  715  1  0.17305400  0.32473800  0.07763900  1
  C  716  1  0.19356800  0.31380400  0.08776100  1
  C  717  1  0.19895300  0.28562100  0.08787900  1
  C  729  1  0.38275400  0.82050400  0.58306500  1
  C  730  1  0.37101100  0.80901200  0.56910000  1
  C  731  1  0.36683100  0.78070100  0.56795800  1
  C  732  1  0.37437000  0.76314400  0.58070500  1
  C  733  1  0.38482000  0.77461600  0.59515700  1
  C  734  1  0.38841700  0.80320200  0.59623100  1
  C  736  1  0.37591200  0.73449600  0.57796800  1
  C  737  1  0.39569600  0.72360700  0.56716600  1
  C  738  1  0.40040000  0.69513100  0.56692900  1
  C  739  1  0.38668800  0.67737200  0.57762900  1
  C  740  1  0.36617600  0.68830800  0.58775400  1
  C  741  1  0.36079200  0.71649000  0.58787400  1
  C  753  1  0.10394800  0.89959300  0.33602500  1
  C  754  1  0.09303600  0.91208900  0.32212300  1
  C  755  1  0.06470800  0.91717300  0.32083400  1
  C  756  1  0.04653400  0.90974100  0.33333333  1
  C  757  1  0.05746300  0.89870800  0.34779700  1
  C  758  1  0.08611000  0.89430600  0.34904800  1
  C  760  1  0.01784300  0.90806700  0.33016500  1
  C  761  1  0.00767800  0.88828800  0.31918200  1
  C  762  1  0.97914000  0.88309500  0.31857100  1
  C  763  1  0.96060500  0.89628200  0.32907700  1
  C  764  1  0.97078100  0.91683600  0.33936300  1
  C  765  1  0.99906400  0.92267600  0.33987600  1
  C  777  1  0.45579300  0.10253100  0.83601200  1
  C  778  1  0.46669600  0.09002400  0.82211300  1
  C  779  1  0.49502500  0.08493800  0.82082800  1
  C  780  1  0.51319700  0.09236900  0.83334600  1
  C  781  1  0.50226700  0.10340300  0.84779200  1
  C  782  1  0.47362200  0.10780900  0.84904300  1
  C  784  1  0.54188700  0.09404400  0.83016000  1
  C  785  1  0.55205200  0.11382000  0.81917500  1
  C  786  1  0.58059100  0.11901200  0.81856200  1
  C  787  1  0.59913300  0.10582000  0.82906500  1
  C  788  1  0.58895100  0.08527600  0.83935500  1
  C  789  1  0.56066900  0.07943700  0.83987100  1
  C  801  1  0.38287300  0.17820800  0.42476000  1
  C  802  1  0.37098000  0.18992800  0.43861100  1
  C  803  1  0.36671400  0.21824900  0.43953800  1
  C  804  1  0.37430400  0.23556200  0.42668400  1
  C  805  1  0.38486800  0.22383200  0.41233600  1
  C  806  1  0.38856900  0.19523800  0.41147600  1
  C  808  1  0.37589800  0.26424600  0.42924900  1
  C  809  1  0.39576200  0.27528400  0.43994600  1
  C  810  1  0.40039800  0.30377400  0.44007400  1
  C  811  1  0.38649600  0.32139600  0.42938300  1
  C  812  1  0.36596500  0.31030800  0.41933100  1
  C  813  1  0.36069200  0.28210300  0.41929700  1
  C  825  1  0.17684500  0.82390700  0.92476200  1
  C  826  1  0.18873800  0.81218600  0.93861400  1
  C  827  1  0.19300200  0.78386400  0.93954100  1
  C  828  1  0.18541100  0.76655200  0.92668700  1
  C  829  1  0.17484700  0.77828100  0.91233900  1
  C  830  1  0.17114700  0.80687600  0.91148000  1
  C  832  1  0.18381800  0.73786800  0.92925200  1
  C  833  1  0.16395400  0.72683000  0.93995000  1
  C  834  1  0.15931900  0.69834200  0.94008000  1
  C  835  1  0.17322500  0.68071300  0.92939200  1
  C  836  1  0.19375400  0.69180400  0.91933800  1
  C  837  1  0.19902400  0.72001100  0.91930100  1
  C  849  1  0.45372200  0.90018700  0.17193700  1
  C  850  1  0.46493500  0.91260300  0.18577700  1
  C  851  1  0.49331400  0.91756200  0.18687500  1
  C  852  1  0.51119400  0.91012500  0.17421300  1
  C  853  1  0.49994200  0.89918900  0.15983000  1
  C  854  1  0.47126200  0.89486300  0.15878000  1
  C  856  1  0.53991500  0.90818900  0.17721500  1
  C  857  1  0.55012200  0.88800700  0.18792500  1
  C  858  1  0.57864400  0.88268300  0.18836100  1
  C  859  1  0.59711800  0.89621100  0.17796900  1
  C  860  1  0.58689500  0.91709300  0.16793200  1
  C  861  1  0.55861900  0.92299800  0.16756300  1
  C  873  1  0.10599700  0.10193900  0.67194500  1
  C  874  1  0.09479700  0.08951100  0.68578400  1
  C  875  1  0.06642000  0.08455000  0.68688000  1
  C  876  1  0.04854000  0.09198700  0.67421800  1
  C  877  1  0.05979100  0.10292300  0.65983400  1
  C  878  1  0.08847100  0.10725300  0.65878200  1
  C  880  1  0.01981800  0.09392300  0.67722100  1
  C  881  1  0.00961200  0.11410300  0.68793000  1
  C  882  1  0.98109200  0.11942600  0.68836900  1
  C  883  1  0.96261200  0.10589500  0.67798100  1
  C  884  1  0.97283700  0.08502200  0.66793900  1
  C  885  1  0.00111300  0.07911700  0.66756700  1
  C  897  1  0.87831100  0.82378000  0.92637200  1
  C  898  1  0.86612800  0.81297300  0.94039700  1
  C  899  1  0.86109400  0.78481900  0.94174700  1
  C  900  1  0.86812100  0.76677700  0.92913300  1
  C  901  1  0.87918800  0.77758600  0.91466300  1
  C  902  1  0.88361600  0.80601500  0.91337600  1
  C  904  1  0.86883300  0.73816200  0.93204000  1
  C  905  1  0.88863600  0.72704400  0.94273800  1
  C  906  1  0.89335800  0.69859100  0.94270500  1
  C  907  1  0.87966200  0.68113000  0.93182300  1
  C  908  1  0.85892500  0.69219000  0.92192400  1
  C  909  1  0.85352100  0.72037600  0.92208000  1
  C  921  1  0.68141000  0.17833500  0.42637200  1
  C  922  1  0.69359300  0.18914100  0.44039600  1
  C  923  1  0.69862500  0.21729500  0.44174700  1
  C  924  1  0.69159600  0.23533900  0.42913600  1
  C  925  1  0.68053100  0.22453000  0.41466400  1
  C  926  1  0.67610300  0.19610100  0.41337800  1
  C  928  1  0.69088400  0.26395200  0.43204400  1
  C  929  1  0.67108500  0.27506900  0.44274400  1
  C  930  1  0.66636300  0.30352300  0.44271400  1
  C  931  1  0.68005900  0.32099000  0.43183500  1
  C  932  1  0.70079000  0.30992800  0.42193100  1
  C  933  1  0.70619400  0.28174000  0.42208400  1
  C  945  1  0.68128300  0.82722500  0.58115700  1
  C  946  1  0.69302000  0.81615900  0.56707900  1
  C  947  1  0.69805200  0.78798100  0.56589100  1
  C  948  1  0.69148700  0.77021200  0.57872600  1
  C  949  1  0.68093200  0.78132100  0.59324700  1
  C  950  1  0.67647300  0.80976400  0.59435900  1
  C  952  1  0.69056100  0.74154800  0.57603200  1
  C  953  1  0.67019100  0.73027600  0.56576600  1
  C  954  1  0.66547100  0.70182400  0.56603100  1
  C  955  1  0.67977700  0.68450800  0.57672200  1
  C  956  1  0.70099100  0.69572700  0.58620700  1
  C  957  1  0.70634400  0.72391900  0.58583400  1
  C  969  1  0.87846100  0.17488900  0.08115700  1
  C  970  1  0.86672400  0.18595400  0.06707900  1
  C  971  1  0.86169200  0.21413300  0.06588900  1
  C  972  1  0.86825800  0.23190400  0.07872300  1
  C  973  1  0.87881400  0.22079500  0.09324400  1
  C  974  1  0.88327300  0.19235200  0.09435800  1
  C  976  1  0.86918300  0.26056600  0.07602800  1
  C  977  1  0.88955200  0.27183800  0.06575800  1
  C  978  1  0.89427000  0.30028800  0.06602200  1
  C  979  1  0.87996400  0.31761000  0.07671000  1
  C  980  1  0.85875600  0.30638900  0.08619900  1
  C  981  1  0.85340400  0.27819600  0.08583000  1
  C  993  1  0.60132200  0.39784400  0.83087900  1
  C  994  1  0.59012000  0.40836100  0.81650400  1
  C  995  1  0.56163200  0.41240400  0.81500300  1
  C  996  1  0.54362100  0.40600300  0.82780200  1
  C  997  1  0.55478200  0.39649300  0.84256300  1
  C  998  1  0.58352400  0.39303000  0.84397800  1
  C  1000  1  0.51472500  0.40534600  0.82510300  1
  C  1001  1  0.50298400  0.38569800  0.81459200  1
  C  1002  1  0.47418700  0.38177600  0.81464500  1
  C  1003  1  0.45694500  0.39610000  0.82539300  1
  C  1004  1  0.46872300  0.41658600  0.83513100  1
  C  1005  1  0.49721200  0.42125100  0.83491300  1
  C  1017  1  0.95841300  0.60429300  0.33086700  1
  C  1018  1  0.96961000  0.59376700  0.31649400  1
  C  1019  1  0.99809700  0.58972200  0.31499200  1
  C  1020  1  0.01610800  0.59611900  0.32779200  1
  C  1021  1  0.00494800  0.60562900  0.34255400  1
  C  1022  1  0.97620900  0.60909600  0.34397000  1
  C  1024  1  0.04500400  0.59677400  0.32509300  1
  C  1025  1  0.05674700  0.61641900  0.31458000  1
  C  1026  1  0.08554500  0.62033600  0.31463300  1
  C  1027  1  0.10279100  0.60600800  0.32537400  1
  C  1028  1  0.09100600  0.58553000  0.33511700  1
  C  1029  1  0.06251700  0.58086700  0.33490100  1
  C  1041  1  0.95617700  0.39786800  0.67721300  1
  C  1042  1  0.96750600  0.40824500  0.69158600  1
  C  1043  1  0.99601800  0.41223500  0.69300600  1
  C  1044  1  0.01390200  0.40592100  0.68012900  1
  C  1045  1  0.00259100  0.39658700  0.66536900  1
  C  1046  1  0.97383700  0.39317000  0.66403600  1
  C  1048  1  0.04281900  0.40509900  0.68273800  1
  C  1049  1  0.05457200  0.38524400  0.69310700  1
  C  1050  1  0.08335500  0.38122500  0.69296100  1
  C  1051  1  0.10057600  0.39568100  0.68226300  1
  C  1052  1  0.08878800  0.41633900  0.67265400  1
  C  1053  1  0.06031300  0.42107600  0.67295600  1
  C  1065  1  0.60355300  0.60426600  0.17722100  1
  C  1066  1  0.59222900  0.59387900  0.19159200  1
  C  1067  1  0.56371700  0.58988500  0.19301300  1
  C  1068  1  0.54583100  0.59619800  0.18013600  1
  C  1069  1  0.55714000  0.60553300  0.16537500  1
  C  1070  1  0.58589700  0.60895200  0.16404100  1
  C  1072  1  0.51691400  0.59701600  0.18274500  1
  C  1073  1  0.50516300  0.61687200  0.19311500  1
  C  1074  1  0.47637800  0.62088700  0.19297100  1
  C  1075  1  0.45915300  0.60642600  0.18228000  1
  C  1076  1  0.47094500  0.58577700  0.17266700  1
  C  1077  1  0.49942000  0.58104000  0.17296500  1
  C  1089  1  0.95459100  0.10888100  0.08534600  1
  C  1090  1  0.96905500  0.09713800  0.07237400  1
  C  1091  1  0.99785500  0.09556000  0.07263500  1
  C  1092  1  0.01303100  0.10612300  0.08572700  1
  C  1093  1  0.99871900  0.11710400  0.09912800  1
  C  1094  1  0.96964300  0.11795300  0.09884900  1
  C  1096  1  0.04208000  0.10861100  0.08430300  1
  C  1097  1  0.05393900  0.12579900  0.07242600  1
  C  1098  1  0.08278800  0.12908300  0.07197800  1
  C  1099  1  0.10007500  0.11625700  0.08332800  1
  C  1100  1  0.08806100  0.09904100  0.09497200  1
  C  1101  1  0.05943500  0.09522800  0.09542600  1
  C  1113  1  0.60514900  0.89322700  0.58534000  1
  C  1114  1  0.59068600  0.90497800  0.57237100  1
  C  1115  1  0.56188500  0.90655700  0.57263400  1
  C  1116  1  0.54671000  0.89599300  0.58572500  1
  C  1117  1  0.56102400  0.88501000  0.59912600  1
  C  1118  1  0.59010100  0.88416000  0.59884600  1
  C  1120  1  0.51766000  0.89350600  0.58430200  1
  C  1121  1  0.50580200  0.87631800  0.57242500  1
  C  1122  1  0.47695300  0.87303400  0.57197600  1
  C  1123  1  0.45966500  0.88586100  0.58332600  1
  C  1124  1  0.47167900  0.90307300  0.59497200  1
  C  1125  1  0.50030600  0.90688600  0.59542600  1
  C  1137  1  0.17220000  0.67680100  0.33700100  1
  C  1138  1  0.18670700  0.69170200  0.32521900  1
  C  1139  1  0.18879900  0.72021100  0.32624700  1
  C  1140  1  0.17614000  0.73463500  0.33895800  1
  C  1141  1  0.16244000  0.71987400  0.35126200  1
  C  1142  1  0.16095700  0.69106200  0.35022000  1
  C  1144  1  0.17384600  0.76349200  0.33780000  1
  C  1145  1  0.15746300  0.77561500  0.32560500  1
  C  1146  1  0.15463600  0.80431400  0.32517900  1
  C  1147  1  0.16730700  0.82115500  0.33678600  1
  C  1148  1  0.18361100  0.80885700  0.34880200  1
  C  1149  1  0.18679900  0.78034600  0.34931800  1
  C  1161  1  0.38752800  0.32531300  0.83700300  1
  C  1162  1  0.37302400  0.31041000  0.82522100  1
  C  1163  1  0.37093500  0.28189900  0.82624500  1
  C  1164  1  0.38359400  0.26747300  0.83895600  1
  C  1165  1  0.39729000  0.28223300  0.85126200  1
  C  1166  1  0.39877100  0.31104400  0.85022200  1
  C  1168  1  0.38588600  0.23861500  0.83779700  1
  C  1169  1  0.40226500  0.22649200  0.82560100  1
  C  1170  1  0.40509200  0.19779500  0.82517500  1
  C  1171  1  0.39242400  0.18095300  0.83678300  1
  C  1172  1  0.37612400  0.19325100  0.84879900  1
  C  1173  1  0.37293600  0.22176200  0.84931600  1
  C  1185  1  0.60637100  0.11096900  0.42218700  1
  C  1186  1  0.59256400  0.09887100  0.43529500  1
  C  1187  1  0.56382000  0.09651900  0.43531100  1
  C  1188  1  0.54799800  0.10668100  0.42237400  1
  C  1189  1  0.56164300  0.11810700  0.40886100  1
  C  1190  1  0.59069700  0.11972500  0.40885700  1
  C  1192  1  0.51891500  0.10819200  0.42404200  1
  C  1193  1  0.50674900  0.12483700  0.43608200  1
  C  1194  1  0.47781800  0.12723400  0.43672800  1
  C  1195  1  0.46073100  0.11404600  0.42542000  1
  C  1196  1  0.47304900  0.09731700  0.41364000  1
  C  1197  1  0.50176600  0.09436800  0.41299700  1
  C  1209  1  0.95335600  0.89114000  0.92219400  1
  C  1210  1  0.96715900  0.90324700  0.93530000  1
  C  1211  1  0.99590500  0.90560000  0.93531400  1
  C  1212  1  0.01172400  0.89543800  0.92237700  1
  C  1213  1  0.99808100  0.88400900  0.90886400  1
  C  1214  1  0.96902900  0.88238900  0.90886200  1
  C  1216  1  0.04080900  0.89392600  0.92404500  1
  C  1217  1  0.05297400  0.87728300  0.93608700  1
  C  1218  1  0.08190400  0.87488700  0.93673200  1
  C  1219  1  0.09899300  0.88807600  0.92542500  1
  C  1220  1  0.08667500  0.90480100  0.91364300  1
  C  1221  1  0.05795700  0.90774800  0.91300000  1
  C  1233  1  0.38898000  0.67677900  0.17115900  1
  C  1234  1  0.37438400  0.69123700  0.18309900  1
  C  1235  1  0.37178100  0.71971900  0.18226300  1
  C  1236  1  0.38404400  0.73459400  0.16960100  1
  C  1237  1  0.39788400  0.72028900  0.15716100  1
  C  1238  1  0.39986600  0.69148400  0.15800700  1
  C  1240  1  0.38566700  0.76348800  0.17088400  1
  C  1241  1  0.40169000  0.77585800  0.18315900  1
  C  1242  1  0.40393900  0.80460800  0.18365500  1
  C  1243  1  0.39104400  0.82126700  0.17204400  1
  C  1244  1  0.37505800  0.80873000  0.15996700  1
  C  1245  1  0.37242600  0.78016800  0.15938900  1
  C  1257  1  0.17075700  0.32533700  0.67115500  1
  C  1258  1  0.18534900  0.31087500  0.68309500  1
  C  1259  1  0.18795000  0.28239200  0.68226300  1
  C  1260  1  0.17568700  0.26751800  0.66960100  1
  C  1261  1  0.16184900  0.28182300  0.65715900  1
  C  1262  1  0.15987000  0.31062600  0.65800400  1
  C  1264  1  0.17406400  0.23862100  0.67088400  1
  C  1265  1  0.15804500  0.22625200  0.68316000  1
  C  1266  1  0.15579600  0.19750400  0.68365700  1
  C  1267  1  0.16868800  0.18084300  0.67204400  1
  C  1268  1  0.18467100  0.19338200  0.65996700  1
  C  1269  1  0.18730400  0.22194400  0.65938900  1
  C  1281  1  0.88710000  0.32514100  0.67092300  1
  C  1282  1  0.87478200  0.31061000  0.68366800  1
  C  1283  1  0.87304200  0.28203100  0.68318400  1
  C  1284  1  0.88403900  0.26717700  0.67010600  1
  C  1285  1  0.89534700  0.28158700  0.65685500  1
  C  1286  1  0.89629800  0.31045500  0.65733400  1
  C  1288  1  0.88733200  0.23844200  0.67164600  1
  C  1289  1  0.90505800  0.22741900  0.68355800  1
  C  1290  1  0.90890100  0.19887200  0.68433000  1
  C  1291  1  0.89615000  0.18104900  0.67326600  1
  C  1292  1  0.87854900  0.19226800  0.66150700  1
  C  1293  1  0.87419400  0.22061400  0.66071400  1
  C  1305  1  0.67264000  0.67697000  0.17091600  1
  C  1306  1  0.68495600  0.69150600  0.18366100  1
  C  1307  1  0.68669500  0.72008500  0.18317800  1
  C  1308  1  0.67569600  0.73493900  0.17010100  1
  C  1309  1  0.66438700  0.72053100  0.15685100  1
  C  1310  1  0.66343800  0.69166300  0.15733000  1
  C  1312  1  0.67240400  0.76367400  0.17164100  1
  C  1313  1  0.65467700  0.77469900  0.18355300  1
  C  1314  1  0.65083400  0.80324500  0.18432500  1
  C  1315  1  0.66358800  0.82106700  0.17325900  1
  C  1316  1  0.68118900  0.80984800  0.16150200  1
  C  1317  1  0.68554300  0.78150000  0.16070900  1
  C  1329  1  0.67122900  0.32579200  0.83712300  1
  C  1330  1  0.68386500  0.31177000  0.82428100  1
  C  1331  1  0.68613300  0.28322700  0.82452300  1
  C  1332  1  0.67529400  0.26785000  0.83743200  1
  C  1333  1  0.66362500  0.28173100  0.85077300  1
  C  1334  1  0.66217900  0.31059300  0.85055100  1
  C  1336  1  0.67267100  0.23907800  0.83565300  1
  C  1337  1  0.65554400  0.22790600  0.82348700  1
  C  1338  1  0.65229500  0.19930500  0.82250900  1
  C  1339  1  0.66501900  0.18154900  0.83362300  1
  C  1340  1  0.68206200  0.19290700  0.84561400  1
  C  1341  1  0.68587000  0.22131100  0.84659500  1
  C  1353  1  0.88849200  0.67631800  0.33712800  1
  C  1354  1  0.87585800  0.69034400  0.32428700  1
  C  1355  1  0.87359300  0.71888700  0.32452900  1
  C  1356  1  0.88443400  0.73426300  0.33743600  1
  C  1357  1  0.89610700  0.72038000  0.35077600  1
  C  1358  1  0.89754900  0.69152100  0.35055300  1
  C  1360  1  0.88705700  0.76303600  0.33565700  1
  C  1361  1  0.90418300  0.77420800  0.32349000  1
  C  1362  1  0.90743300  0.80280800  0.32251400  1
  C  1363  1  0.89471000  0.82056300  0.33362800  1
  C  1364  1  0.87766800  0.80920500  0.34561900  1
  C  1365  1  0.87385800  0.78080100  0.34660000  1
  C  1377  1  0.45961500  0.60958600  0.58813000  1
  C  1378  1  0.47467800  0.59532500  0.57630800  1
  C  1379  1  0.50343400  0.59386100  0.57710900  1
  C  1380  1  0.51801100  0.60709100  0.58956600  1
  C  1381  1  0.50314800  0.62043800  0.60196700  1
  C  1382  1  0.47407400  0.62111700  0.60121200  1
  C  1384  1  0.54686400  0.61065500  0.58784400  1
  C  1385  1  0.55754500  0.62684500  0.57513500  1
  C  1386  1  0.58624200  0.63061900  0.57391600  1
  C  1387  1  0.60455500  0.61926100  0.58526600  1
  C  1388  1  0.59365700  0.60325600  0.59785400  1
  C  1389  1  0.56513900  0.59903600  0.59913900  1
  C  1401  1  0.10011700  0.39252400  0.08812200  1
  C  1402  1  0.08506100  0.40679700  0.07630300  1
  C  1403  1  0.05630500  0.40826500  0.07710500  1
  C  1404  1  0.04172800  0.39503300  0.08956300  1
  C  1405  1  0.05658900  0.38168400  0.10196300  1
  C  1406  1  0.08566300  0.38100100  0.10120900  1
  C  1408  1  0.01287400  0.39146900  0.08783900  1
  C  1409  1  0.00219600  0.37527900  0.07512800  1
  C  1410  1  0.97350000  0.37150500  0.07390900  1
  C  1411  1  0.95518600  0.38285900  0.08525800  1
  C  1412  1  0.96608100  0.39886200  0.09784900  1
  C  1413  1  0.99459900  0.40308400  0.09913500  1
  C  1425  1  0.10126000  0.61155900  0.91960400  1
  C  1426  1  0.08686100  0.59709200  0.93162500  1
  C  1427  1  0.05814200  0.59486600  0.93109500  1
  C  1428  1  0.04289000  0.60760500  0.91873900  1
  C  1429  1  0.05707600  0.62120700  0.90616100  1
  C  1430  1  0.08614500  0.62260600  0.90663100  1
  C  1432  1  0.01396700  0.61025300  0.92067300  1
  C  1433  1  0.00300600  0.62585800  0.93355700  1
  C  1434  1  0.97422900  0.62876100  0.93495300  1
  C  1435  1  0.95608600  0.61714000  0.92360400  1
  C  1436  1  0.96725200  0.60169200  0.91085700  1
  C  1437  1  0.99585400  0.59829100  0.90941100  1
  C  1449  1  0.45847100  0.39055300  0.41961300  1
  C  1450  1  0.47286400  0.40503200  0.43163000  1
  C  1451  1  0.50158100  0.40726200  0.43109800  1
  C  1452  1  0.51683600  0.39452300  0.41874200  1
  C  1453  1  0.50265100  0.38091900  0.40616500  1
  C  1454  1  0.47358100  0.37951400  0.40663500  1
  C  1456  1  0.54575700  0.39187300  0.42067800  1
  C  1457  1  0.55671700  0.37627200  0.43356400  1
  C  1458  1  0.58549400  0.37336800  0.43496200  1
  C  1459  1  0.60363900  0.38498700  0.42361400  1
  C  1460  1  0.59247600  0.40043000  0.41086300  1
  C  1461  1  0.56387300  0.40383300  0.40941600  1
  C  1473  1  0.21363400  0.96993700  0.96547200  1
  C  1474  1  0.20370900  0.99690000  0.96683000  1
  C  1475  1  0.20397400  0.01036900  0.98171800  1
  C  1476  1  0.21425500  0.99713900  0.99553200  1
  C  1477  1  0.22414100  0.96998600  0.99443400  1
  C  1478  1  0.22371100  0.95666000  0.97933400  1
  C  1480  1  0.21351300  0.01112900  0.01039500  1
  C  1481  1  0.18973200  0.01053500  0.02022100  1
  C  1482  1  0.19020100  0.02430300  0.03516500  1
  C  1483  1  0.21376200  0.03864100  0.04035500  1
  C  1484  1  0.23724300  0.03901900  0.03041600  1
  C  1485  1  0.23712200  0.02538300  0.01556200  1
  C  1497  1  0.34609800  0.03217700  0.46547600  1
  C  1498  1  0.35602900  0.00521600  0.46683400  1
  C  1499  1  0.35576400  0.99174900  0.48172300  1
  C  1500  1  0.34548400  0.00497900  0.49553500  1
  C  1501  1  0.33559400  0.03212900  0.49443800  1
  C  1502  1  0.33602100  0.04545500  0.47933700  1
  C  1504  1  0.34622500  0.99098900  0.51039900  1
  C  1505  1  0.37000900  0.99158000  0.52022400  1
  C  1506  1  0.36954300  0.97781100  0.53516800  1
  C  1507  1  0.34598100  0.96347500  0.54036000  1
  C  1508  1  0.32249700  0.96310200  0.53042200  1
  C  1509  1  0.32261700  0.97673800  0.51556900  1
  C  1521  1  0.30856100  0.93299200  0.21457300  1
  C  1522  1  0.28132000  0.92369200  0.21654200  1
  C  1523  1  0.26894700  0.92369400  0.23178700  1
  C  1524  1  0.28358000  0.93305900  0.24535100  1
  C  1525  1  0.31100500  0.94236300  0.24363100  1
  C  1526  1  0.32320200  0.94223000  0.22818200  1
  C  1528  1  0.27069100  0.93212700  0.26058000  1
  C  1529  1  0.27285000  0.90873800  0.27052200  1
  C  1530  1  0.26033000  0.90911300  0.28587300  1
  C  1531  1  0.24578200  0.93223500  0.29137100  1
  C  1532  1  0.24380600  0.95531400  0.28129900  1
  C  1533  1  0.25615100  0.95526500  0.26603600  1
  C  1545  1  0.25116700  0.06912100  0.71457400  1
  C  1546  1  0.27840800  0.07842200  0.71654300  1
  C  1547  1  0.29078300  0.07841900  0.73178600  1
  C  1548  1  0.27615000  0.06905100  0.74535100  1
  C  1549  1  0.24872500  0.05974600  0.74363200  1
  C  1550  1  0.23652800  0.05987900  0.72818200  1
  C  1552  1  0.28904200  0.06998200  0.76058000  1
  C  1553  1  0.28688300  0.09337100  0.77052300  1
  C  1554  1  0.29940200  0.09299300  0.78587200  1
  C  1555  1  0.31394900  0.06987000  0.79137000  1
  C  1556  1  0.31592700  0.04679300  0.78129800  1
  C  1557  1  0.30358200  0.04684400  0.76603500  1
  C  1569  1  0.83846100  0.03027400  0.04295200  1
  C  1570  1  0.84771400  0.00313000  0.04126100  1
  C  1571  1  0.84727200  0.99026000  0.02619300  1
  C  1572  1  0.83750600  0.00429700  0.01253000  1
  C  1573  1  0.82824600  0.03161700  0.01396500  1
  C  1574  1  0.82880900  0.04431700  0.02924700  1
  C  1576  1  0.83838700  0.99101700  0.99745400  1
  C  1577  1  0.86201000  0.99270400  0.98754200  1
  C  1578  1  0.86170800  0.97961400  0.97239000  1
  C  1579  1  0.83845000  0.96493600  0.96707100  1
  C  1580  1  0.81512300  0.96346100  0.97709700  1
  C  1581  1  0.81509400  0.97638300  0.99217000  1
  C  1593  1  0.72127300  0.97184200  0.54294600  1
  C  1594  1  0.71201500  0.99898500  0.54125600  1
  C  1595  1  0.71245500  0.01185300  0.52618600  1
  C  1596  1  0.72222400  0.99781800  0.51252400  1
  C  1597  1  0.73148700  0.97049800  0.51396000  1
  C  1598  1  0.73092700  0.95780000  0.52924200  1
  C  1600  1  0.72134300  0.01109800  0.49744700  1
  C  1601  1  0.69771500  0.00941300  0.48753700  1
  C  1602  1  0.69801700  0.02250400  0.47238500  1
  C  1603  1  0.72127500  0.03717900  0.46706400  1
  C  1604  1  0.74460400  0.03865000  0.47708800  1
  C  1605  1  0.74463500  0.02572800  0.49216100  1
  C  1617  1  0.74757700  0.06811000  0.79246500  1
  C  1618  1  0.77497500  0.07741500  0.79154700  1
  C  1619  1  0.78901400  0.07739900  0.77681100  1
  C  1620  1  0.77589500  0.06802700  0.76273000  1
  C  1621  1  0.74832800  0.05874500  0.76339200  1
  C  1622  1  0.73444500  0.05888600  0.77834100  1
  C  1624  1  0.79042300  0.06898800  0.74803200  1
  C  1625  1  0.78932400  0.09240300  0.73805500  1
  C  1626  1  0.80336600  0.09200200  0.72316900  1
  C  1627  1  0.81837700  0.06883800  0.71818700  1
  C  1628  1  0.81930500  0.04574600  0.72829500  1
  C  1629  1  0.80544900  0.04582000  0.74310100  1
  C  1641  1  0.81215900  0.93399900  0.29246500  1
  C  1642  1  0.78476000  0.92469300  0.29154600  1
  C  1643  1  0.77071900  0.92471000  0.27681100  1
  C  1644  1  0.78383600  0.93408300  0.26273100  1
  C  1645  1  0.81140100  0.94336600  0.26339100  1
  C  1646  1  0.82528600  0.94322500  0.27834000  1
  C  1648  1  0.76930600  0.93312400  0.24803300  1
  C  1649  1  0.77040700  0.90971100  0.23805300  1
  C  1650  1  0.75636600  0.91011500  0.22316700  1
  C  1651  1  0.74135500  0.93327900  0.21818700  1
  C  1652  1  0.74042000  0.95636800  0.22829700  1
  C  1653  1  0.75427700  0.95629100  0.24310500  1
  C  1665  1  0.71611900  0.46915500  0.46570200  1
  C  1666  1  0.70574900  0.49598100  0.46682500  1
  C  1667  1  0.70583500  0.50982500  0.48159400  1
  C  1668  1  0.71640700  0.49712700  0.49550700  1
  C  1669  1  0.72676100  0.47012600  0.49463600  1
  C  1670  1  0.72646900  0.45640000  0.47966300  1
  C  1672  1  0.71572100  0.51155100  0.51022500  1
  C  1673  1  0.69185300  0.51160200  0.51998600  1
  C  1674  1  0.69246100  0.52567100  0.53483400  1
  C  1675  1  0.71626100  0.53964600  0.53999600  1
  C  1676  1  0.73980200  0.53942500  0.53010200  1
  C  1677  1  0.73954700  0.52548300  0.51535300  1
  C  1689  1  0.84361600  0.53296700  0.96570800  1
  C  1690  1  0.85399300  0.50614500  0.96683200  1
  C  1691  1  0.85390700  0.49230300  0.98160300  1
  C  1692  1  0.84333300  0.50500100  0.99551400  1
  C  1693  1  0.83297400  0.53200200  0.99464200  1
  C  1694  1  0.83326400  0.54572400  0.97966800  1
  C  1696  1  0.84401700  0.49057900  0.01023300  1
  C  1697  1  0.86788900  0.49052200  0.01999200  1
  C  1698  1  0.86728100  0.47645300  0.03483800  1
  C  1699  1  0.84348100  0.46248200  0.04000300  1
  C  1700  1  0.81993800  0.46270900  0.03011100  1
  C  1701  1  0.82019000  0.47665300  0.01536200  1
  C  1713  1  0.81064300  0.44019500  0.71496400  1
  C  1714  1  0.78305800  0.43159500  0.71632000  1
  C  1715  1  0.76973700  0.43175000  0.73128800  1
  C  1716  1  0.78376400  0.44052300  0.74520300  1
  C  1717  1  0.81153500  0.44907000  0.74411200  1
  C  1718  1  0.82467600  0.44882800  0.72892600  1
  C  1720  1  0.76993200  0.43961400  0.76015100  1
  C  1721  1  0.77151000  0.41624300  0.77014400  1
  C  1722  1  0.75803600  0.41661600  0.78521300  1
  C  1723  1  0.74310300  0.43971400  0.79039200  1
  C  1724  1  0.74170600  0.46277200  0.78027200  1
  C  1725  1  0.75497700  0.46271300  0.76527400  1
  C  1737  1  0.74908400  0.56191900  0.21496600  1
  C  1738  1  0.77667000  0.57051900  0.21632100  1
  C  1739  1  0.78999200  0.57036400  0.23128800  1
  C  1740  1  0.77596900  0.56158600  0.24520300  1
  C  1741  1  0.74819900  0.55303900  0.24411300  1
  C  1742  1  0.73505500  0.55328200  0.22892800  1
  C  1744  1  0.78980300  0.56249600  0.26015000  1
  C  1745  1  0.78822400  0.58586500  0.27014500  1
  C  1746  1  0.80170000  0.58548900  0.28521300  1
  C  1747  1  0.81663300  0.56239000  0.29039100  1
  C  1748  1  0.81803600  0.53933800  0.28026900  1
  C  1749  1  0.80476200  0.53939700  0.26527100  1
  C  1761  1  0.34590100  0.53187000  0.54251400  1
  C  1762  1  0.35499800  0.50459900  0.54128000  1
  C  1763  1  0.35492600  0.49114800  0.52638200  1
  C  1764  1  0.34572600  0.50472600  0.51242700  1
  C  1765  1  0.33672600  0.53219200  0.51339500  1
  C  1766  1  0.33692100  0.54548200  0.52850600  1
  C  1768  1  0.34635300  0.49066100  0.49758600  1
  C  1769  1  0.36981400  0.49168300  0.48751200  1
  C  1770  1  0.36909100  0.47801200  0.47253700  1
  C  1771  1  0.34555800  0.46343300  0.46753600  1
  C  1772  1  0.32242800  0.46257600  0.47774200  1
  C  1773  1  0.32282200  0.47606200  0.49264100  1
  C  1785  1  0.21383200  0.47023800  0.04251000  1
  C  1786  1  0.20472900  0.49750500  0.04127300  1
  C  1787  1  0.20479900  0.51095500  0.02637500  1
  C  1788  1  0.21400200  0.49737600  0.01242100  1
  C  1789  1  0.22300900  0.46991200  0.01339000  1
  C  1790  1  0.22281600  0.45662400  0.02850200  1
  C  1792  1  0.21337600  0.51144100  0.99758000  1
  C  1793  1  0.18991100  0.51042500  0.98750800  1
  C  1794  1  0.19063200  0.52409600  0.97253400  1
  C  1795  1  0.21416600  0.53867300  0.96753100  1
  C  1796  1  0.23730100  0.53952300  0.97773500  1
  C  1797  1  0.23690800  0.52603600  0.99263200  1
  C  1809  1  0.24824700  0.56032200  0.29260000  1
  C  1810  1  0.27571700  0.56922400  0.29117400  1
  C  1811  1  0.28900700  0.56887700  0.27620400  1
  C  1812  1  0.27506200  0.55957300  0.26238000  1
  C  1813  1  0.24743300  0.55063400  0.26355300  1
  C  1814  1  0.23431600  0.55108300  0.27873900  1
  C  1816  1  0.28872700  0.56070700  0.24740200  1
  C  1817  1  0.28712700  0.58430400  0.23759700  1
  C  1818  1  0.30078800  0.58434900  0.22259000  1
  C  1819  1  0.31594100  0.56146000  0.21731800  1
  C  1820  1  0.31728400  0.53814000  0.22722600  1
  C  1821  1  0.30380400  0.53777100  0.24215500  1
  C  1833  1  0.31148600  0.44179000  0.79260000  1
  C  1834  1  0.28401500  0.43288600  0.79117400  1
  C  1835  1  0.27072400  0.43323500  0.77620600  1
  C  1836  1  0.28466400  0.44254300  0.76238200  1
  C  1837  1  0.31229300  0.45148100  0.76355400  1
  C  1838  1  0.32541200  0.45103300  0.77873900  1
  C  1840  1  0.27099700  0.44140900  0.74740400  1
  C  1841  1  0.27259700  0.41781400  0.73759700  1
  C  1842  1  0.25893600  0.41777100  0.72259100  1
  C  1843  1  0.24378500  0.44066200  0.71732000  1
  C  1844  1  0.24243600  0.46397800  0.72723100  1
  C  1845  1  0.25591600  0.46434500  0.74216000  1
  C  1857  1  0.31063300  0.96370400  0.15816600  1
  C  1858  1  0.30937000  0.99244900  0.15892500  1
  C  1859  1  0.29688000  0.00744600  0.14653800  1
  C  1860  1  0.28532000  0.99398300  0.13314500  1
  C  1861  1  0.28682500  0.96514400  0.13202900  1
  C  1862  1  0.29960100  0.95033800  0.14457400  1
  C  1864  1  0.27175700  0.00962300  0.12123100  1
  C  1865  1  0.28660300  0.02492300  0.10965900  1
  C  1866  1  0.27194000  0.03899600  0.09752100  1
  C  1867  1  0.24297000  0.03814100  0.09684700  1
  C  1868  1  0.22849300  0.02319800  0.10860400  1
  C  1869  1  0.24276200  0.00900500  0.12064500  1
  C  1881  1  0.24909500  0.03840500  0.65816800  1
  C  1882  1  0.25036200  0.00965900  0.65893000  1
  C  1883  1  0.26285500  0.99466200  0.64654200  1
  C  1884  1  0.27441300  0.00812400  0.63314900  1
  C  1885  1  0.27290700  0.03696300  0.63203200  1
  C  1886  1  0.26012700  0.05176900  0.64457400  1
  C  1888  1  0.28798000  0.99248400  0.62123600  1
  C  1889  1  0.27313500  0.97717900  0.60966600  1
  C  1890  1  0.28779900  0.96310600  0.59752800  1
  C  1891  1  0.31677100  0.96396500  0.59685400  1
  C  1892  1  0.33124500  0.97891300  0.60860800  1
  C  1893  1  0.31697400  0.99310600  0.62065000  1
  C  1905  1  0.31796800  0.03655300  0.40871300  1
  C  1906  1  0.28903700  0.03457800  0.40879600  1
  C  1907  1  0.27514600  0.02140200  0.39620100  1
  C  1908  1  0.28991900  0.00985500  0.38327500  1
  C  1909  1  0.31895800  0.01215300  0.38281400  1
  C  1910  1  0.33264200  0.02562600  0.39555100  1
  C  1912  1  0.27539900  0.99509300  0.37135100  1
  C  1913  1  0.25946200  0.00847600  0.35945400  1
  C  1914  1  0.24615200  0.99263100  0.34754400  1
  C  1915  1  0.24833700  0.96390700  0.34742900  1
  C  1916  1  0.26389800  0.95087500  0.35949100  1
  C  1917  1  0.27738100  0.96633500  0.37129700  1
  C  1929  1  0.24175800  0.96555200  0.90870800  1
  C  1930  1  0.27069100  0.96752600  0.90879200  1
  C  1931  1  0.28458200  0.98070200  0.89619900  1
  C  1932  1  0.26981200  0.99224900  0.88327100  1
  C  1933  1  0.24077200  0.98995400  0.88280900  1
  C  1934  1  0.22708600  0.97648100  0.89554600  1
  C  1936  1  0.28433400  0.00701100  0.87134800  1
  C  1937  1  0.30027300  0.99363000  0.85945100  1
  C  1938  1  0.31358300  0.00947500  0.84754200  1
  C  1939  1  0.31139700  0.03819900  0.84742700  1
  C  1940  1  0.29583600  0.05123000  0.85948900  1
  C  1941  1  0.28235200  0.03576900  0.87129500  1
  C  1953  1  0.74018200  0.03842100  0.84880500  1
  C  1954  1  0.74149300  0.00966000  0.84844400  1
  C  1955  1  0.75383900  0.99519700  0.86109500  1
  C  1956  1  0.76519600  0.00923900  0.87433800  1
  C  1957  1  0.76355100  0.03810400  0.87507600  1
  C  1958  1  0.75090000  0.05237000  0.86227700  1
  C  1960  1  0.77917600  0.99416500  0.88632700  1
  C  1961  1  0.76478300  0.97889200  0.89810000  1
  C  1962  1  0.77990900  0.96519700  0.91019000  1
  C  1963  1  0.80888300  0.96641200  0.91061800  1
  C  1964  1  0.82289700  0.98132800  0.89866000  1
  C  1965  1  0.80817000  0.99514000  0.88666000  1
  C  1977  1  0.81955600  0.96369900  0.34880100  1
  C  1978  1  0.81823700  0.99246100  0.34843500  1
  C  1979  1  0.80588800  0.00692400  0.36108500  1
  C  1980  1  0.79453300  0.99288400  0.37433100  1
  C  1981  1  0.79618100  0.96402000  0.37507000  1
  C  1982  1  0.80883600  0.94975300  0.36227400  1
  C  1984  1  0.78055400  0.00795900  0.38631900  1
  C  1985  1  0.79494400  0.02323400  0.39809100  1
  C  1986  1  0.77981800  0.03692800  0.41018200  1
  C  1987  1  0.75084200  0.03571000  0.41061000  1
  C  1988  1  0.73683000  0.02079200  0.39865200  1
  C  1989  1  0.75155700  0.00698100  0.38665300  1
  C  2001  1  0.74844500  0.96846900  0.59992000  1
  C  2002  1  0.77742100  0.96956800  0.59997200  1
  C  2003  1  0.79151600  0.98232500  0.61263300  1
  C  2004  1  0.77689600  0.99431300  0.62547600  1
  C  2005  1  0.74779400  0.99294300  0.62578800  1
  C  2006  1  0.73389900  0.97988600  0.61298500  1
  C  2008  1  0.79168500  0.00838900  0.63755600  1
  C  2009  1  0.80650200  0.99425800  0.64964300  1
  C  2010  1  0.81994200  0.00945200  0.66179200  1
  C  2011  1  0.81892500  0.03824100  0.66197800  1
  C  2012  1  0.80446500  0.05199400  0.64972100  1
  C  2013  1  0.79090400  0.03719700  0.63765600  1
  C  2025  1  0.81129400  0.03365400  0.09992700  1
  C  2026  1  0.78231800  0.03255500  0.09997800  1
  C  2027  1  0.76822100  0.01979800  0.11263900  1
  C  2028  1  0.78284000  0.00781000  0.12548200  1
  C  2029  1  0.81194300  0.00917900  0.12579600  1
  C  2030  1  0.82583900  0.02223600  0.11299200  1
  C  2032  1  0.76805100  0.99373400  0.13756200  1
  C  2033  1  0.75323300  0.00786300  0.14965000  1
  C  2034  1  0.73979200  0.99266900  0.16179700  1
  C  2035  1  0.74080900  0.96388100  0.16198200  1
  C  2036  1  0.75526900  0.95012800  0.14972500  1
  C  2037  1  0.76883200  0.96492500  0.13766200  1
  C  2049  1  0.81531400  0.46918900  0.65832500  1
  C  2050  1  0.81416000  0.49796600  0.65860500  1
  C  2051  1  0.80159100  0.51239700  0.64601300  1
  C  2052  1  0.78984800  0.49833300  0.63289200  1
  C  2053  1  0.79130000  0.46945000  0.63224000  1
  C  2054  1  0.80414800  0.45521600  0.64498400  1
  C  2056  1  0.77596900  0.51341300  0.62085200  1
  C  2057  1  0.79048700  0.52850200  0.60904300  1
  C  2058  1  0.77550700  0.54204100  0.59683000  1
  C  2059  1  0.74653900  0.54087600  0.59631700  1
  C  2060  1  0.73237900  0.52617000  0.60830300  1
  C  2061  1  0.74696900  0.51249900  0.62042200  1
  C  2073  1  0.74441100  0.53291600  0.15833000  1
  C  2074  1  0.74557200  0.50414200  0.15861300  1
  C  2075  1  0.75814700  0.48970800  0.14602200  1
  C  2076  1  0.76988900  0.50377100  0.13290100  1
  C  2077  1  0.76843300  0.53265500  0.13224600  1
  C  2078  1  0.75558100  0.54688900  0.14498900  1
  C  2080  1  0.78377000  0.48869000  0.12086100  1
  C  2081  1  0.76925300  0.47360000  0.10905400  1
  C  2082  1  0.78423500  0.46006300  0.09683900  1
  C  2083  1  0.81320400  0.46123000  0.09632600  1
  C  2084  1  0.82736100  0.47594100  0.10831100  1
  C  2085  1  0.81276900  0.48961000  0.12043000  1
  C  2097  1  0.81485600  0.53894000  0.90908400  1
  C  2098  1  0.78592300  0.53702700  0.90923200  1
  C  2099  1  0.77188800  0.52451400  0.89646100  1
  C  2100  1  0.78652700  0.51356800  0.88330500  1
  C  2101  1  0.81557100  0.51575300  0.88280300  1
  C  2102  1  0.82940000  0.52858400  0.89571600  1
  C  2104  1  0.77184900  0.49954200  0.87115200  1
  C  2105  1  0.75646400  0.51368300  0.85931600  1
  C  2106  1  0.74296500  0.49854100  0.84716200  1
  C  2107  1  0.74445000  0.46977900  0.84673700  1
  C  2108  1  0.75952100  0.45601200  0.85873500  1
  C  2109  1  0.77316600  0.47076000  0.87078900  1
  C  2121  1  0.74487100  0.46316600  0.40907600  1
  C  2122  1  0.77380400  0.46507700  0.40922400  1
  C  2123  1  0.78783900  0.47758700  0.39645300  1
  C  2124  1  0.77320200  0.48853500  0.38329700  1
  C  2125  1  0.74415900  0.48635500  0.38279400  1
  C  2126  1  0.73032700  0.47352400  0.39570700  1
  C  2128  1  0.78788100  0.50256100  0.37114500  1
  C  2129  1  0.80326900  0.48842100  0.35930900  1
  C  2130  1  0.81677000  0.50356300  0.34715600  1
  C  2131  1  0.81528500  0.53232700  0.34673200  1
  C  2132  1  0.80021300  0.54609400  0.35872900  1
  C  2133  1  0.78656600  0.53134400  0.37078200  1
  C  2145  1  0.24326600  0.53392200  0.34963000  1
  C  2146  1  0.24427000  0.50514000  0.34976000  1
  C  2147  1  0.25709500  0.49117500  0.36244200  1
  C  2148  1  0.26924300  0.50571500  0.37525400  1
  C  2149  1  0.26790200  0.53462600  0.37551000  1
  C  2150  1  0.25477800  0.54839500  0.36268000  1
  C  2152  1  0.28360000  0.49103600  0.38728100  1
  C  2153  1  0.26959200  0.47571700  0.39919800  1
  C  2154  1  0.28506900  0.46224200  0.41122300  1
  C  2155  1  0.31403900  0.46366300  0.41143800  1
  C  2156  1  0.32768400  0.47860900  0.39935100  1
  C  2157  1  0.31259900  0.49222500  0.38742000  1
  C  2169  1  0.31647100  0.46820400  0.84962600  1
  C  2170  1  0.31546000  0.49698600  0.84975200  1
  C  2171  1  0.30262900  0.51095100  0.86243400  1
  C  2172  1  0.29048500  0.49641100  0.87524700  1
  C  2173  1  0.29182900  0.46750000  0.87550500  1
  C  2174  1  0.30495600  0.45373100  0.86267600  1
  C  2176  1  0.27612600  0.51109000  0.88727300  1
  C  2177  1  0.29013200  0.52641100  0.89918900  1
  C  2178  1  0.27465500  0.53988400  0.91121400  1
  C  2179  1  0.24568500  0.53846100  0.91143000  1
  C  2180  1  0.23204200  0.52351100  0.89934300  1
  C  2181  1  0.24712700  0.50989900  0.88741200  1
  C  2193  1  0.24416100  0.46523600  0.09891200  1
  C  2194  1  0.27312100  0.46654000  0.09841700  1
  C  2195  1  0.28786000  0.47903000  0.11092200  1
  C  2196  1  0.27392000  0.49055900  0.12416400  1
  C  2197  1  0.24486000  0.48895800  0.12503100  1
  C  2198  1  0.23031700  0.47618200  0.11237300  1
  C  2200  1  0.28930400  0.50429900  0.13613400  1
  C  2201  1  0.30468500  0.48982400  0.14783200  1
  C  2202  1  0.31843500  0.50464000  0.16002600  1
  C  2203  1  0.31716100  0.53340400  0.16065500  1
  C  2204  1  0.30218500  0.54751300  0.14875500  1
  C  2205  1  0.28833300  0.53309200  0.13664300  1
  C  2217  1  0.31557900  0.53688400  0.59891900  1
  C  2218  1  0.28662000  0.53558000  0.59842400  1
  C  2219  1  0.27187800  0.52309200  0.61092900  1
  C  2220  1  0.28581900  0.51156500  0.62417200  1
  C  2221  1  0.31487900  0.51316400  0.62504000  1
  C  2222  1  0.32942400  0.52593800  0.61238000  1
  C  2224  1  0.27043400  0.49782500  0.63614200  1
  C  2225  1  0.25505200  0.51230200  0.64783900  1
  C  2226  1  0.24130000  0.49748600  0.66003300  1
  C  2227  1  0.24257100  0.46872200  0.66066100  1
  C  2228  1  0.25754900  0.45461100  0.64876200  1
  C  2229  1  0.27140600  0.46903400  0.63665000  1
  N  723  1  0.16621100  0.24477600  0.10783400  1
  N  724  1  0.14788300  0.26077000  0.05759600  1
  N  747  1  0.39353600  0.75733600  0.60783200  1
  N  748  1  0.41186800  0.74134800  0.55759600  1
  N  771  1  0.03954300  0.89012200  0.36023700  1
  N  772  1  0.02614500  0.87255900  0.30980600  1
  N  795  1  0.52018600  0.11198400  0.86023300  1
  N  796  1  0.53358700  0.12955100  0.80979900  1
  N  819  1  0.39363200  0.24088800  0.39956800  1
  N  820  1  0.41200700  0.25767600  0.44955800  1
  N  843  1  0.16608100  0.76122600  0.89957200  1
  N  844  1  0.14770700  0.74444000  0.94956000  1
  N  867  1  0.51759600  0.89058500  0.14726500  1
  N  868  1  0.53169300  0.87210800  0.19722600  1
  N  891  1  0.04213600  0.11152300  0.64726800  1
  N  892  1  0.02804300  0.13000200  0.69723000  1
  N  915  1  0.88751700  0.75980000  0.90214000  1
  N  916  1  0.90497000  0.74453400  0.95237800  1
  N  939  1  0.67220000  0.24231800  0.40214300  1
  N  940  1  0.65474900  0.25757600  0.45238100  1
  N  963  1  0.67305100  0.76379400  0.60599400  1
  N  964  1  0.65341200  0.74762900  0.55630200  1
  N  987  1  0.88669900  0.23832400  0.10598900  1
  N  988  1  0.90633000  0.25448300  0.05629600  1
  N  1011  1  0.53710100  0.38882100  0.85532700  1
  N  1012  1  0.52018400  0.36888000  0.80506200  1
  N  1035  1  0.02263100  0.61329400  0.35531900  1
  N  1036  1  0.03954700  0.63324400  0.30505400  1
  N  1059  1  0.02014200  0.38897400  0.65253000  1
  N  1060  1  0.03738400  0.36836800  0.70260900  1
  N  1083  1  0.53958700  0.61313700  0.15253700  1
  N  1084  1  0.52235100  0.63375200  0.20261500  1
  N  1107  1  0.01361200  0.12865800  0.11208000  1
  N  1108  1  0.03686000  0.14032000  0.06159800  1
  N  1131  1  0.54613100  0.87345700  0.61207800  1
  N  1132  1  0.52288100  0.86179900  0.56159500  1
  N  1155  1  0.14883500  0.73420600  0.36372200  1
  N  1156  1  0.14344900  0.75892100  0.31436200  1
  N  1179  1  0.41089400  0.26789900  0.86372200  1
  N  1180  1  0.41627800  0.24318700  0.81435900  1
  N  1203  1  0.54607900  0.12928800  0.39606600  1
  N  1204  1  0.52357300  0.13979200  0.44684300  1
  N  1227  1  0.01364400  0.87283000  0.89606900  1
  N  1228  1  0.03615000  0.86232900  0.94684700  1
  N  1251  1  0.41110800  0.73507500  0.14474400  1
  N  1252  1  0.41599800  0.75937600  0.19438100  1
  N  1275  1  0.14862600  0.26703600  0.64474300  1
  N  1276  1  0.14373700  0.24273400  0.69438300  1
  N  1299  1  0.90728900  0.26696900  0.64393100  1
  N  1300  1  0.91944000  0.24500000  0.69415700  1
  N  1323  1  0.65244100  0.73514700  0.14392800  1
  N  1324  1  0.64029500  0.75712000  0.19415200  1
  N  1347  1  0.65183900  0.26659200  0.86353600  1
  N  1348  1  0.64107000  0.24537500  0.81286700  1
  N  1371  1  0.90789700  0.73552200  0.36353700  1
  N  1372  1  0.91865800  0.75673900  0.31287000  1
  N  1395  1  0.51757600  0.63457400  0.61418400  1
  N  1396  1  0.53947200  0.63970000  0.56412000  1
  N  1419  1  0.04216100  0.36755200  0.11418200  1
  N  1420  1  0.02027000  0.36242800  0.06411300  1
  N  1443  1  0.04197000  0.63485600  0.89403200  1
  N  1444  1  0.02085100  0.63909600  0.94454100  1
  N  1467  1  0.51775900  0.36727200  0.39403500  1
  N  1468  1  0.53887000  0.36303600  0.44454800  1
  N  1491  1  0.23395700  0.95673900  0.00842700  1
  N  1492  1  0.16622400  0.99598000  0.01501600  1
  N  1515  1  0.32577600  0.04537500  0.50843000  1
  N  1516  1  0.39351700  0.00613100  0.51501700  1
  N  1539  1  0.32561500  0.95141100  0.25735200  1
  N  1540  1  0.28761400  0.88568100  0.26498800  1
  N  1563  1  0.23411700  0.05069400  0.75735300  1
  N  1564  1  0.27212100  0.11642800  0.76498900  1
  N  1587  1  0.81890900  0.04564300  0.00012400  1
  N  1588  1  0.88522900  0.00755600  0.99289900  1
  N  1611  1  0.74082700  0.95647400  0.50011900  1
  N  1612  1  0.67449700  0.99456400  0.49289700  1
  N  1635  1  0.73526300  0.04972700  0.74914100  1
  N  1636  1  0.77403800  0.11547300  0.74306100  1
  N  1659  1  0.82446700  0.95238600  0.24914000  1
  N  1660  1  0.78569500  0.88664200  0.24305800  1
  N  1683  1  0.73688300  0.45740300  0.50872400  1
  N  1684  1  0.66814600  0.49731500  0.51483700  1
  N  1707  1  0.82285000  0.54472500  0.00872800  1
  N  1708  1  0.89159800  0.50480500  0.01484100  1
  N  1731  1  0.82552500  0.45750700  0.75818300  1
  N  1732  1  0.78663400  0.39319100  0.76494200  1
  N  1755  1  0.73421100  0.54459800  0.25818500  1
  N  1756  1  0.77309800  0.60891700  0.26494500  1
  N  1779  1  0.32785400  0.54572900  0.49928100  1
  N  1780  1  0.39327300  0.50650000  0.49252900  1
  N  1803  1  0.23188200  0.45637700  0.99927700  1
  N  1804  1  0.16645100  0.49561200  0.99252800  1
  N  1827  1  0.23351300  0.54175300  0.24955300  1
  N  1828  1  0.27187400  0.60718500  0.24293300  1
  N  1851  1  0.32620900  0.46036900  0.74955300  1
  N  1852  1  0.28785400  0.39493500  0.74293200  1
  N  1875  1  0.27565500  0.95174400  0.11843100  1
  N  1876  1  0.31567400  0.02520400  0.11019500  1
  N  1899  1  0.28407500  0.05036100  0.61843300  1
  N  1900  1  0.24406500  0.97689300  0.61020200  1
  N  1923  1  0.33368200  0.00091100  0.36970300  1
  N  1924  1  0.25768900  0.03730600  0.35950000  1
  N  1947  1  0.22605100  0.00119800  0.86969800  1
  N  1948  1  0.30204600  0.96479900  0.85949700  1
  N  1971  1  0.77463800  0.05206900  0.88849900  1
  N  1972  1  0.73571000  0.97821900  0.89778100  1
  N  1995  1  0.78509500  0.95005700  0.38849400  1
  N  1996  1  0.82401500  0.02390900  0.39777100  1
  N  2019  1  0.73322700  0.00461100  0.63882900  1
  N  2020  1  0.80696400  0.96537800  0.64956900  1
  N  2043  1  0.82650800  0.99751000  0.13883600  1
  N  2044  1  0.75277100  0.03674500  0.14957600  1
  N  2067  1  0.77994000  0.45542900  0.61891700  1
  N  2068  1  0.81956000  0.52910800  0.60943800  1
  N  2091  1  0.77979600  0.54667500  0.11892200  1
  N  2092  1  0.74018000  0.47299000  0.10944700  1
  N  2115  1  0.83013800  0.50505200  0.86947800  1
  N  2116  1  0.75542900  0.54254200  0.85966800  1
  N  2139  1  0.72959200  0.49705800  0.36947200  1
  N  2140  1  0.80430400  0.45956100  0.35966100  1
  N  2163  1  0.27971000  0.54913700  0.38851500  1
  N  2164  1  0.24052400  0.47477000  0.39908500  1
  N  2187  1  0.28002200  0.45299100  0.88851100  1
  N  2188  1  0.31920300  0.52736200  0.89907500  1
  N  2211  1  0.23097400  0.50011300  0.13847600  1
  N  2212  1  0.30530500  0.46095500  0.14738000  1
  N  2235  1  0.32876400  0.50200900  0.63848400  1
  N  2236  1  0.25443100  0.54116900  0.64738700  1
  O  8  1  0.24552100  0.01699500  0.06544000  1
  O  15  1  0.12090200  0.16952600  0.08682100  1
  O  17  1  0.18198900  0.08554100  0.04689500  1
  O  18  1  0.13876100  0.07347900  0.07887400  1
  O  30  1  0.31422000  0.98511600  0.56544700  1
  O  37  1  0.43884100  0.83258800  0.58682000  1
  O  39  1  0.37775300  0.91657300  0.54689800  1
  O  40  1  0.42097900  0.92863600  0.57887600  1
  O  52  1  0.26855700  0.96493800  0.31569100  1
  O  59  1  0.11436500  0.84344600  0.34006100  1
  O  61  1  0.19977500  0.89987100  0.29929400  1
  O  62  1  0.21148600  0.85797000  0.33175300  1
  O  74  1  0.29117800  0.03716900  0.81568600  1
  O  81  1  0.44536900  0.15866500  0.84005000  1
  O  83  1  0.35995900  0.10223300  0.79929000  1
  O  84  1  0.34824400  0.14413200  0.83175300  1
  O  96  1  0.31438400  0.01303300  0.43953900  1
  O  103  1  0.43921300  0.16700000  0.42185900  1
  O  105  1  0.37968500  0.07854000  0.46018100  1
  O  106  1  0.42256500  0.07071500  0.42963100  1
  O  118  1  0.24534600  0.98907700  0.93953300  1
  O  125  1  0.12050500  0.83511800  0.92186300  1
  O  127  1  0.18004200  0.92357800  0.96018000  1
  O  128  1  0.13716200  0.93140300  0.92963200  1
  O  140  1  0.28799600  0.96556800  0.18937700  1
  O  147  1  0.44382000  0.84389100  0.16869500  1
  O  149  1  0.35448300  0.89934000  0.20786600  1
  O  150  1  0.34656400  0.85787600  0.17671600  1
  O  162  1  0.27173200  0.03654400  0.68937900  1
  O  169  1  0.11590700  0.15822300  0.66870100  1
  O  171  1  0.20524600  0.10277100  0.70786700  1
  O  172  1  0.21316600  0.14423100  0.67671500  1
  O  184  1  0.80602000  0.98662700  0.94226500  1
  O  191  1  0.93450000  0.83703100  0.92344800  1
  O  193  1  0.87134100  0.91917200  0.95999800  1
  O  194  1  0.91356400  0.93304300  0.92456100  1
  O  206  1  0.75370600  0.01549200  0.44225700  1
  O  213  1  0.62522100  0.16508000  0.42344500  1
  O  215  1  0.68838200  0.08294500  0.45999300  1
  O  216  1  0.64616800  0.06906700  0.42455500  1
  O  228  1  0.79711100  0.03648800  0.69330400  1
  O  235  1  0.94960400  0.16032900  0.66987600  1
  O  237  1  0.86492500  0.10118200  0.71147400  1
  O  238  1  0.85311800  0.14253300  0.67797200  1
  O  250  1  0.76261800  0.96562900  0.19331400  1
  O  257  1  0.61013800  0.84178400  0.16986700  1
  O  259  1  0.69480500  0.90093500  0.21147400  1
  O  260  1  0.70661500  0.85958800  0.17797500  1
  O  272  1  0.75297500  0.99115000  0.56890000  1
  O  279  1  0.62488400  0.83948300  0.58374300  1
  O  281  1  0.68668900  0.92638200  0.54852500  1
  O  282  1  0.64417100  0.93583700  0.58281200  1
  O  294  1  0.80676100  0.01097100  0.06890800  1
  O  301  1  0.93486000  0.16262800  0.08374400  1
  O  303  1  0.87304800  0.07573200  0.04852900  1
  O  304  1  0.91556200  0.06627300  0.08281600  1
  O  316  1  0.76528000  0.03551000  0.81834200  1
  O  323  1  0.61162900  0.16059500  0.83654700  1
  O  325  1  0.70140200  0.10219900  0.79747500  1
  O  326  1  0.70841700  0.14316700  0.82962400  1
  O  338  1  0.79445700  0.96660400  0.31833600  1
  O  345  1  0.94809800  0.84151300  0.33655700  1
  O  347  1  0.85833500  0.89991100  0.29747600  1
  O  348  1  0.85131500  0.85894900  0.32962100  1
  O  360  1  0.74826700  0.51855800  0.56516900  1
  O  367  1  0.62556600  0.67250700  0.58640000  1
  O  369  1  0.68437400  0.58648500  0.54628600  1
  O  370  1  0.64300000  0.57604700  0.58141400  1
  O  382  1  0.81147500  0.48356000  0.06518100  1
  O  389  1  0.93418000  0.32960900  0.08638700  1
  O  391  1  0.87536500  0.41563700  0.04628700  1
  O  392  1  0.91673900  0.42607300  0.08141700  1
  O  404  1  0.76469500  0.47241600  0.81505500  1
  O  411  1  0.61630400  0.34278600  0.83509900  1
  O  413  1  0.69732100  0.40671900  0.79765200  1
  O  414  1  0.71232800  0.36632800  0.83417300  1
  O  426  1  0.79504700  0.52969100  0.31504500  1
  O  433  1  0.94342700  0.65933400  0.33509400  1
  O  435  1  0.86241700  0.59538900  0.29764900  1
  O  436  1  0.84740000  0.63576900  0.33417700  1
  O  448  1  0.81199900  0.51416800  0.93960900  1
  O  455  1  0.93432200  0.67006900  0.92278600  1
  O  457  1  0.87672500  0.57965500  0.96081900  1
  O  458  1  0.91819600  0.57328700  0.92693700  1
  O  470  1  0.74773500  0.48794600  0.43959700  1
  O  477  1  0.62539700  0.33205200  0.42279900  1
  O  479  1  0.68300800  0.42246700  0.46081900  1
  O  480  1  0.64153400  0.42883500  0.42693600  1
  O  492  1  0.79213200  0.47294500  0.68930400  1
  O  499  1  0.94178600  0.34261100  0.67339600  1
  O  501  1  0.85601200  0.40540300  0.70916100  1
  O  502  1  0.84554100  0.36525700  0.67379600  1
  O  514  1  0.76759100  0.52916500  0.18931100  1
  O  521  1  0.61794500  0.65950900  0.17339600  1
  O  523  1  0.70371300  0.59671000  0.20916300  1
  O  524  1  0.71419500  0.63684700  0.17379000  1
  O  536  1  0.31232800  0.48458400  0.44293500  1
  O  543  1  0.44086200  0.33568800  0.42134200  1
  O  545  1  0.37844300  0.41770800  0.46038600  1
  O  546  1  0.41758600  0.43136200  0.42238600  1
  O  558  1  0.24739600  0.51753000  0.94292600  1
  O  565  1  0.11886200  0.66642400  0.92134300  1
  O  567  1  0.18127900  0.58440000  0.96038400  1
  O  568  1  0.14214700  0.57074700  0.92237900  1
  O  580  1  0.29560400  0.52955300  0.19195600  1
  O  587  1  0.44427400  0.66025000  0.17389500  1
  O  589  1  0.36153400  0.59516200  0.21118800  1
  O  590  1  0.34833700  0.63568600  0.17328900  1
  O  602  1  0.26412000  0.47256700  0.69196700  1
  O  609  1  0.11546500  0.34186400  0.67388400  1
  O  611  1  0.19818900  0.40695800  0.71118800  1
  O  612  1  0.21140000  0.36643800  0.67329400  1
  O  624  1  0.24697900  0.48876000  0.06804400  1
  O  631  1  0.11845500  0.33806800  0.08564000  1
  O  633  1  0.17940700  0.42481500  0.04831700  1
  O  634  1  0.14029300  0.43406300  0.08549100  1
  O  646  1  0.31275900  0.51335200  0.56805400  1
  O  653  1  0.44128300  0.66404400  0.58563900  1
  O  655  1  0.38033000  0.57729100  0.54831700  1
  O  656  1  0.41943700  0.56804700  0.58549800  1
  O  668  1  0.26659300  0.52871800  0.31878700  1
  O  675  1  0.11716000  0.65994200  0.33370500  1
  O  677  1  0.20319600  0.59552300  0.29771400  1
  O  678  1  0.21323600  0.63606700  0.33495500  1
  O  690  1  0.29314300  0.47339800  0.81878100  1
  O  697  1  0.44256700  0.34217000  0.83371800  1
  O  699  1  0.35653900  0.40658900  0.79771500  1
  O  700  1  0.34649200  0.36605100  0.83495000  1
  O  725  1  0.15069700  0.26575300  0.04287200  1
  O  726  1  0.17895000  0.23979000  0.12063700  1
  O  727  1  0.14086400  0.24263400  0.11041300  1
  O  728  1  0.12283200  0.26229200  0.06114200  1
  O  749  1  0.40905600  0.73636700  0.54287000  1
  O  750  1  0.38079500  0.76232000  0.62063400  1
  O  751  1  0.41888200  0.75947800  0.61041100  1
  O  752  1  0.43691600  0.73982200  0.56114300  1
  O  773  1  0.02162700  0.87534300  0.29502500  1
  O  774  1  0.04458500  0.90223900  0.37321300  1
  O  775  1  0.04095400  0.86482400  0.36255300  1
  O  776  1  0.02493100  0.84764200  0.31329900  1
  O  797  1  0.53810000  0.12676700  0.79501800  1
  O  798  1  0.51514200  0.09986500  0.87320800  1
  O  799  1  0.51877900  0.13728200  0.86255000  1
  O  800  1  0.53480300  0.15446800  0.81329200  1
  O  821  1  0.40925700  0.26281400  0.46426800  1
  O  822  1  0.38101200  0.23560900  0.38676600  1
  O  823  1  0.41900500  0.23877200  0.39707300  1
  O  824  1  0.43703600  0.25920500  0.44596400  1
  O  845  1  0.15045600  0.73930400  0.96427000  1
  O  846  1  0.17870100  0.76650500  0.88677000  1
  O  847  1  0.14070700  0.76334200  0.89707700  1
  O  848  1  0.12267800  0.74290600  0.94596500  1
  O  869  1  0.53641700  0.87445000  0.21201100  1
  O  870  1  0.51232600  0.90274300  0.13433300  1
  O  871  1  0.51607200  0.86529500  0.14494100  1
  O  872  1  0.53274100  0.84728900  0.19348300  1
  O  893  1  0.02332200  0.12766100  0.71201600  1
  O  894  1  0.04740900  0.09936400  0.63433600  1
  O  895  1  0.04365700  0.13681200  0.64494200  1
  O  896  1  0.02699300  0.15482200  0.69348800  1
  O  917  1  0.90230800  0.73923300  0.96707200  1
  O  918  1  0.87510400  0.76488800  0.88924300  1
  O  919  1  0.91295400  0.76110400  0.89966900  1
  O  920  1  0.92997800  0.74305100  0.94872100  1
  O  941  1  0.65741300  0.26287500  0.46707700  1
  O  942  1  0.68461300  0.23723200  0.38924400  1
  O  943  1  0.64676300  0.24101400  0.39967200  1
  O  944  1  0.62974200  0.25906100  0.44872700  1
  O  965  1  0.65535300  0.74208000  0.54160000  1
  O  966  1  0.68587400  0.76919200  0.61870900  1
  O  967  1  0.64769800  0.76510600  0.60874100  1
  O  968  1  0.62859100  0.74622500  0.56038100  1
  O  989  1  0.90438400  0.26002500  0.04159300  1
  O  990  1  0.87387600  0.23293000  0.11870500  1
  O  991  1  0.91205200  0.23701400  0.10873600  1
  O  992  1  0.93115000  0.25588900  0.06037200  1
  O  1013  1  0.51489900  0.37137700  0.79035200  1
  O  1014  1  0.54187300  0.40237600  0.86783900  1
  O  1015  1  0.53912900  0.36385400  0.85855300  1
  O  1016  1  0.51803200  0.34416100  0.80887700  1
  O  1037  1  0.04482800  0.63074700  0.29034300  1
  O  1038  1  0.01785800  0.59973800  0.36783000  1
  O  1039  1  0.02060800  0.63826000  0.35854700  1
  O  1040  1  0.04170400  0.65796100  0.30886900  1
  O  1061  1  0.04279900  0.37065900  0.71731600  1
  O  1062  1  0.01528300  0.40263100  0.64006900  1
  O  1063  1  0.01804400  0.36403500  0.64924800  1
  O  1064  1  0.03941600  0.34369200  0.69868100  1
  O  1085  1  0.51694100  0.63146300  0.21732200  1
  O  1086  1  0.54444800  0.59948100  0.14007600  1
  O  1087  1  0.54168000  0.63807900  0.14925300  1
  O  1088  1  0.52031400  0.65842600  0.19868500  1
  O  1109  1  0.04199100  0.13422500  0.04723500  1
  O  1110  1  0.00804000  0.11703500  0.12514100  1
  O  1111  1  0.00883900  0.15373700  0.11351100  1
  O  1112  1  0.03936500  0.16567300  0.06329000  1
  O  1133  1  0.51775000  0.86789600  0.54723300  1
  O  1134  1  0.55170300  0.88508000  0.62513900  1
  O  1135  1  0.55090200  0.84837700  0.61350900  1
  O  1136  1  0.52037500  0.83644600  0.56328700  1
  O  1157  1  0.15069800  0.76406600  0.30018600  1
  O  1158  1  0.15792200  0.72755400  0.37730300  1
  O  1159  1  0.12336100  0.73006300  0.36345100  1
  O  1160  1  0.11785400  0.76171400  0.31542400  1
  O  1181  1  0.40902700  0.23804200  0.80018100  1
  O  1182  1  0.40180500  0.27454700  0.87730200  1
  O  1183  1  0.43636800  0.27204400  0.86345200  1
  O  1184  1  0.44187300  0.24039400  0.81541800  1
  O  1205  1  0.51892500  0.13340600  0.46121700  1
  O  1206  1  0.55160100  0.11785700  0.38293900  1
  O  1207  1  0.55012600  0.15449100  0.39462000  1
  O  1208  1  0.52023200  0.16506900  0.44525500  1
  O  1229  1  0.04079700  0.86871600  0.96122200  1
  O  1230  1  0.00812000  0.88426000  0.88294200  1
  O  1231  1  0.00960000  0.84762600  0.89462400  1
  O  1232  1  0.03949200  0.83705100  0.94525900  1
  O  1253  1  0.40857500  0.76426600  0.20855800  1
  O  1254  1  0.40199200  0.72851900  0.13115400  1
  O  1255  1  0.43665200  0.73136100  0.14489900  1
  O  1256  1  0.44153600  0.76270300  0.19337100  1
  O  1277  1  0.15116300  0.23784400  0.70856000  1
  O  1278  1  0.15774500  0.27358800  0.63115300  1
  O  1279  1  0.12308300  0.27075300  0.64489700  1
  O  1280  1  0.11820100  0.23940900  0.69337400  1
  O  1301  1  0.91354900  0.24024700  0.70859600  1
  O  1302  1  0.89592600  0.27273400  0.63080300  1
  O  1303  1  0.93258400  0.27168700  0.64274600  1
  O  1304  1  0.94499700  0.24297000  0.69239800  1
  O  1325  1  0.64618800  0.76187100  0.20859200  1
  O  1326  1  0.66380100  0.72938400  0.13080000  1
  O  1327  1  0.62714500  0.73042900  0.14274400  1
  O  1328  1  0.61473900  0.75914800  0.19239500  1
  O  1349  1  0.64742900  0.24100600  0.79845400  1
  O  1350  1  0.66300200  0.27221200  0.87674300  1
  O  1351  1  0.62645700  0.27085100  0.86469600  1
  O  1352  1  0.61551800  0.24279700  0.81438400  1
  O  1373  1  0.91229700  0.76111000  0.29845800  1
  O  1374  1  0.89673500  0.72990200  0.37674600  1
  O  1375  1  0.93327800  0.73126100  0.36469500  1
  O  1376  1  0.94421000  0.75931700  0.31438600  1
  O  1397  1  0.54389200  0.63210600  0.54992600  1
  O  1398  1  0.51155100  0.62561900  0.62788800  1
  O  1399  1  0.51268100  0.65974200  0.61380500  1
  O  1400  1  0.54142500  0.66523900  0.56476900  1
  O  1421  1  0.01585100  0.37002600  0.04991900  1
  O  1422  1  0.04818600  0.37650900  0.12788500  1
  O  1423  1  0.04705200  0.34238400  0.11380200  1
  O  1424  1  0.01832000  0.33688900  0.06476100  1
  O  1445  1  0.01690200  0.63115700  0.95871800  1
  O  1446  1  0.04783900  0.62590900  0.88030200  1
  O  1447  1  0.04624300  0.66013700  0.89428000  1
  O  1448  1  0.01810300  0.66457200  0.94404100  1
  O  1469  1  0.54281800  0.37097700  0.45872600  1
  O  1470  1  0.51188800  0.37621900  0.38030600  1
  O  1471  1  0.51349000  0.34198900  0.39428300  1
  O  1472  1  0.54161600  0.33756000  0.44404900  1
  O  1493  1  0.14576700  0.01144100  0.01366200  1
  O  1494  1  0.25869300  0.94989000  0.00693600  1
  O  1495  1  0.22000200  0.93586200  0.01160000  1
  O  1496  1  0.16029700  0.97700100  0.02455600  1
  O  1517  1  0.41397300  0.99066800  0.51366200  1
  O  1518  1  0.30103700  0.05222200  0.50694000  1
  O  1519  1  0.33972600  0.06625500  0.51160300  1
  O  1520  1  0.39944900  0.02510800  0.52455600  1
  O  1541  1  0.27247200  0.86496300  0.26421900  1
  O  1542  1  0.33282500  0.97590600  0.25595300  1
  O  1543  1  0.34661800  0.93710000  0.25979200  1
  O  1544  1  0.30769600  0.88043100  0.27395500  1
  O  1565  1  0.28726100  0.13714500  0.76422100  1
  O  1566  1  0.22691000  0.02619900  0.75595200  1
  O  1567  1  0.21311500  0.06500300  0.75979300  1
  O  1568  1  0.25203600  0.12167800  0.77395600  1
  O  1589  1  0.90605800  0.99252000  0.99393700  1
  O  1590  1  0.79431600  0.05298900  0.00161300  1
  O  1591  1  0.83337300  0.06632300  0.99729900  1
  O  1592  1  0.89060600  0.02709900  0.98364900  1
  O  1613  1  0.65366900  0.00960400  0.49393600  1
  O  1614  1  0.76542200  0.94913100  0.50160800  1
  O  1615  1  0.72636700  0.93579200  0.49729300  1
  O  1616  1  0.66911300  0.97502300  0.48364700  1
  O  1637  1  0.78909000  0.13618000  0.74435400  1
  O  1638  1  0.72788100  0.02524100  0.75025600  1
  O  1639  1  0.71459500  0.06406800  0.74591300  1
  O  1640  1  0.75490500  0.12073500  0.73341300  1
  O  1661  1  0.77064500  0.86593400  0.24434900  1
  O  1662  1  0.83184700  0.97687300  0.25025500  1
  O  1663  1  0.84513400  0.93804800  0.24591000  1
  O  1664  1  0.80482800  0.88138300  0.23340800  1
  O  1685  1  0.64795000  0.51307100  0.51332400  1
  O  1686  1  0.76172700  0.45093300  0.50724300  1
  O  1687  1  0.72330600  0.43637800  0.51211300  1
  O  1688  1  0.66185000  0.47864000  0.52450400  1
  O  1709  1  0.91178900  0.48904700  0.01332500  1
  O  1710  1  0.79800500  0.55119100  0.00724600  1
  O  1711  1  0.83642300  0.56575200  0.01211700  1
  O  1712  1  0.89789800  0.52347800  0.02450800  1
  O  1733  1  0.77156700  0.37246000  0.76385200  1
  O  1734  1  0.83349000  0.48181400  0.75707800  1
  O  1735  1  0.84596000  0.44259000  0.76098000  1
  O  1736  1  0.80613700  0.38796100  0.77434100  1
  O  1757  1  0.78816200  0.62964800  0.26385600  1
  O  1758  1  0.72625000  0.52029200  0.25707800  1
  O  1759  1  0.71377600  0.55951400  0.26098400  1
  O  1760  1  0.75359500  0.61414300  0.27434400  1
  O  1781  1  0.41396100  0.49129100  0.49364600  1
  O  1782  1  0.30327400  0.55328800  0.50044000  1
  O  1783  1  0.34253400  0.56619600  0.49631000  1
  O  1784  1  0.39868900  0.52561600  0.48298200  1
  O  1805  1  0.14576500  0.51082500  0.99364700  1
  O  1806  1  0.25646500  0.44881900  0.00043600  1
  O  1807  1  0.21720600  0.43590500  0.99630700  1
  O  1808  1  0.16102700  0.47649800  0.98298000  1
  O  1829  1  0.28685200  0.62794100  0.24424900  1
  O  1830  1  0.22582900  0.51738300  0.25084400  1
  O  1831  1  0.21290300  0.55637900  0.24666400  1
  O  1832  1  0.25244700  0.61256800  0.23351000  1
  O  1853  1  0.27287600  0.37417700  0.74424700  1
  O  1854  1  0.33389300  0.48473700  0.75084500  1
  O  1855  1  0.34682100  0.44574300  0.74666100  1
  O  1856  1  0.30728100  0.38955400  0.73350900  1
  O  1877  1  0.32473000  0.04901100  0.11199300  1
  O  1878  1  0.25692900  0.93540900  0.12235500  1
  O  1879  1  0.29381300  0.93887000  0.11083700  1
  O  1880  1  0.32588900  0.01524700  0.09762700  1
  O  1901  1  0.23501300  0.95308400  0.61200200  1
  O  1902  1  0.30279900  0.06670000  0.62235700  1
  O  1903  1  0.26591700  0.06323300  0.61083800  1
  O  1904  1  0.23384600  0.98684600  0.59763300  1
  O  1925  1  0.23326700  0.04515100  0.36108000  1
  O  1926  1  0.35029400  0.98288200  0.37426400  1
  O  1927  1  0.34672500  0.01898800  0.36219500  1
  O  1928  1  0.26730000  0.04732800  0.34678700  1
  O  1949  1  0.32646800  0.95695400  0.86107800  1
  O  1950  1  0.20944000  0.01922800  0.87425900  1
  O  1951  1  0.21300600  0.98312100  0.86219000  1
  O  1952  1  0.29243500  0.95477700  0.84678400  1
  O  1973  1  0.72694000  0.95426500  0.89618400  1
  O  1974  1  0.79339300  0.06823600  0.88438300  1
  O  1975  1  0.75643100  0.06525500  0.89586200  1
  O  1976  1  0.72564200  0.98823900  0.91037100  1
  O  1997  1  0.83278300  0.04786300  0.39617500  1
  O  1998  1  0.76634400  0.93388500  0.38437900  1
  O  1999  1  0.80330200  0.93687300  0.39585900  1
  O  2000  1  0.83408600  0.01389000  0.41036200  1
  O  2021  1  0.83107000  0.95644800  0.64836600  1
  O  2022  1  0.71724100  0.02313400  0.63419000  1
  O  2023  1  0.71952300  0.98692900  0.64626200  1
  O  2024  1  0.79630600  0.95575200  0.66210100  1
  O  2045  1  0.72866500  0.04567500  0.14837200  1
  O  2046  1  0.84249300  0.97898600  0.13419700  1
  O  2047  1  0.84021500  0.01519100  0.14626800  1
  O  2048  1  0.76342700  0.04637000  0.16210800  1
  O  2069  1  0.82837500  0.55306400  0.61094000  1
  O  2070  1  0.76121300  0.43934000  0.62318300  1
  O  2071  1  0.79797600  0.44213900  0.61147400  1
  O  2072  1  0.82971100  0.51888200  0.59692600  1
  O  2093  1  0.73136800  0.44903400  0.11095000  1
  O  2094  1  0.79851800  0.56276700  0.12318900  1
  O  2095  1  0.76175700  0.55996100  0.11147900  1
  O  2096  1  0.73002700  0.48321500  0.09693700  1
  O  2117  1  0.73119000  0.55096100  0.86118200  1
  O  2118  1  0.84668900  0.48673800  0.87370700  1
  O  2119  1  0.84322200  0.52340200  0.86223000  1
  O  2120  1  0.76553700  0.55270500  0.84712600  1
  O  2141  1  0.82854400  0.45114500  0.36117700  1
  O  2142  1  0.71304200  0.51537400  0.37370000  1
  O  2143  1  0.71650700  0.47870700  0.36222200  1
  O  2144  1  0.79420100  0.44940100  0.34711800  1
  O  2165  1  0.23194600  0.45072700  0.39760400  1
  O  2166  1  0.29839300  0.56494200  0.38383900  1
  O  2167  1  0.26195300  0.56282900  0.39593300  1
  O  2168  1  0.23061300  0.48478400  0.41172200  1
  O  2189  1  0.32777400  0.55140500  0.89759400  1
  O  2190  1  0.26134100  0.43718200  0.88383500  1
  O  2191  1  0.29778300  0.43930400  0.89593100  1
  O  2192  1  0.32911500  0.51735000  0.91171200  1
  O  2213  1  0.32941100  0.45221600  0.14577400  1
  O  2214  1  0.21459400  0.51865200  0.13435800  1
  O  2215  1  0.21783900  0.48210400  0.14598700  1
  O  2216  1  0.29513800  0.45079800  0.15990700  1
  O  2237  1  0.23032500  0.54990800  0.64578000  1
  O  2238  1  0.34514300  0.48346800  0.63436600  1
  O  2239  1  0.34190000  0.52001800  0.64599400  1
  O  2240  1  0.26459500  0.55132600  0.65991400  1
