# generated using pymatgen
data_H38C53N6
_symmetry_space_group_name_H-M   'P 1'
_cell_length_a   50.50585000
_cell_length_b   50.50590000
_cell_length_c   54.64200000
_cell_angle_alpha   90.00940000
_cell_angle_beta   89.99999998
_cell_angle_gamma   120.00009825
_symmetry_Int_Tables_number   1
_chemical_formula_structural   H38C53N6
_chemical_formula_sum   'H456 C636 N72'
_cell_volume   120709.25790863
_cell_formula_units_Z   12
loop_
 _symmetry_equiv_pos_site_id
 _symmetry_equiv_pos_as_xyz
  1  'x, y, z'
loop_
 _atom_site_type_symbol
 _atom_site_label
 _atom_site_symmetry_multiplicity
 _atom_site_fract_x
 _atom_site_fract_y
 _atom_site_fract_z
 _atom_site_occupancy
  H  26  1  0.72971600  0.29404500  0.69662200  1
  H  27  1  0.75434700  0.28923100  0.73163900  1
  H  28  1  0.70383200  0.20367200  0.67596200  1
  H  29  1  0.72874700  0.19901200  0.71116900  1
  H  30  1  0.78285600  0.20982700  0.72455400  1
  H  31  1  0.83125400  0.22804000  0.70622100  1
  H  32  1  0.85599700  0.31817700  0.72672100  1
  H  33  1  0.80743200  0.29974500  0.74505000  1
  H  34  1  0.79906200  0.27271000  0.78726300  1
  H  35  1  0.79392800  0.30074700  0.82002100  1
  H  36  1  0.70348200  0.27199300  0.79751300  1
  H  37  1  0.70889200  0.24454600  0.76479800  1
  H  38  1  0.69856200  0.19138600  0.75194200  1
  H  39  1  0.78704700  0.21619400  0.77691900  1
  H  40  1  0.76783500  0.16700200  0.79445500  1
  H  41  1  0.67923100  0.14209500  0.76950000  1
  H  44  1  0.88046700  0.26989000  0.69443300  1
  H  45  1  0.70338700  0.27356700  0.65828500  1
  H  47  1  0.72751700  0.31123100  0.82831000  1
  H  49  1  0.72486600  0.11137800  0.79126900  1
  H  75  1  0.56455300  0.27044500  0.36324100  1
  H  76  1  0.53512300  0.24584100  0.39826700  1
  H  77  1  0.50012300  0.29642800  0.34265100  1
  H  78  1  0.47056500  0.27153300  0.37786500  1
  H  79  1  0.42728100  0.21741600  0.39121000  1
  H  80  1  0.39707700  0.16901800  0.37288000  1
  H  81  1  0.46240900  0.14421900  0.39342600  1
  H  82  1  0.49255900  0.19278900  0.41174800  1
  H  83  1  0.47392800  0.20123900  0.45396200  1
  H  84  1  0.50708300  0.20640100  0.48673600  1
  H  85  1  0.56882200  0.29679800  0.46416900  1
  H  86  1  0.53597800  0.29136000  0.43144300  1
  H  87  1  0.49313700  0.30170000  0.41864900  1
  H  88  1  0.42942400  0.21322100  0.44358600  1
  H  89  1  0.39945500  0.23244300  0.46112700  1
  H  90  1  0.46318900  0.32104600  0.43621200  1
  H  93  1  0.38962100  0.11974300  0.36117700  1
  H  94  1  0.57043100  0.29681700  0.32493300  1
  H  96  1  0.58397600  0.27285100  0.49504800  1
  H  98  1  0.38681500  0.27541400  0.45794500  1
  H  124  1  0.70608800  0.43569700  0.02989300  1
  H  125  1  0.71092000  0.46513100  0.06492600  1
  H  126  1  0.79651200  0.50010300  0.00931700  1
  H  127  1  0.80118200  0.52966600  0.04453700  1
  H  128  1  0.79036800  0.57295800  0.05790300  1
  H  129  1  0.77219100  0.60317700  0.03958300  1
  H  130  1  0.68205000  0.53787600  0.06013000  1
  H  131  1  0.70045200  0.50770900  0.07843600  1
  H  132  1  0.72753400  0.52631300  0.12065100  1
  H  133  1  0.69953900  0.49315500  0.15341900  1
  H  134  1  0.72817100  0.43140200  0.13080800  1
  H  135  1  0.75557600  0.46424900  0.09809000  1
  H  136  1  0.80876200  0.50707600  0.08531200  1
  H  137  1  0.78402800  0.57081000  0.11028200  1
  H  138  1  0.83322400  0.60076200  0.12782300  1
  H  139  1  0.85805800  0.53700800  0.10287500  1
  H  142  1  0.73040300  0.61068800  0.02792700  1
  H  143  1  0.72658700  0.42981200  0.99158100  1
  H  145  1  0.68906600  0.41624900  0.16168900  1
  H  147  1  0.88881800  0.61338600  0.12464800  1
  H  173  1  0.27059700  0.70606600  0.19652700  1
  H  174  1  0.24602200  0.71089800  0.23157300  1
  H  175  1  0.29641400  0.79641500  0.17587600  1
  H  176  1  0.27155300  0.80108700  0.21111300  1
  H  177  1  0.21749800  0.79034700  0.22457100  1
  H  178  1  0.16908900  0.77216300  0.20626300  1
  H  179  1  0.14435100  0.68200300  0.22665900  1
  H  180  1  0.19293000  0.70041000  0.24495600  1
  H  181  1  0.20129000  0.72739500  0.28720400  1
  H  182  1  0.20644800  0.69939900  0.31997400  1
  H  183  1  0.29689700  0.72817300  0.29746900  1
  H  184  1  0.29146300  0.75558000  0.26474700  1
  H  185  1  0.30181300  0.80875900  0.25186100  1
  H  186  1  0.21336200  0.78391700  0.27693700  1
  H  187  1  0.23258200  0.83310800  0.29449200  1
  H  188  1  0.32115600  0.85805200  0.26943600  1
  H  191  1  0.11981800  0.73035500  0.19454800  1
  H  192  1  0.29685600  0.72652900  0.15816100  1
  H  194  1  0.27291200  0.68899500  0.32829900  1
  H  196  1  0.27551500  0.88873600  0.29127200  1
  H  222  1  0.43572800  0.72960700  0.86321600  1
  H  223  1  0.46513800  0.75418300  0.89826400  1
  H  224  1  0.50030000  0.70386200  0.84250400  1
  H  225  1  0.52983800  0.72872200  0.87774600  1
  H  226  1  0.57314600  0.78278500  0.89123500  1
  H  227  1  0.60333100  0.83118400  0.87290900  1
  H  228  1  0.53784900  0.85585400  0.89328200  1
  H  229  1  0.50771700  0.80728800  0.91160200  1
  H  230  1  0.52637100  0.79898000  0.95385600  1
  H  231  1  0.49321200  0.79381600  0.98662900  1
  H  232  1  0.43159100  0.70333500  0.96414800  1
  H  233  1  0.46443700  0.70877400  0.93142300  1
  H  234  1  0.50726600  0.69845100  0.91849500  1
  H  235  1  0.57083600  0.78690900  0.94360100  1
  H  236  1  0.60080900  0.76770400  0.96116300  1
  H  237  1  0.53721700  0.67912300  0.93607800  1
  H  240  1  0.61066300  0.88037100  0.86107800  1
  H  241  1  0.42997400  0.70341400  0.82481100  1
  H  243  1  0.41636800  0.72733200  0.99495600  1
  H  245  1  0.61351800  0.72477000  0.95794800  1
  H  271  1  0.29408100  0.56451600  0.52988900  1
  H  272  1  0.28925800  0.53511100  0.56492800  1
  H  273  1  0.20376000  0.49994000  0.50918200  1
  H  274  1  0.19909000  0.47040700  0.54441600  1
  H  275  1  0.20985600  0.42710700  0.55787100  1
  H  276  1  0.22807100  0.39692300  0.53953200  1
  H  277  1  0.31822200  0.46240000  0.55991700  1
  H  278  1  0.29978800  0.49252900  0.57824900  1
  H  279  1  0.27281800  0.47385700  0.62050300  1
  H  280  1  0.30084000  0.50701500  0.65327200  1
  H  281  1  0.27201400  0.56866600  0.63082300  1
  H  282  1  0.24458000  0.53582100  0.59810000  1
  H  283  1  0.19141100  0.49297800  0.58517500  1
  H  284  1  0.21628100  0.42937900  0.61022700  1
  H  285  1  0.16709000  0.39939000  0.62776400  1
  H  286  1  0.14212000  0.46300800  0.60273400  1
  H  289  1  0.26992800  0.38958000  0.52770800  1
  H  290  1  0.27363900  0.57028100  0.49150300  1
  H  292  1  0.31127600  0.58388700  0.66160100  1
  H  294  1  0.11144700  0.38669200  0.62452200  1
  H  301  1  0.81220300  0.38956600  0.90509600  1
  H  302  1  0.81037200  0.35791800  0.87183000  1
  H  309  1  0.74163200  0.35571300  0.95142700  1
  H  310  1  0.74386300  0.38733600  0.98503800  1
  H  311  1  0.79571900  0.46619700  0.94208000  1
  H  312  1  0.71477800  0.31815400  0.86850300  1
  H  313  1  0.79324500  0.43460500  0.90822200  1
  H  315  1  0.68964100  0.33599300  0.89441300  1
  H  316  1  0.70788700  0.36366100  0.91461400  1
  H  325  1  0.57763300  0.18800700  0.57170100  1
  H  326  1  0.54784700  0.18987500  0.53843200  1
  H  333  1  0.61426400  0.25850700  0.61811600  1
  H  334  1  0.64362900  0.25625000  0.65173300  1
  H  335  1  0.67072900  0.20449000  0.60873100  1
  H  336  1  0.60365500  0.28547700  0.53522200  1
  H  337  1  0.64163800  0.20698800  0.57486700  1
  H  339  1  0.64660000  0.31058800  0.56116600  1
  H  340  1  0.65600700  0.29231700  0.58134800  1
  H  349  1  0.61060200  0.42257300  0.23838500  1
  H  350  1  0.64225000  0.45237000  0.20512100  1
  H  357  1  0.64449200  0.38594400  0.28476800  1
  H  358  1  0.61287700  0.35657600  0.31838200  1
  H  359  1  0.53400900  0.32947600  0.27539500  1
  H  360  1  0.68206800  0.39658500  0.20186900  1
  H  361  1  0.56559300  0.35857100  0.24153400  1
  H  363  1  0.66424700  0.35363700  0.22779600  1
  H  364  1  0.63657000  0.34421800  0.24798300  1
  H  373  1  0.18808800  0.61053100  0.40497400  1
  H  374  1  0.18995700  0.64218400  0.37170900  1
  H  381  1  0.25860200  0.64439000  0.45137500  1
  H  382  1  0.25633900  0.61276400  0.48498800  1
  H  383  1  0.20454600  0.53390800  0.44198800  1
  H  384  1  0.28555500  0.68196200  0.36847500  1
  H  385  1  0.20705200  0.56550100  0.40812800  1
  H  387  1  0.31066500  0.66412300  0.39441100  1
  H  388  1  0.29239700  0.63645200  0.41459700  1
  H  397  1  0.42268000  0.81212300  0.07166100  1
  H  398  1  0.45248300  0.81027300  0.03839700  1
  H  405  1  0.38602000  0.74159300  0.11803400  1
  H  406  1  0.35664000  0.74383600  0.15164500  1
  H  407  1  0.32957600  0.79562900  0.10866600  1
  H  408  1  0.39668800  0.71467100  0.03513100  1
  H  409  1  0.35868100  0.79314300  0.07480500  1
  H  411  1  0.35372800  0.68954500  0.06105200  1
  H  412  1  0.34430800  0.70780300  0.08124200  1
  H  421  1  0.38963400  0.57750000  0.73835200  1
  H  422  1  0.35797700  0.54769900  0.70508400  1
  H  429  1  0.35581600  0.61424200  0.78470600  1
  H  430  1  0.38745200  0.64362500  0.81831500  1
  H  431  1  0.46629900  0.67060000  0.77533800  1
  H  432  1  0.31825200  0.60356300  0.70179000  1
  H  433  1  0.43469400  0.64149000  0.74148300  1
  H  435  1  0.33610900  0.64653600  0.72770800  1
  H  436  1  0.36377800  0.65594500  0.74790500  1
  H  445  1  0.65667700  0.00585800  0.80205200  1
  H  446  1  0.68043300  0.05536400  0.78363700  1
  H  453  1  0.58521100  0.98196800  0.84633100  1
  H  454  1  0.56127300  0.93080200  0.86207700  1
  H  455  1  0.64663500  0.93444100  0.86201400  1
  H  456  1  0.66015200  0.09116800  0.84568200  1
  H  457  1  0.67057200  0.98550800  0.84639500  1
  H  459  1  0.63587900  0.05905300  0.87988200  1
  H  460  1  0.62624900  0.02258000  0.88063400  1
  H  469  1  0.34946500  0.34359000  0.46870900  1
  H  470  1  0.37524100  0.31984800  0.45030400  1
  H  477  1  0.39699900  0.41504400  0.51301900  1
  H  478  1  0.36975300  0.43897700  0.52874900  1
  H  479  1  0.28803200  0.35361300  0.52863600  1
  H  480  1  0.43126900  0.34011500  0.51238100  1
  H  481  1  0.31517900  0.32967900  0.51303400  1
  H  483  1  0.42339100  0.36437400  0.54658000  1
  H  484  1  0.39654200  0.37399800  0.54732100  1
  H  493  1  0.99435100  0.65074600  0.13535900  1
  H  494  1  0.94482900  0.62496700  0.11696000  1
  H  501  1  0.01832500  0.60322900  0.17959600  1
  H  502  1  0.06949900  0.63049000  0.19533700  1
  H  503  1  0.06576600  0.71216300  0.19534600  1
  H  504  1  0.90909700  0.56890600  0.17901100  1
  H  505  1  0.01469500  0.68500000  0.17973200  1
  H  507  1  0.94124700  0.57677500  0.21319700  1
  H  508  1  0.97771700  0.60362900  0.21393800  1
  H  517  1  0.34367600  0.99427000  0.30207200  1
  H  518  1  0.31994800  0.94476400  0.28363900  1
  H  525  1  0.41513100  0.01817300  0.34635800  1
  H  526  1  0.43905800  0.06934500  0.36211000  1
  H  527  1  0.35368100  0.06567700  0.36205100  1
  H  528  1  0.34022200  0.90897000  0.34568300  1
  H  529  1  0.32975400  0.01460600  0.34642600  1
  H  531  1  0.36447300  0.94108800  0.37989700  1
  H  532  1  0.37408700  0.97755600  0.38066000  1
  H  541  1  0.65088900  0.65660700  0.96872800  1
  H  542  1  0.62512600  0.68034600  0.95029900  1
  H  549  1  0.60331000  0.58511800  0.01296300  1
  H  550  1  0.63054800  0.56119300  0.02872400  1
  H  551  1  0.71224300  0.64658300  0.02874200  1
  H  552  1  0.56900400  0.66002500  0.01231900  1
  H  553  1  0.68510500  0.67050700  0.01310700  1
  H  555  1  0.57684300  0.63575200  0.04652100  1
  H  556  1  0.60369600  0.62613800  0.04728400  1
  H  565  1  0.00593500  0.34933300  0.63541600  1
  H  566  1  0.05542500  0.37508700  0.61697100  1
  H  573  1  0.98209500  0.39692300  0.67973700  1
  H  574  1  0.93093200  0.36969900  0.69549400  1
  H  575  1  0.93454000  0.28796100  0.69537900  1
  H  576  1  0.09127900  0.43117200  0.67901400  1
  H  577  1  0.98560500  0.31508500  0.67975200  1
  H  579  1  0.05919300  0.42332700  0.71323700  1
  H  580  1  0.02272300  0.39648200  0.71400900  1
  H  608  1  0.70991600  0.65043900  0.69662200  1
  H  609  1  0.73454700  0.64562500  0.73163900  1
  H  610  1  0.68403200  0.56006600  0.67596200  1
  H  611  1  0.70894700  0.55540600  0.71116900  1
  H  612  1  0.76305600  0.56622100  0.72455400  1
  H  613  1  0.81145400  0.58443400  0.70622100  1
  H  614  1  0.83619700  0.67457100  0.72672100  1
  H  615  1  0.78763200  0.65613900  0.74505000  1
  H  616  1  0.77926200  0.62910400  0.78726300  1
  H  617  1  0.77412800  0.65714100  0.82002100  1
  H  618  1  0.68368200  0.62838700  0.79751300  1
  H  619  1  0.68909200  0.60094000  0.76479800  1
  H  620  1  0.67876200  0.54778000  0.75194200  1
  H  621  1  0.76724700  0.57258800  0.77691900  1
  H  622  1  0.74803500  0.52339600  0.79445500  1
  H  623  1  0.65943100  0.49848900  0.76950000  1
  H  626  1  0.86066700  0.62628400  0.69443300  1
  H  627  1  0.68358700  0.62996100  0.65828500  1
  H  629  1  0.70771700  0.66762500  0.82831000  1
  H  631  1  0.70506600  0.46777200  0.79126900  1
  H  657  1  0.54475300  0.62683870  0.36324100  1
  H  658  1  0.51532300  0.60223470  0.39826700  1
  H  659  1  0.48032300  0.65282200  0.34265100  1
  H  660  1  0.45076500  0.62792700  0.37786500  1
  H  661  1  0.40748100  0.57381000  0.39121000  1
  H  662  1  0.37727700  0.52541200  0.37288000  1
  H  663  1  0.44260900  0.50061270  0.39342600  1
  H  664  1  0.47275900  0.54918270  0.41174800  1
  H  665  1  0.45412800  0.55763300  0.45396200  1
  H  666  1  0.48728300  0.56279470  0.48673600  1
  H  667  1  0.54902200  0.65319200  0.46416900  1
  H  668  1  0.51617800  0.64775400  0.43144300  1
  H  669  1  0.47333700  0.65809400  0.41864900  1
  H  670  1  0.40962400  0.56961500  0.44358600  1
  H  671  1  0.37965500  0.58883700  0.46112700  1
  H  672  1  0.44338900  0.67744000  0.43621200  1
  H  675  1  0.36982100  0.47613700  0.36117700  1
  H  676  1  0.55063100  0.65321100  0.32493300  1
  H  678  1  0.56417600  0.62924470  0.49504800  1
  H  680  1  0.36701500  0.63180800  0.45794500  1
  H  706  1  0.68628800  0.79209100  0.02989300  1
  H  707  1  0.69112000  0.82152500  0.06492600  1
  H  708  1  0.77671200  0.85649670  0.00931700  1
  H  709  1  0.78138200  0.88606000  0.04453700  1
  H  710  1  0.77056800  0.92935200  0.05790300  1
  H  711  1  0.75239100  0.95957100  0.03958300  1
  H  712  1  0.66225000  0.89427000  0.06013000  1
  H  713  1  0.68065200  0.86410300  0.07843600  1
  H  714  1  0.70773400  0.88270700  0.12065100  1
  H  715  1  0.67973900  0.84954900  0.15341900  1
  H  716  1  0.70837100  0.78779570  0.13080800  1
  H  717  1  0.73577600  0.82064270  0.09809000  1
  H  718  1  0.78896200  0.86346970  0.08531200  1
  H  719  1  0.76422800  0.92720400  0.11028200  1
  H  720  1  0.81342400  0.95715600  0.12782300  1
  H  721  1  0.83825800  0.89340170  0.10287500  1
  H  724  1  0.71060300  0.96708200  0.02792700  1
  H  725  1  0.70678700  0.78620570  0.99158100  1
  H  727  1  0.66926600  0.77264300  0.16168900  1
  H  729  1  0.86901800  0.96978000  0.12464800  1
  H  755  1  0.25079700  0.06246000  0.19652700  1
  H  756  1  0.22622200  0.06729200  0.23157300  1
  H  757  1  0.27661400  0.15280900  0.17587600  1
  H  758  1  0.25175300  0.15748100  0.21111300  1
  H  759  1  0.19769800  0.14674100  0.22457100  1
  H  760  1  0.14928900  0.12855700  0.20626300  1
  H  761  1  0.12455100  0.03839700  0.22665900  1
  H  762  1  0.17313000  0.05680400  0.24495600  1
  H  763  1  0.18149000  0.08378900  0.28720400  1
  H  764  1  0.18664800  0.05579300  0.31997400  1
  H  765  1  0.27709700  0.08456700  0.29746900  1
  H  766  1  0.27166300  0.11197400  0.26474700  1
  H  767  1  0.28201300  0.16515300  0.25186100  1
  H  768  1  0.19356200  0.14031100  0.27693700  1
  H  769  1  0.21278200  0.18950200  0.29449200  1
  H  770  1  0.30135600  0.21444600  0.26943600  1
  H  773  1  0.10001800  0.08674900  0.19454800  1
  H  774  1  0.27705600  0.08292300  0.15816100  1
  H  776  1  0.25311200  0.04538900  0.32829900  1
  H  778  1  0.25571500  0.24513000  0.29127200  1
  H  804  1  0.41592800  0.08600100  0.86321600  1
  H  805  1  0.44533800  0.11057700  0.89826400  1
  H  806  1  0.48050000  0.06025600  0.84250400  1
  H  807  1  0.51003800  0.08511600  0.87774600  1
  H  808  1  0.55334600  0.13917900  0.89123500  1
  H  809  1  0.58353100  0.18757800  0.87290900  1
  H  810  1  0.51804900  0.21224800  0.89328200  1
  H  811  1  0.48791700  0.16368200  0.91160200  1
  H  812  1  0.50657100  0.15537400  0.95385600  1
  H  813  1  0.47341200  0.15021000  0.98662900  1
  H  814  1  0.41179100  0.05972900  0.96414800  1
  H  815  1  0.44463700  0.06516800  0.93142300  1
  H  816  1  0.48746600  0.05484500  0.91849500  1
  H  817  1  0.55103600  0.14330300  0.94360100  1
  H  818  1  0.58100900  0.12409800  0.96116300  1
  H  819  1  0.51741700  0.03551700  0.93607800  1
  H  822  1  0.59086300  0.23676500  0.86107800  1
  H  823  1  0.41017400  0.05980800  0.82481100  1
  H  825  1  0.39656800  0.08372600  0.99495600  1
  H  827  1  0.59371800  0.08116400  0.95794800  1
  H  853  1  0.27428100  0.92091000  0.52988900  1
  H  854  1  0.26945800  0.89150500  0.56492800  1
  H  855  1  0.18396000  0.85633400  0.50918200  1
  H  856  1  0.17929000  0.82680100  0.54441600  1
  H  857  1  0.19005600  0.78350100  0.55787100  1
  H  858  1  0.20827100  0.75331700  0.53953200  1
  H  859  1  0.29842200  0.81879400  0.55991700  1
  H  860  1  0.27998800  0.84892300  0.57824900  1
  H  861  1  0.25301800  0.83025100  0.62050300  1
  H  862  1  0.28104000  0.86340900  0.65327200  1
  H  863  1  0.25221400  0.92506000  0.63082300  1
  H  864  1  0.22478000  0.89221500  0.59810000  1
  H  865  1  0.17161100  0.84937200  0.58517500  1
  H  866  1  0.19648100  0.78577300  0.61022700  1
  H  867  1  0.14729000  0.75578400  0.62776400  1
  H  868  1  0.12232000  0.81940200  0.60273400  1
  H  871  1  0.25012800  0.74597400  0.52770800  1
  H  872  1  0.25383900  0.92667500  0.49150300  1
  H  874  1  0.29147600  0.94028100  0.66160100  1
  H  876  1  0.09164700  0.74308600  0.62452200  1
  H  883  1  0.79240300  0.74596000  0.90509600  1
  H  884  1  0.79057200  0.71431200  0.87183000  1
  H  891  1  0.72183200  0.71210700  0.95142700  1
  H  892  1  0.72406300  0.74372970  0.98503800  1
  H  893  1  0.77591900  0.82259070  0.94208000  1
  H  894  1  0.69497800  0.67454800  0.86850300  1
  H  895  1  0.77344500  0.79099870  0.90822200  1
  H  897  1  0.66984100  0.69238670  0.89441300  1
  H  898  1  0.68808700  0.72005470  0.91461400  1
  H  907  1  0.55783300  0.54440100  0.57170100  1
  H  908  1  0.52804700  0.54626870  0.53843200  1
  H  915  1  0.59446400  0.61490070  0.61811600  1
  H  916  1  0.62382900  0.61264400  0.65173300  1
  H  917  1  0.65092900  0.56088400  0.60873100  1
  H  918  1  0.58385500  0.64187070  0.53522200  1
  H  919  1  0.62183800  0.56338200  0.57486700  1
  H  921  1  0.62680000  0.66698170  0.56116600  1
  H  922  1  0.63620700  0.64871070  0.58134800  1
  H  931  1  0.59080200  0.77896700  0.23838500  1
  H  932  1  0.62245000  0.80876400  0.20512100  1
  H  939  1  0.62469200  0.74233800  0.28476800  1
  H  940  1  0.59307700  0.71297000  0.31838200  1
  H  941  1  0.51420900  0.68587000  0.27539500  1
  H  942  1  0.66226800  0.75297870  0.20186900  1
  H  943  1  0.54579300  0.71496500  0.24153400  1
  H  945  1  0.64444700  0.71003070  0.22779600  1
  H  946  1  0.61677000  0.70061170  0.24798300  1
  H  955  1  0.16828800  0.96692500  0.40497400  1
  H  956  1  0.17015700  0.99857800  0.37170900  1
  H  963  1  0.23880200  0.00078400  0.45137500  1
  H  964  1  0.23653900  0.96915800  0.48498800  1
  H  965  1  0.18474600  0.89030200  0.44198800  1
  H  966  1  0.26575500  0.03835600  0.36847500  1
  H  967  1  0.18725200  0.92189500  0.40812800  1
  H  969  1  0.29086500  0.02051700  0.39441100  1
  H  970  1  0.27259700  0.99284600  0.41459700  1
  H  979  1  0.40288000  0.16851700  0.07166100  1
  H  980  1  0.43268300  0.16666700  0.03839700  1
  H  987  1  0.36622000  0.09798700  0.11803400  1
  H  988  1  0.33684000  0.10023000  0.15164500  1
  H  989  1  0.30977600  0.15202300  0.10866600  1
  H  990  1  0.37688800  0.07106500  0.03513100  1
  H  991  1  0.33888100  0.14953700  0.07480500  1
  H  993  1  0.33392800  0.04593900  0.06105200  1
  H  994  1  0.32450800  0.06419700  0.08124200  1
  H  1003  1  0.36983400  0.93389400  0.73835200  1
  H  1004  1  0.33817700  0.90409300  0.70508400  1
  H  1011  1  0.33601600  0.97063600  0.78470600  1
  H  1012  1  0.36765200  0.00001900  0.81831500  1
  H  1013  1  0.44649900  0.02699400  0.77533800  1
  H  1014  1  0.29845200  0.95995700  0.70179000  1
  H  1015  1  0.41489400  0.99788400  0.74148300  1
  H  1017  1  0.31630900  0.00293000  0.72770800  1
  H  1018  1  0.34397800  0.01233900  0.74790500  1
  H  1027  1  0.63687700  0.36225200  0.80205200  1
  H  1028  1  0.66063300  0.41175800  0.78363700  1
  H  1035  1  0.56541100  0.33836200  0.84633100  1
  H  1036  1  0.54147300  0.28719600  0.86207700  1
  H  1037  1  0.62683500  0.29083500  0.86201400  1
  H  1038  1  0.64035200  0.44756200  0.84568200  1
  H  1039  1  0.65077200  0.34190200  0.84639500  1
  H  1041  1  0.61607900  0.41544700  0.87988200  1
  H  1042  1  0.60644900  0.37897400  0.88063400  1
  H  1051  1  0.32966500  0.69998400  0.46870900  1
  H  1052  1  0.35544100  0.67624200  0.45030400  1
  H  1059  1  0.37719900  0.77143800  0.51301900  1
  H  1060  1  0.34995300  0.79537100  0.52874900  1
  H  1061  1  0.26823200  0.71000700  0.52863600  1
  H  1062  1  0.41146900  0.69650900  0.51238100  1
  H  1063  1  0.29537900  0.68607300  0.51303400  1
  H  1065  1  0.40359100  0.72076800  0.54658000  1
  H  1066  1  0.37674200  0.73039200  0.54732100  1
  H  1075  1  0.97455130  0.00714000  0.13535900  1
  H  1076  1  0.92502930  0.98136100  0.11696000  1
  H  1083  1  0.99852529  0.95962329  0.17959600  1
  H  1084  1  0.04969900  0.98688400  0.19533700  1
  H  1085  1  0.04596600  0.06855670  0.19534600  1
  H  1086  1  0.88929700  0.92529970  0.17901100  1
  H  1087  1  0.99489529  0.04139399  0.17973200  1
  H  1089  1  0.92144730  0.93316900  0.21319700  1
  H  1090  1  0.95791730  0.96002297  0.21393800  1
  H  1099  1  0.32387600  0.35066370  0.30207200  1
  H  1100  1  0.30014800  0.30115767  0.28363900  1
  H  1107  1  0.39533100  0.37456700  0.34635800  1
  H  1108  1  0.41925800  0.42573867  0.36211000  1
  H  1109  1  0.33388100  0.42207070  0.36205100  1
  H  1110  1  0.32042200  0.26536400  0.34568300  1
  H  1111  1  0.30995400  0.37099970  0.34642600  1
  H  1113  1  0.34467300  0.29748200  0.37989700  1
  H  1114  1  0.35428700  0.33395000  0.38066000  1
  H  1123  1  0.63108900  0.01300100  0.96872800  1
  H  1124  1  0.60532600  0.03674000  0.95029900  1
  H  1131  1  0.58351000  0.94151200  0.01296300  1
  H  1132  1  0.61074800  0.91758700  0.02872400  1
  H  1133  1  0.69244300  0.00297700  0.02874200  1
  H  1134  1  0.54920400  0.01641900  0.01231900  1
  H  1135  1  0.66530500  0.02690100  0.01310700  1
  H  1137  1  0.55704300  0.99214600  0.04652100  1
  H  1138  1  0.58389600  0.98253200  0.04728400  1
  H  1147  1  0.98613530  0.70572730  0.63541600  1
  H  1148  1  0.03562500  0.73148100  0.61697100  1
  H  1155  1  0.96229530  0.75331730  0.67973700  1
  H  1156  1  0.91113230  0.72609330  0.69549400  1
  H  1157  1  0.91474030  0.64435530  0.69537900  1
  H  1158  1  0.07147900  0.78756600  0.67901400  1
  H  1159  1  0.96580530  0.67147930  0.67975200  1
  H  1161  1  0.03939300  0.77972100  0.71323700  1
  H  1162  1  0.00292300  0.75287600  0.71400900  1
  C  1  1  0.72173200  0.14948100  0.78331900  1
  C  2  1  0.75298500  0.17171200  0.78526600  1
  C  3  1  0.76432100  0.20076300  0.77468600  1
  C  4  1  0.74545100  0.20847600  0.76062000  1
  C  5  1  0.71372900  0.18655800  0.76033300  1
  C  6  1  0.70210700  0.15749300  0.77105500  1
  C  7  1  0.75843200  0.24025100  0.74930500  1
  C  8  1  0.75550500  0.25764300  0.77107000  1
  C  9  1  0.72734600  0.25656500  0.77598600  1
  C  10  1  0.72402000  0.27274800  0.79549600  1
  C  11  1  0.74844700  0.28995000  0.81177500  1
  C  12  1  0.77581200  0.28913400  0.80840200  1
  C  13  1  0.77896900  0.27285100  0.78874900  1
  C  14  1  0.79052500  0.25236100  0.73881600  1
  C  15  1  0.74207400  0.24262700  0.72655700  1
  C  16  1  0.74327200  0.27057800  0.72048400  1
  C  17  1  0.72890100  0.27361000  0.69954300  1
  C  18  1  0.71338900  0.24901500  0.68305000  1
  C  19  1  0.71392400  0.22175400  0.68781500  1
  C  20  1  0.72846300  0.21893800  0.70884100  1
  C  21  1  0.79825200  0.23267400  0.72597300  1
  C  22  1  0.82691500  0.24349400  0.71483300  1
  C  23  1  0.84909800  0.27493000  0.71517300  1
  C  24  1  0.84111600  0.29509700  0.72664800  1
  C  25  1  0.81235300  0.28406600  0.73778100  1
  C  42  1  0.69837900  0.25249600  0.66305400  1
  C  43  1  0.71136200  0.12044900  0.79264100  1
  C  46  1  0.74476700  0.30712100  0.82995900  1
  C  48  1  0.87730500  0.28486800  0.70397900  1
  C  50  1  0.42805700  0.27854700  0.45001300  1
  C  51  1  0.41902400  0.24729200  0.45194900  1
  C  52  1  0.43674500  0.23595300  0.44138000  1
  C  53  1  0.46331700  0.25481000  0.42729800  1
  C  54  1  0.47314300  0.28653800  0.42704200  1
  C  55  1  0.45570700  0.29816900  0.43776800  1
  C  56  1  0.48211000  0.24182500  0.41598100  1
  C  57  1  0.50244400  0.24475800  0.43773100  1
  C  58  1  0.52953200  0.27291700  0.44264100  1
  C  59  1  0.54903600  0.27626100  0.46215900  1
  C  60  1  0.54179400  0.25185600  0.47846200  1
  C  61  1  0.51360400  0.22449800  0.47509800  1
  C  62  1  0.49417000  0.22132600  0.45543700  1
  C  63  1  0.46211200  0.20972700  0.40550900  1
  C  64  1  0.50083200  0.25817500  0.39323100  1
  C  65  1  0.52755400  0.25693100  0.38712400  1
  C  66  1  0.54494700  0.27128300  0.36617600  1
  C  67  1  0.53588300  0.28682200  0.34970400  1
  C  68  1  0.50810300  0.28631500  0.35448800  1
  C  69  1  0.49075900  0.27179100  0.37552100  1
  C  70  1  0.43471900  0.20201000  0.39263600  1
  C  71  1  0.41686200  0.17334400  0.38149800  1
  C  72  1  0.42608700  0.15114200  0.38185700  1
  C  73  1  0.45422900  0.15911400  0.39333700  1
  C  74  1  0.47196900  0.18788200  0.40446700  1
  C  91  1  0.55437600  0.30183500  0.32971000  1
  C  92  1  0.40938900  0.28892100  0.45932300  1
  C  95  1  0.56263200  0.25555800  0.49666400  1
  C  97  1  0.40780000  0.12292700  0.37067500  1
  C  99  1  0.85071300  0.57215000  0.11669100  1
  C  100  1  0.82849600  0.58119300  0.11863800  1
  C  101  1  0.79943500  0.56348200  0.10806700  1
  C  102  1  0.79170800  0.53691000  0.09397600  1
  C  103  1  0.81360500  0.52707600  0.09370500  1
  C  104  1  0.84267200  0.54449800  0.10443600  1
  C  105  1  0.75992900  0.51813000  0.08265600  1
  C  106  1  0.74252400  0.49779200  0.10440000  1
  C  107  1  0.74358600  0.47069700  0.10929500  1
  C  108  1  0.72742700  0.45119300  0.12881000  1
  C  109  1  0.71027500  0.45843900  0.14512300  1
  C  110  1  0.71111100  0.48663200  0.14177400  1
  C  111  1  0.72737300  0.50606800  0.12211700  1
  C  112  1  0.74784000  0.53813900  0.07219600  1
  C  113  1  0.75755100  0.49940900  0.05989700  1
  C  114  1  0.72957800  0.47269500  0.05378300  1
  C  115  1  0.72653300  0.45530100  0.03283000  1
  C  116  1  0.75114100  0.46435600  0.01636100  1
  C  117  1  0.77841800  0.49213000  0.02115200  1
  C  118  1  0.78124000  0.50947700  0.04218900  1
  C  119  1  0.76752600  0.56553000  0.05933000  1
  C  120  1  0.75672900  0.58339900  0.04820300  1
  C  121  1  0.72530300  0.57418200  0.04855400  1
  C  122  1  0.70512600  0.54604600  0.06003600  1
  C  123  1  0.71614200  0.52829700  0.07116000  1
  C  140  1  0.74765900  0.44585700  0.99636800  1
  C  141  1  0.87975600  0.59081200  0.12600200  1
  C  144  1  0.69313500  0.43759800  0.16332000  1
  C  146  1  0.71538800  0.59248300  0.03738200  1
  C  148  1  0.27867100  0.85064700  0.28330800  1
  C  149  1  0.24742500  0.82840200  0.28528300  1
  C  150  1  0.23608700  0.79934400  0.27470600  1
  C  151  1  0.25493600  0.79165500  0.26058200  1
  C  152  1  0.28665600  0.81358100  0.26027800  1
  C  153  1  0.29828500  0.84264400  0.27101700  1
  C  154  1  0.24193100  0.75987600  0.24925900  1
  C  155  1  0.24484300  0.74246300  0.27101000  1
  C  156  1  0.27302000  0.74358300  0.27594400  1
  C  157  1  0.27635100  0.72740100  0.29544900  1
  C  158  1  0.25193100  0.71020500  0.31173100  1
  C  159  1  0.22455500  0.71099500  0.30834700  1
  C  160  1  0.22138800  0.72726400  0.28869400  1
  C  161  1  0.20984300  0.74780300  0.23877300  1
  C  162  1  0.25828300  0.75749900  0.22651100  1
  C  163  1  0.25708000  0.72954800  0.22041700  1
  C  164  1  0.27141500  0.72650200  0.19945700  1
  C  165  1  0.28689500  0.75108700  0.18295800  1
  C  166  1  0.28635400  0.77834300  0.18773500  1
  C  167  1  0.27183900  0.78116500  0.20877600  1
  C  168  1  0.20210400  0.76750000  0.22596600  1
  C  169  1  0.17343500  0.75669200  0.21483700  1
  C  170  1  0.15125100  0.72526000  0.21515500  1
  C  171  1  0.15923800  0.70508000  0.22659100  1
  C  172  1  0.18801000  0.71609800  0.23770900  1
  C  189  1  0.30187300  0.74759800  0.16294300  1
  C  190  1  0.28903800  0.87968500  0.29262100  1
  C  193  1  0.25563100  0.69306300  0.32992600  1
  C  195  1  0.12302600  0.71533800  0.20399200  1
  C  197  1  0.57228200  0.72161600  0.94996300  1
  C  198  1  0.58127300  0.75285900  0.95194100  1
  C  199  1  0.56355200  0.76418700  0.94135800  1
  C  200  1  0.53701800  0.74533100  0.92722900  1
  C  201  1  0.52724100  0.71361600  0.92691400  1
  C  202  1  0.54467800  0.70199600  0.93765400  1
  C  203  1  0.51823200  0.75832400  0.91591700  1
  C  204  1  0.49791100  0.75540800  0.93767400  1
  C  205  1  0.47087400  0.72722200  0.94261800  1
  C  206  1  0.45136100  0.72388400  0.96212700  1
  C  207  1  0.45856500  0.74831500  0.97840000  1
  C  208  1  0.48671600  0.77570400  0.97500800  1
  C  209  1  0.50615000  0.77887800  0.95534700  1
  C  210  1  0.53823100  0.79041100  0.90543100  1
  C  211  1  0.49950200  0.74195700  0.89316900  1
  C  212  1  0.47273800  0.74314200  0.88709600  1
  C  213  1  0.45535700  0.72880800  0.86613400  1
  C  214  1  0.46447200  0.71334600  0.84961800  1
  C  215  1  0.49228400  0.71391000  0.85437700  1
  C  216  1  0.50962100  0.72842300  0.87541900  1
  C  217  1  0.56567300  0.79816500  0.89262600  1
  C  218  1  0.58351000  0.82682300  0.88148400  1
  C  219  1  0.57423500  0.84898900  0.88179300  1
  C  220  1  0.54606000  0.84098500  0.89322800  1
  C  221  1  0.52833200  0.81222000  0.90435700  1
  C  238  1  0.44601400  0.69837900  0.82959500  1
  C  239  1  0.59094600  0.71125500  0.95929900  1
  C  242  1  0.43771800  0.74461200  0.99659200  1
  C  244  1  0.59250300  0.87719900  0.87060500  1
  C  246  1  0.14954600  0.42794300  0.61660300  1
  C  247  1  0.17179200  0.41894300  0.61856800  1
  C  248  1  0.20084800  0.43667100  0.60799800  1
  C  249  1  0.20853800  0.46322600  0.59390200  1
  C  250  1  0.18660100  0.47300400  0.59358900  1
  C  251  1  0.15753900  0.45555700  0.60431500  1
  C  252  1  0.24030900  0.48201400  0.58257600  1
  C  253  1  0.25772200  0.50233100  0.60433400  1
  C  254  1  0.25658900  0.52937700  0.60928800  1
  C  255  1  0.27278100  0.54889100  0.62879500  1
  C  256  1  0.29000300  0.54167700  0.64505900  1
  C  257  1  0.28922000  0.51351500  0.64166000  1
  C  258  1  0.27294700  0.49408300  0.62200000  1
  C  259  1  0.25239600  0.46201700  0.57207500  1
  C  260  1  0.24266500  0.50074400  0.55983300  1
  C  261  1  0.27061700  0.52750200  0.55375700  1
  C  262  1  0.27365600  0.54488500  0.53280300  1
  C  263  1  0.24907700  0.53577000  0.51629300  1
  C  264  1  0.22182900  0.50796000  0.52105200  1
  C  265  1  0.21900600  0.49062700  0.54209000  1
  C  266  1  0.23270900  0.43457800  0.55926200  1
  C  267  1  0.24353100  0.41673700  0.54811900  1
  C  268  1  0.27497200  0.42601600  0.54842100  1
  C  269  1  0.29514200  0.45418800  0.55986400  1
  C  270  1  0.28410600  0.47191600  0.57100000  1
  C  287  1  0.25256500  0.55422900  0.49627400  1
  C  288  1  0.12050800  0.40926300  0.62590500  1
  C  291  1  0.30717300  0.56252700  0.66324300  1
  C  293  1  0.28491100  0.40774100  0.53723500  1
  C  295  1  0.76239100  0.33547800  0.86691100  1
  C  296  1  0.73530100  0.33350200  0.87615500  1
  C  297  1  0.73574900  0.35235400  0.89552900  1
  C  298  1  0.76440200  0.37330600  0.90639000  1
  C  299  1  0.79143300  0.37490600  0.89738800  1
  C  300  1  0.79040400  0.35616100  0.87797800  1
  C  303  1  0.76687600  0.39219100  0.92656600  1
  C  304  1  0.75306600  0.37895500  0.94921200  1
  C  305  1  0.75429800  0.39745600  0.96890200  1
  C  306  1  0.76946500  0.42959800  0.96639300  1
  C  307  1  0.78440100  0.44294900  0.94418500  1
  C  308  1  0.78299800  0.42441700  0.92439900  1
  C  319  1  0.57337900  0.23786400  0.53357100  1
  C  320  1  0.59847900  0.26494500  0.54284800  1
  C  321  1  0.61686300  0.26447400  0.56222500  1
  C  322  1  0.60915900  0.23580900  0.57305400  1
  C  323  1  0.58374500  0.20878600  0.56401700  1
  C  324  1  0.56604900  0.20983800  0.54460500  1
  C  327  1  0.62554800  0.23331300  0.59323200  1
  C  328  1  0.62608600  0.24708700  0.61589300  1
  C  329  1  0.64333800  0.24583800  0.63558600  1
  C  330  1  0.66033200  0.23069200  0.63306800  1
  C  331  1  0.65878100  0.21579100  0.61084500  1
  C  332  1  0.64167100  0.21720900  0.59105500  1
  C  343  1  0.66471800  0.42685100  0.20023800  1
  C  344  1  0.66670800  0.40175500  0.20950200  1
  C  345  1  0.64785900  0.38336300  0.22887700  1
  C  346  1  0.62689100  0.39105700  0.23971700  1
  C  347  1  0.62527300  0.41646800  0.23069300  1
  C  348  1  0.64401700  0.43417200  0.21128300  1
  C  351  1  0.60800900  0.37466000  0.25989200  1
  C  352  1  0.62124800  0.37412000  0.28254800  1
  C  353  1  0.60275400  0.35686800  0.30224000  1
  C  354  1  0.57061200  0.33987200  0.29972400  1
  C  355  1  0.55725700  0.34142300  0.27750600  1
  C  356  1  0.57578300  0.35853600  0.25771800  1
  C  367  1  0.23794200  0.66463100  0.36683700  1
  C  368  1  0.26502300  0.66660700  0.37610600  1
  C  369  1  0.26455300  0.64775600  0.39548200  1
  C  370  1  0.23588800  0.62679900  0.40631800  1
  C  371  1  0.20886800  0.62519500  0.39728600  1
  C  372  1  0.20991800  0.64394000  0.37787600  1
  C  375  1  0.23339300  0.60791400  0.42649300  1
  C  376  1  0.24717500  0.62114800  0.44915300  1
  C  377  1  0.24592200  0.60264700  0.46884300  1
  C  378  1  0.23076200  0.57050400  0.46632300  1
  C  379  1  0.21585400  0.55715500  0.44410200  1
  C  380  1  0.21727700  0.57568600  0.42431500  1
  C  391  1  0.42695800  0.76228500  0.03350700  1
  C  392  1  0.40185500  0.73518833  0.04276800  1
  C  393  1  0.38346100  0.73565700  0.06214100  1
  C  394  1  0.39115600  0.76431800  0.07298400  1
  C  395  1  0.41657200  0.79134700  0.06396600  1
  C  396  1  0.43428000  0.79030600  0.04455600  1
  C  399  1  0.37475400  0.76680300  0.09316100  1
  C  400  1  0.37420200  0.75301600  0.11581400  1
  C  401  1  0.35694100  0.75425600  0.13550400  1
  C  402  1  0.33995300  0.76940800  0.13298900  1
  C  403  1  0.34151800  0.78432400  0.11077400  1
  C  404  1  0.35863800  0.78291200  0.09098900  1
  C  415  1  0.33555500  0.57325900  0.70018100  1
  C  416  1  0.33359500  0.59838100  0.70943400  1
  C  417  1  0.35245200  0.61677400  0.72880900  1
  C  418  1  0.37339500  0.60905800  0.73966200  1
  C  419  1  0.37498100  0.58362100  0.73065000  1
  C  420  1  0.35623100  0.56591600  0.71123900  1
  C  423  1  0.39228500  0.62546000  0.75983700  1
  C  424  1  0.37905800  0.62604100  0.78248800  1
  C  425  1  0.39756700  0.64330400  0.80217600  1
  C  426  1  0.42970700  0.66026700  0.79966100  1
  C  427  1  0.44305100  0.65867600  0.77744800  1
  C  428  1  0.42451400  0.64155500  0.75766300  1
  C  439  1  0.67267400  0.07769600  0.81331900  1
  C  440  1  0.65915500  0.07290900  0.83665200  1
  C  441  1  0.64537700  0.04389000  0.84819800  1
  C  442  1  0.64437300  0.01879400  0.83536200  1
  C  443  1  0.65747200  0.02361100  0.81173600  1
  C  444  1  0.67142400  0.05265400  0.80083800  1
  C  447  1  0.63017300  0.98861200  0.84500400  1
  C  448  1  0.59837900  0.97218200  0.84963600  1
  C  449  1  0.58432300  0.94213900  0.85881100  1
  C  450  1  0.60154000  0.92759400  0.86310700  1
  C  451  1  0.63337800  0.94405400  0.85854000  1
  C  452  1  0.64747900  0.97412300  0.84945700  1
  C  463  1  0.40530500  0.32760100  0.48000100  1
  C  464  1  0.41401200  0.34111200  0.50334200  1
  C  465  1  0.39875700  0.35488100  0.51488200  1
  C  466  1  0.37467400  0.35588600  0.50203500  1
  C  467  1  0.36641800  0.34279600  0.47840100  1
  C  468  1  0.38152300  0.32885300  0.46750900  1
  C  471  1  0.35868300  0.37008200  0.51167100  1
  C  472  1  0.37404100  0.40187400  0.51631200  1
  C  473  1  0.35804500  0.41592800  0.52547500  1
  C  474  1  0.32627800  0.39870800  0.52975200  1
  C  475  1  0.31090500  0.36687000  0.52517700  1
  C  476  1  0.32688400  0.35277200  0.51610300  1
  C  487  1  0.92253300  0.59488500  0.14664600  1
  C  488  1  0.92734400  0.58616900  0.16997600  1
  C  489  1  0.95637400  0.60142700  0.18151300  1
  C  490  1  0.98145100  0.62552000  0.16867100  1
  C  491  1  0.97660800  0.63378400  0.14504600  1
  C  492  1  0.94755800  0.61867600  0.13415700  1
  C  495  1  0.01163800  0.64151900  0.17830600  1
  C  496  1  0.02809500  0.62618000  0.18291400  1
  C  497  1  0.05814100  0.64218400  0.19208700  1
  C  498  1  0.07266200  0.67394400  0.19640600  1
  C  499  1  0.05617300  0.68929800  0.19185800  1
  C  500  1  0.02610000  0.67331000  0.18277700  1
  C  511  1  0.32770700  0.92243900  0.31331800  1
  C  512  1  0.34121400  0.92722700  0.33665700  1
  C  513  1  0.35497600  0.95624400  0.34821400  1
  C  514  1  0.35597200  0.98133600  0.33538300  1
  C  515  1  0.34288500  0.97651600  0.31175300  1
  C  516  1  0.32895100  0.94747700  0.30084200  1
  C  519  1  0.37016500  0.01151800  0.34503500  1
  C  520  1  0.40195700  0.02795600  0.34966700  1
  C  521  1  0.41600800  0.05800100  0.35884300  1
  C  522  1  0.39878300  0.07253900  0.36314400  1
  C  523  1  0.36694300  0.05606900  0.35857600  1
  C  524  1  0.35284900  0.02599500  0.34949000  1
  C  535  1  0.59501700  0.67256600  0.97996700  1
  C  536  1  0.58627700  0.65904000  0.00329600  1
  C  537  1  0.60152400  0.64527200  0.01485000  1
  C  538  1  0.62562900  0.64428300  0.00202600  1
  C  539  1  0.63391700  0.65738800  0.97840300  1
  C  540  1  0.61882000  0.67133000  0.96749700  1
  C  543  1  0.64161500  0.63009100  0.01167600  1
  C  544  1  0.62626300  0.59829500  0.01628800  1
  C  545  1  0.64225300  0.58424700  0.02547100  1
  C  546  1  0.67401000  0.60147500  0.02979800  1
  C  547  1  0.68937800  0.63331700  0.02524800  1
  C  548  1  0.67340400  0.64740900  0.01615600  1
  C  559  1  0.07778100  0.40517800  0.64664900  1
  C  560  1  0.07301300  0.41390700  0.66999000  1
  C  561  1  0.04400500  0.39866300  0.68155600  1
  C  562  1  0.01889800  0.37457000  0.66872900  1
  C  563  1  0.02369700  0.36629100  0.64509500  1
  C  564  1  0.05272900  0.38138500  0.63417900  1
  C  567  1  0.98872400  0.35859500  0.67838700  1
  C  568  1  0.97230400  0.37396600  0.68303500  1
  C  569  1  0.94226200  0.35798300  0.69221700  1
  C  570  1  0.92770900  0.32621700  0.69649900  1
  C  571  1  0.94416100  0.31083300  0.69191700  1
  C  572  1  0.97422800  0.32679900  0.68282600  1
  C  583  1  0.70193200  0.50587500  0.78331900  1
  C  584  1  0.73318500  0.52810600  0.78526600  1
  C  585  1  0.74452100  0.55715700  0.77468600  1
  C  586  1  0.72565100  0.56487000  0.76062000  1
  C  587  1  0.69392900  0.54295200  0.76033300  1
  C  588  1  0.68230700  0.51388700  0.77105500  1
  C  589  1  0.73863200  0.59664500  0.74930500  1
  C  590  1  0.73570500  0.61403700  0.77107000  1
  C  591  1  0.70754600  0.61295900  0.77598600  1
  C  592  1  0.70422000  0.62914200  0.79549600  1
  C  593  1  0.72864700  0.64634400  0.81177500  1
  C  594  1  0.75601200  0.64552800  0.80840200  1
  C  595  1  0.75916900  0.62924500  0.78874900  1
  C  596  1  0.77072500  0.60875500  0.73881600  1
  C  597  1  0.72227400  0.59902100  0.72655700  1
  C  598  1  0.72347200  0.62697200  0.72048400  1
  C  599  1  0.70910100  0.63000400  0.69954300  1
  C  600  1  0.69358900  0.60540900  0.68305000  1
  C  601  1  0.69412400  0.57814800  0.68781500  1
  C  602  1  0.70866300  0.57533200  0.70884100  1
  C  603  1  0.77845200  0.58906800  0.72597300  1
  C  604  1  0.80711500  0.59988800  0.71483300  1
  C  605  1  0.82929800  0.63132400  0.71517300  1
  C  606  1  0.82131600  0.65149100  0.72664800  1
  C  607  1  0.79255300  0.64046000  0.73778100  1
  C  624  1  0.67857900  0.60889000  0.66305400  1
  C  625  1  0.69156200  0.47684300  0.79264100  1
  C  628  1  0.72496700  0.66351500  0.82995900  1
  C  630  1  0.85750500  0.64126200  0.70397900  1
  C  632  1  0.40825700  0.63494100  0.45001300  1
  C  633  1  0.39922400  0.60368600  0.45194900  1
  C  634  1  0.41694500  0.59234700  0.44138000  1
  C  635  1  0.44351700  0.61120400  0.42729800  1
  C  636  1  0.45334300  0.64293200  0.42704200  1
  C  637  1  0.43590700  0.65456300  0.43776800  1
  C  638  1  0.46231000  0.59821900  0.41598100  1
  C  639  1  0.48264400  0.60115200  0.43773100  1
  C  640  1  0.50973200  0.62931100  0.44264100  1
  C  641  1  0.52923600  0.63265500  0.46215900  1
  C  642  1  0.52199400  0.60824970  0.47846200  1
  C  643  1  0.49380400  0.58089170  0.47509800  1
  C  644  1  0.47437000  0.57772000  0.45543700  1
  C  645  1  0.44231200  0.56612100  0.40550900  1
  C  646  1  0.48103200  0.61456900  0.39323100  1
  C  647  1  0.50775400  0.61332500  0.38712400  1
  C  648  1  0.52514700  0.62767700  0.36617600  1
  C  649  1  0.51608300  0.64321600  0.34970400  1
  C  650  1  0.48830300  0.64270900  0.35448800  1
  C  651  1  0.47095900  0.62818500  0.37552100  1
  C  652  1  0.41491900  0.55840400  0.39263600  1
  C  653  1  0.39706200  0.52973800  0.38149800  1
  C  654  1  0.40628700  0.50753600  0.38185700  1
  C  655  1  0.43442900  0.51550770  0.39333700  1
  C  656  1  0.45216900  0.54427570  0.40446700  1
  C  673  1  0.53457600  0.65822900  0.32971000  1
  C  674  1  0.38958900  0.64531500  0.45932300  1
  C  677  1  0.54283200  0.61195170  0.49666400  1
  C  679  1  0.38800000  0.47932070  0.37067500  1
  C  681  1  0.83091300  0.92854370  0.11669100  1
  C  682  1  0.80869600  0.93758700  0.11863800  1
  C  683  1  0.77963500  0.91987600  0.10806700  1
  C  684  1  0.77190800  0.89330400  0.09397600  1
  C  685  1  0.79380500  0.88346970  0.09370500  1
  C  686  1  0.82287200  0.90089170  0.10443600  1
  C  687  1  0.74012900  0.87452400  0.08265600  1
  C  688  1  0.72272400  0.85418600  0.10440000  1
  C  689  1  0.72378600  0.82709100  0.10929500  1
  C  690  1  0.70762700  0.80758670  0.12881000  1
  C  691  1  0.69047500  0.81483300  0.14512300  1
  C  692  1  0.69131100  0.84302600  0.14177400  1
  C  693  1  0.70757300  0.86246200  0.12211700  1
  C  694  1  0.72804000  0.89453300  0.07219600  1
  C  695  1  0.73775100  0.85580300  0.05989700  1
  C  696  1  0.70977800  0.82908900  0.05378300  1
  C  697  1  0.70673300  0.81169500  0.03283000  1
  C  698  1  0.73134100  0.82074970  0.01636100  1
  C  699  1  0.75861800  0.84852370  0.02115200  1
  C  700  1  0.76144000  0.86587100  0.04218900  1
  C  701  1  0.74772600  0.92192400  0.05933000  1
  C  702  1  0.73692900  0.93979300  0.04820300  1
  C  703  1  0.70550300  0.93057600  0.04855400  1
  C  704  1  0.68532600  0.90244000  0.06003600  1
  C  705  1  0.69634200  0.88469100  0.07116000  1
  C  722  1  0.72785900  0.80225070  0.99636800  1
  C  723  1  0.85995600  0.94720570  0.12600200  1
  C  726  1  0.67333500  0.79399200  0.16332000  1
  C  728  1  0.69558800  0.94887700  0.03738200  1
  C  730  1  0.25887100  0.20704100  0.28330800  1
  C  731  1  0.22762500  0.18479600  0.28528300  1
  C  732  1  0.21628700  0.15573800  0.27470600  1
  C  733  1  0.23513600  0.14804900  0.26058200  1
  C  734  1  0.26685600  0.16997500  0.26027800  1
  C  735  1  0.27848500  0.19903800  0.27101700  1
  C  736  1  0.22213100  0.11627000  0.24925900  1
  C  737  1  0.22504300  0.09885700  0.27101000  1
  C  738  1  0.25322000  0.09997700  0.27594400  1
  C  739  1  0.25655100  0.08379500  0.29544900  1
  C  740  1  0.23213100  0.06659900  0.31173100  1
  C  741  1  0.20475500  0.06738900  0.30834700  1
  C  742  1  0.20158800  0.08365800  0.28869400  1
  C  743  1  0.19004300  0.10419700  0.23877300  1
  C  744  1  0.23848300  0.11389300  0.22651100  1
  C  745  1  0.23728000  0.08594200  0.22041700  1
  C  746  1  0.25161500  0.08289600  0.19945700  1
  C  747  1  0.26709500  0.10748100  0.18295800  1
  C  748  1  0.26655400  0.13473700  0.18773500  1
  C  749  1  0.25203900  0.13755900  0.20877600  1
  C  750  1  0.18230400  0.12389400  0.22596600  1
  C  751  1  0.15363500  0.11308600  0.21483700  1
  C  752  1  0.13145100  0.08165400  0.21515500  1
  C  753  1  0.13943800  0.06147400  0.22659100  1
  C  754  1  0.16821000  0.07249200  0.23770900  1
  C  771  1  0.28207300  0.10399200  0.16294300  1
  C  772  1  0.26923800  0.23607900  0.29262100  1
  C  775  1  0.23583100  0.04945700  0.32992600  1
  C  777  1  0.10322600  0.07173200  0.20399200  1
  C  779  1  0.55248200  0.07801000  0.94996300  1
  C  780  1  0.56147300  0.10925300  0.95194100  1
  C  781  1  0.54375200  0.12058100  0.94135800  1
  C  782  1  0.51721800  0.10172500  0.92722900  1
  C  783  1  0.50744100  0.07001000  0.92691400  1
  C  784  1  0.52487800  0.05839000  0.93765400  1
  C  785  1  0.49843200  0.11471800  0.91591700  1
  C  786  1  0.47811100  0.11180200  0.93767400  1
  C  787  1  0.45107400  0.08361600  0.94261800  1
  C  788  1  0.43156100  0.08027800  0.96212700  1
  C  789  1  0.43876500  0.10470900  0.97840000  1
  C  790  1  0.46691600  0.13209800  0.97500800  1
  C  791  1  0.48635000  0.13527200  0.95534700  1
  C  792  1  0.51843100  0.14680500  0.90543100  1
  C  793  1  0.47970200  0.09835100  0.89316900  1
  C  794  1  0.45293800  0.09953600  0.88709600  1
  C  795  1  0.43555700  0.08520200  0.86613400  1
  C  796  1  0.44467200  0.06974000  0.84961800  1
  C  797  1  0.47248400  0.07030400  0.85437700  1
  C  798  1  0.48982100  0.08481700  0.87541900  1
  C  799  1  0.54587300  0.15455900  0.89262600  1
  C  800  1  0.56371000  0.18321700  0.88148400  1
  C  801  1  0.55443500  0.20538300  0.88179300  1
  C  802  1  0.52626000  0.19737900  0.89322800  1
  C  803  1  0.50853200  0.16861400  0.90435700  1
  C  820  1  0.42621400  0.05477300  0.82959500  1
  C  821  1  0.57114600  0.06764900  0.95929900  1
  C  824  1  0.41791800  0.10100600  0.99659200  1
  C  826  1  0.57270300  0.23359300  0.87060500  1
  C  828  1  0.12974600  0.78433700  0.61660300  1
  C  829  1  0.15199200  0.77533700  0.61856800  1
  C  830  1  0.18104800  0.79306500  0.60799800  1
  C  831  1  0.18873800  0.81962000  0.59390200  1
  C  832  1  0.16680100  0.82939800  0.59358900  1
  C  833  1  0.13773900  0.81195100  0.60431500  1
  C  834  1  0.22050900  0.83840800  0.58257600  1
  C  835  1  0.23792200  0.85872500  0.60433400  1
  C  836  1  0.23678900  0.88577100  0.60928800  1
  C  837  1  0.25298100  0.90528500  0.62879500  1
  C  838  1  0.27020300  0.89807100  0.64505900  1
  C  839  1  0.26942000  0.86990900  0.64166000  1
  C  840  1  0.25314700  0.85047700  0.62200000  1
  C  841  1  0.23259600  0.81841100  0.57207500  1
  C  842  1  0.22286500  0.85713800  0.55983300  1
  C  843  1  0.25081700  0.88389600  0.55375700  1
  C  844  1  0.25385600  0.90127900  0.53280300  1
  C  845  1  0.22927700  0.89216400  0.51629300  1
  C  846  1  0.20202900  0.86435400  0.52105200  1
  C  847  1  0.19920600  0.84702100  0.54209000  1
  C  848  1  0.21290900  0.79097200  0.55926200  1
  C  849  1  0.22373100  0.77313100  0.54811900  1
  C  850  1  0.25517200  0.78241000  0.54842100  1
  C  851  1  0.27534200  0.81058200  0.55986400  1
  C  852  1  0.26430600  0.82831000  0.57100000  1
  C  869  1  0.23276500  0.91062300  0.49627400  1
  C  870  1  0.10070800  0.76565700  0.62590500  1
  C  873  1  0.28737300  0.91892100  0.66324300  1
  C  875  1  0.26511100  0.76413500  0.53723500  1
  C  877  1  0.74259100  0.69187200  0.86691100  1
  C  878  1  0.71550100  0.68989600  0.87615500  1
  C  879  1  0.71594900  0.70874800  0.89552900  1
  C  880  1  0.74460200  0.72970000  0.90639000  1
  C  881  1  0.77163300  0.73130000  0.89738800  1
  C  882  1  0.77060400  0.71255500  0.87797800  1
  C  885  1  0.74707600  0.74858467  0.92656600  1
  C  886  1  0.73326600  0.73534867  0.94921200  1
  C  887  1  0.73449800  0.75384970  0.96890200  1
  C  888  1  0.74966500  0.78599170  0.96639300  1
  C  889  1  0.76460100  0.79934270  0.94418500  1
  C  890  1  0.76319800  0.78081070  0.92439900  1
  C  901  1  0.55357900  0.59425770  0.53357100  1
  C  902  1  0.57867900  0.62133870  0.54284800  1
  C  903  1  0.59706300  0.62086770  0.56222500  1
  C  904  1  0.58935900  0.59220267  0.57305400  1
  C  905  1  0.56394500  0.56517967  0.56401700  1
  C  906  1  0.54624900  0.56623170  0.54460500  1
  C  909  1  0.60574800  0.58970700  0.59323200  1
  C  910  1  0.60628600  0.60348100  0.61589300  1
  C  911  1  0.62353800  0.60223200  0.63558600  1
  C  912  1  0.64053200  0.58708600  0.63306800  1
  C  913  1  0.63898100  0.57218500  0.61084500  1
  C  914  1  0.62187100  0.57360300  0.59105500  1
  C  925  1  0.64491800  0.78324500  0.20023800  1
  C  926  1  0.64690800  0.75814900  0.20950200  1
  C  927  1  0.62805900  0.73975700  0.22887700  1
  C  928  1  0.60709100  0.74745100  0.23971700  1
  C  929  1  0.60547300  0.77286200  0.23069300  1
  C  930  1  0.62421700  0.79056600  0.21128300  1
  C  933  1  0.58820900  0.73105400  0.25989200  1
  C  934  1  0.60144800  0.73051400  0.28254800  1
  C  935  1  0.58295400  0.71326200  0.30224000  1
  C  936  1  0.55081200  0.69626600  0.29972400  1
  C  937  1  0.53745700  0.69781700  0.27750600  1
  C  938  1  0.55598300  0.71493000  0.25771800  1
  C  949  1  0.21814200  0.02102500  0.36683700  1
  C  950  1  0.24522300  0.02300100  0.37610600  1
  C  951  1  0.24475300  0.00415000  0.39548200  1
  C  952  1  0.21608800  0.98319300  0.40631800  1
  C  953  1  0.18906800  0.98158900  0.39728600  1
  C  954  1  0.19011800  0.00033400  0.37787600  1
  C  957  1  0.21359300  0.96430800  0.42649300  1
  C  958  1  0.22737500  0.97754200  0.44915300  1
  C  959  1  0.22612200  0.95904100  0.46884300  1
  C  960  1  0.21096200  0.92689800  0.46632300  1
  C  961  1  0.19605400  0.91354900  0.44410200  1
  C  962  1  0.19747700  0.93208000  0.42431500  1
  C  973  1  0.40715800  0.11867900  0.03350700  1
  C  974  1  0.38205500  0.09159200  0.04276800  1
  C  975  1  0.36366100  0.09205100  0.06214100  1
  C  976  1  0.37135600  0.12071200  0.07298400  1
  C  977  1  0.39677200  0.14774100  0.06396600  1
  C  978  1  0.41448000  0.14670000  0.04455600  1
  C  981  1  0.35495400  0.12319700  0.09316100  1
  C  982  1  0.35440200  0.10941000  0.11581400  1
  C  983  1  0.33714100  0.11065000  0.13550400  1
  C  984  1  0.32015300  0.12580200  0.13298900  1
  C  985  1  0.32171800  0.14071800  0.11077400  1
  C  986  1  0.33883800  0.13930600  0.09098900  1
  C  997  1  0.31575500  0.92965300  0.70018100  1
  C  998  1  0.31379500  0.95477500  0.70943400  1
  C  999  1  0.33265200  0.97316800  0.72880900  1
  C  1000  1  0.35359500  0.96545200  0.73966200  1
  C  1001  1  0.35518100  0.94001500  0.73065000  1
  C  1002  1  0.33643100  0.92231000  0.71123900  1
  C  1005  1  0.37248500  0.98185400  0.75983700  1
  C  1006  1  0.35925800  0.98243500  0.78248800  1
  C  1007  1  0.37776700  0.99969800  0.80217600  1
  C  1008  1  0.40990700  0.01666100  0.79966100  1
  C  1009  1  0.42325100  0.01507000  0.77744800  1
  C  1010  1  0.40471400  0.99794900  0.75766300  1
  C  1021  1  0.65287400  0.43409000  0.81331900  1
  C  1022  1  0.63935500  0.42930300  0.83665200  1
  C  1023  1  0.62557700  0.40028400  0.84819800  1
  C  1024  1  0.62457300  0.37518800  0.83536200  1
  C  1025  1  0.63767200  0.38000500  0.81173600  1
  C  1026  1  0.65162400  0.40904800  0.80083800  1
  C  1029  1  0.61037300  0.34500600  0.84500400  1
  C  1030  1  0.57857900  0.32857600  0.84963600  1
  C  1031  1  0.56452300  0.29853300  0.85881100  1
  C  1032  1  0.58174000  0.28398800  0.86310700  1
  C  1033  1  0.61357800  0.30044800  0.85854000  1
  C  1034  1  0.62767900  0.33051700  0.84945700  1
  C  1045  1  0.38550500  0.68399500  0.48000100  1
  C  1046  1  0.39421200  0.69750600  0.50334200  1
  C  1047  1  0.37895700  0.71127500  0.51488200  1
  C  1048  1  0.35487400  0.71228000  0.50203500  1
  C  1049  1  0.34661800  0.69919000  0.47840100  1
  C  1050  1  0.36172300  0.68524700  0.46750900  1
  C  1053  1  0.33888300  0.72647600  0.51167100  1
  C  1054  1  0.35424100  0.75826800  0.51631200  1
  C  1055  1  0.33824500  0.77232200  0.52547500  1
  C  1056  1  0.30647800  0.75510200  0.52975200  1
  C  1057  1  0.29110500  0.72326400  0.52517700  1
  C  1058  1  0.30708400  0.70916600  0.51610300  1
  C  1069  1  0.90273330  0.95127900  0.14664600  1
  C  1070  1  0.90754430  0.94256300  0.16997600  1
  C  1071  1  0.93657430  0.95782100  0.18151300  1
  C  1072  1  0.96165130  0.98191400  0.16867100  1
  C  1073  1  0.95680830  0.99017800  0.14504600  1
  C  1074  1  0.92775830  0.97507000  0.13415700  1
  C  1077  1  0.99183829  0.99791296  0.17830600  1
  C  1078  1  0.00829500  0.98257400  0.18291400  1
  C  1079  1  0.03834100  0.99857800  0.19208700  1
  C  1080  1  0.05286200  0.03033800  0.19640600  1
  C  1081  1  0.03637300  0.04569167  0.19185800  1
  C  1082  1  0.00630000  0.02970370  0.18277700  1
  C  1093  1  0.30790700  0.27883300  0.31331800  1
  C  1094  1  0.32141400  0.28362100  0.33665700  1
  C  1095  1  0.33517600  0.31263800  0.34821400  1
  C  1096  1  0.33617200  0.33772967  0.33538300  1
  C  1097  1  0.32308500  0.33290967  0.31175300  1
  C  1098  1  0.30915100  0.30387100  0.30084200  1
  C  1101  1  0.35036500  0.36791170  0.34503500  1
  C  1102  1  0.38215700  0.38434967  0.34966700  1
  C  1103  1  0.39620800  0.41439470  0.35884300  1
  C  1104  1  0.37898300  0.42893270  0.36314400  1
  C  1105  1  0.34714300  0.41246270  0.35857600  1
  C  1106  1  0.33304900  0.38238870  0.34949000  1
  C  1117  1  0.57521700  0.02896000  0.97996700  1
  C  1118  1  0.56647700  0.01543400  0.00329600  1
  C  1119  1  0.58172400  0.00166600  0.01485000  1
  C  1120  1  0.60582900  0.00067700  0.00202600  1
  C  1121  1  0.61411700  0.01378200  0.97840300  1
  C  1122  1  0.59902000  0.02772400  0.96749700  1
  C  1125  1  0.62181500  0.98648500  0.01167600  1
  C  1126  1  0.60646300  0.95468900  0.01628800  1
  C  1127  1  0.62245300  0.94064100  0.02547100  1
  C  1128  1  0.65421000  0.95786900  0.02979800  1
  C  1129  1  0.66957800  0.98971100  0.02524800  1
  C  1130  1  0.65360400  0.00380300  0.01615600  1
  C  1141  1  0.05798100  0.76157200  0.64664900  1
  C  1142  1  0.05321300  0.77030100  0.66999000  1
  C  1143  1  0.02420500  0.75505700  0.68155600  1
  C  1144  1  0.99909829  0.73096429  0.66872900  1
  C  1145  1  0.00389700  0.72268500  0.64509500  1
  C  1146  1  0.03292900  0.73777900  0.63417900  1
  C  1149  1  0.96892430  0.71498930  0.67838700  1
  C  1150  1  0.95250430  0.73036030  0.68303500  1
  C  1151  1  0.92246230  0.71437730  0.69221700  1
  C  1152  1  0.90790930  0.68261130  0.69649900  1
  C  1153  1  0.92436130  0.66722730  0.69191700  1
  C  1154  1  0.95442830  0.68319330  0.68282600  1
  N  314  1  0.70879600  0.35012400  0.90246100  1
  N  317  1  0.77052200  0.44744100  0.98466200  1
  N  318  1  0.76293100  0.31861300  0.84835700  1
  N  338  1  0.64157400  0.29142200  0.56919200  1
  N  341  1  0.67711400  0.22963400  0.65133600  1
  N  342  1  0.55598700  0.23734000  0.51501400  1
  N  362  1  0.65010500  0.35865700  0.23583000  1
  N  365  1  0.55277500  0.32309300  0.31799400  1
  N  366  1  0.68158200  0.44424800  0.18168600  1
  N  386  1  0.29150000  0.64998900  0.40244100  1
  N  389  1  0.22970100  0.55266400  0.48458900  1
  N  390  1  0.23742100  0.68150200  0.34828400  1
  N  410  1  0.35875000  0.70870600  0.06908800  1
  N  413  1  0.32316900  0.77046600  0.15125700  1
  N  414  1  0.44436100  0.76281700  0.01495800  1
  N  434  1  0.35023600  0.64150500  0.73575100  1
  N  437  1  0.44755500  0.67705400  0.81792600  1
  N  438  1  0.31868300  0.55585900  0.68162800  1
  N  458  1  0.63442200  0.04144500  0.87135300  1
  N  461  1  0.58685700  0.89932200  0.87205500  1
  N  462  1  0.68543900  0.10550800  0.80359300  1
  N  482  1  0.40724500  0.36583100  0.53804400  1
  N  485  1  0.31268200  0.41338800  0.53869400  1
  N  486  1  0.42036200  0.31484000  0.47028100  1
  N  506  1  0.95884500  0.59292900  0.20466500  1
  N  509  1  0.10093800  0.68754400  0.20535000  1
  N  510  1  0.89471200  0.57983200  0.13693200  1
  N  530  1  0.36592400  0.95869200  0.37137400  1
  N  533  1  0.41346300  0.10081200  0.37209100  1
  N  534  1  0.31495900  0.89463100  0.30358000  1
  N  554  1  0.59300500  0.63430800  0.03800000  1
  N  557  1  0.68759700  0.58679300  0.03874900  1
  N  558  1  0.57996400  0.68532100  0.97023300  1
  N  578  1  0.04157700  0.40717300  0.70471600  1
  N  581  1  0.89944000  0.31263200  0.70544800  1
  N  582  1  0.10558300  0.42023100  0.63690600  1
  N  896  1  0.68899600  0.70651770  0.90246100  1
  N  899  1  0.75072200  0.80383470  0.98466200  1
  N  900  1  0.74313100  0.67500700  0.84835700  1
  N  920  1  0.62177400  0.64781570  0.56919200  1
  N  923  1  0.65731400  0.58602800  0.65133600  1
  N  924  1  0.53618700  0.59373370  0.51501400  1
  N  944  1  0.63030500  0.71505070  0.23583000  1
  N  947  1  0.53297500  0.67948700  0.31799400  1
  N  948  1  0.66178200  0.80064200  0.18168600  1
  N  968  1  0.27170000  0.00638300  0.40244100  1
  N  971  1  0.20990100  0.90905800  0.48458900  1
  N  972  1  0.21762100  0.03789600  0.34828400  1
  N  992  1  0.33895000  0.06510000  0.06908800  1
  N  995  1  0.30336900  0.12686000  0.15125700  1
  N  996  1  0.42456100  0.11921100  0.01495800  1
  N  1016  1  0.33043600  0.99789900  0.73575100  1
  N  1019  1  0.42775500  0.03344800  0.81792600  1
  N  1020  1  0.29888300  0.91225300  0.68162800  1
  N  1040  1  0.61462200  0.39783900  0.87135300  1
  N  1043  1  0.56705700  0.25571600  0.87205500  1
  N  1044  1  0.66563900  0.46190200  0.80359300  1
  N  1064  1  0.38744500  0.72222500  0.53804400  1
  N  1067  1  0.29288200  0.76978200  0.53869400  1
  N  1068  1  0.40056200  0.67123400  0.47028100  1
  N  1088  1  0.93904530  0.94932300  0.20466500  1
  N  1091  1  0.08113800  0.04393800  0.20535000  1
  N  1092  1  0.87491200  0.93622570  0.13693200  1
  N  1112  1  0.34612400  0.31508600  0.37137400  1
  N  1115  1  0.39366300  0.45720570  0.37209100  1
  N  1116  1  0.29515900  0.25102500  0.30358000  1
  N  1136  1  0.57320500  0.99070200  0.03800000  1
  N  1139  1  0.66779700  0.94318700  0.03874900  1
  N  1140  1  0.56016400  0.04171500  0.97023300  1
  N  1160  1  0.02177700  0.76356700  0.70471600  1
  N  1163  1  0.87964000  0.66902600  0.70544800  1
  N  1164  1  0.08578300  0.77662500  0.63690600  1
