# generated using pymatgen
data_H28C39N8
_symmetry_space_group_name_H-M   'P 1'
_cell_length_a   56.18720000
_cell_length_b   56.18720000
_cell_length_c   106.01600000
_cell_angle_alpha   90.00000000
_cell_angle_beta   90.00000000
_cell_angle_gamma   90.00000000
_symmetry_Int_Tables_number   1
_chemical_formula_structural   H28C39N8
_chemical_formula_sum   'H896 C1248 N256'
_cell_volume   334692.66507014
_cell_formula_units_Z   32
loop_
 _symmetry_equiv_pos_site_id
 _symmetry_equiv_pos_as_xyz
  1  'x, y, z'
loop_
 _atom_site_type_symbol
 _atom_site_label
 _atom_site_symmetry_multiplicity
 _atom_site_fract_x
 _atom_site_fract_y
 _atom_site_fract_z
 _atom_site_occupancy
  H  26  1  0.15708600  0.37032400  0.00951600  1
  H  27  1  0.11862500  0.36819800  0.01888400  1
  H  28  1  0.17890900  0.41798100  0.03752900  1
  H  29  1  0.14096100  0.41588500  0.04696900  1
  H  30  1  0.09965700  0.43708700  0.04661700  1
  H  31  1  0.07933500  0.46832200  0.03592800  1
  H  32  1  0.05704800  0.42006900  0.00811700  1
  H  33  1  0.07744400  0.38894100  0.01866300  1
  H  34  1  0.05440900  0.37685300  0.04059100  1
  H  35  1  0.03495700  0.33981400  0.03860500  1
  H  36  1  0.10084500  0.30470100  0.03864600  1
  H  37  1  0.12065900  0.34212600  0.04056400  1
  H  38  1  0.13599900  0.37227200  0.05799600  1
  H  39  1  0.06960200  0.40664400  0.05894900  1
  H  40  1  0.07199000  0.40850600  0.08141300  1
  H  45  1  0.13845400  0.37461400  0.08025800  1
  H  71  1  0.35097500  0.63729800  0.50961400  1
  H  72  1  0.38909000  0.63897600  0.51911700  1
  H  73  1  0.32790900  0.58990300  0.53746600  1
  H  74  1  0.36605500  0.59121100  0.54705800  1
  H  75  1  0.40768200  0.57022800  0.54662400  1
  H  76  1  0.42798500  0.53899500  0.53592900  1
  H  77  1  0.45026100  0.58725100  0.50811600  1
  H  78  1  0.42987500  0.61837400  0.51866700  1
  H  79  1  0.45292200  0.63047600  0.54059300  1
  H  80  1  0.47237300  0.66750800  0.53859900  1
  H  81  1  0.40648600  0.70262600  0.53864400  1
  H  82  1  0.38667300  0.66520300  0.54056600  1
  H  83  1  0.37134200  0.63508400  0.55800400  1
  H  84  1  0.43772600  0.60066700  0.55896400  1
  H  85  1  0.43530700  0.59880200  0.58142700  1
  H  90  1  0.36884900  0.63269900  0.58025900  1
  H  116  1  0.88546700  0.90532200  0.25903500  1
  H  117  1  0.88853700  0.86761200  0.26896700  1
  H  118  1  0.83806600  0.92808100  0.28705600  1
  H  119  1  0.84070700  0.89044100  0.29701200  1
  H  120  1  0.82023500  0.84964300  0.29661900  1
  H  121  1  0.78900700  0.82934500  0.28593100  1
  H  122  1  0.83725500  0.80705400  0.25811900  1
  H  123  1  0.86837600  0.82743600  0.26865900  1
  H  124  1  0.88046700  0.80441800  0.29059600  1
  H  125  1  0.91749700  0.78495400  0.28861300  1
  H  126  1  0.95264200  0.85082300  0.28865000  1
  H  127  1  0.91527100  0.87063800  0.29059500  1
  H  128  1  0.88516400  0.88595400  0.30804800  1
  H  129  1  0.85068100  0.81959200  0.30894700  1
  H  130  1  0.84881900  0.82198200  0.33141000  1
  H  135  1  0.88272200  0.88843900  0.33027100  1
  H  161  1  0.61970000  0.10200100  0.75958000  1
  H  162  1  0.61858200  0.13957600  0.76933400  1
  H  163  1  0.66713000  0.07740300  0.78707300  1
  H  164  1  0.66633800  0.11551700  0.79701200  1
  H  165  1  0.68711000  0.15768500  0.79662700  1
  H  166  1  0.71833800  0.17798200  0.78592200  1
  H  167  1  0.67006500  0.20025900  0.75811800  1
  H  168  1  0.63894100  0.17990600  0.76868100  1
  H  169  1  0.62684700  0.20291800  0.79060000  1
  H  170  1  0.58981000  0.22236400  0.78860500  1
  H  171  1  0.55470500  0.15647300  0.78864900  1
  H  172  1  0.59212900  0.13666700  0.79058300  1
  H  173  1  0.62225000  0.12133300  0.80801200  1
  H  174  1  0.65667300  0.18772200  0.80897600  1
  H  175  1  0.65851800  0.18529700  0.83144000  1
  H  180  1  0.62461900  0.11883600  0.83026400  1
  H  206  1  0.35055100  0.37258800  0.99857500  1
  H  207  1  0.38801900  0.36875300  0.98853900  1
  H  208  1  0.32815300  0.41997500  0.97028700  1
  H  209  1  0.36583900  0.41659500  0.96038300  1
  H  210  1  0.40728500  0.43709200  0.96080700  1
  H  211  1  0.42797100  0.46822900  0.97136200  1
  H  212  1  0.45024500  0.42000300  0.99917900  1
  H  213  1  0.42939500  0.38898400  0.98880300  1
  H  214  1  0.45234500  0.37706400  0.96676800  1
  H  215  1  0.47205800  0.34013800  0.96861700  1
  H  216  1  0.40637700  0.30472200  0.96870200  1
  H  217  1  0.38630900  0.34205600  0.96704200  1
  H  218  1  0.37082800  0.37248700  0.94937500  1
  H  219  1  0.43736300  0.40652100  0.94862000  1
  H  220  1  0.43527500  0.40835100  0.92615100  1
  H  225  1  0.36875600  0.37463300  0.92710600  1
  H  251  1  0.15675500  0.63471700  0.49857800  1
  H  252  1  0.11929600  0.63856000  0.48854200  1
  H  253  1  0.17915500  0.58733500  0.47029200  1
  H  254  1  0.14146600  0.59071400  0.46038900  1
  H  255  1  0.10003400  0.57022900  0.46081000  1
  H  256  1  0.07934700  0.53909200  0.47136000  1
  H  257  1  0.05707300  0.58731300  0.49918100  1
  H  258  1  0.07791900  0.61833600  0.48880200  1
  H  259  1  0.05497600  0.63025500  0.46675700  1
  H  260  1  0.03525600  0.66717700  0.46861000  1
  H  261  1  0.10093000  0.70260500  0.46871100  1
  H  262  1  0.12100300  0.66527200  0.46703900  1
  H  263  1  0.13647700  0.63483800  0.44937500  1
  H  264  1  0.06994900  0.60079900  0.44861500  1
  H  265  1  0.07204000  0.59897300  0.42614700  1
  H  270  1  0.13855700  0.63269400  0.42710900  1
  H  296  1  0.62258800  0.90675800  0.74857300  1
  H  297  1  0.61875100  0.86929600  0.73853800  1
  H  298  1  0.66997800  0.92916000  0.72028900  1
  H  299  1  0.66666667  0.89147000  0.71038500  1
  H  300  1  0.68709200  0.85003700  0.71081100  1
  H  301  1  0.71822900  0.82935100  0.72136300  1
  H  302  1  0.67000300  0.80707200  0.74918000  1
  H  303  1  0.63898200  0.82792100  0.73880100  1
  H  304  1  0.62706400  0.80497100  0.71676300  1
  H  305  1  0.59014100  0.78525300  0.71862200  1
  H  306  1  0.55471700  0.85093000  0.71871700  1
  H  307  1  0.59204800  0.87100200  0.71704300  1
  H  308  1  0.62248100  0.88648300  0.69937800  1
  H  309  1  0.65652800  0.81995300  0.69861600  1
  H  310  1  0.65836300  0.82205400  0.67614700  1
  H  315  1  0.62463900  0.88856900  0.67711100  1
  H  341  1  0.88472100  0.10056400  0.24857800  1
  H  342  1  0.88857900  0.13803000  0.23853800  1
  H  343  1  0.83732800  0.07819500  0.22027200  1
  H  344  1  0.84073400  0.11586600  0.21037700  1
  H  345  1  0.82022900  0.15728600  0.21080600  1
  H  346  1  0.78909200  0.17797000  0.22135800  1
  H  347  1  0.83731700  0.20024800  0.24917500  1
  H  348  1  0.86833800  0.17940000  0.23879800  1
  H  349  1  0.88025500  0.20235200  0.21676000  1
  H  350  1  0.91717700  0.22207400  0.21862100  1
  H  351  1  0.95260800  0.15640200  0.21872100  1
  H  352  1  0.91527900  0.13632400  0.21704300  1
  H  353  1  0.88484000  0.12083200  0.19937400  1
  H  354  1  0.85080000  0.18736300  0.19861000  1
  H  355  1  0.84896700  0.18526100  0.17614200  1
  H  360  1  0.88268300  0.11874200  0.17710700  1
  H  386  1  0.85117600  0.63753100  0.99768800  1
  H  387  1  0.88939100  0.63878200  0.98826500  1
  H  388  1  0.82784100  0.59015400  0.96982400  1
  H  389  1  0.86612100  0.59111300  0.96030700  1
  H  390  1  0.90748200  0.57022200  0.96065600  1
  H  391  1  0.92785200  0.53872600  0.97099400  1
  H  392  1  0.95072900  0.58622900  0.99901800  1
  H  393  1  0.93030200  0.61769900  0.98874600  1
  H  394  1  0.95295900  0.63041600  0.96680600  1
  H  395  1  0.97237400  0.66749200  0.96872100  1
  H  396  1  0.90646100  0.70254400  0.96865500  1
  H  397  1  0.88669500  0.66509300  0.96674900  1
  H  398  1  0.87137600  0.63502900  0.94935600  1
  H  399  1  0.93775100  0.60062100  0.94836500  1
  H  400  1  0.93532800  0.59880500  0.92590900  1
  H  405  1  0.86887900  0.63270400  0.92709800  1
  H  431  1  0.65610700  0.36990100  0.49766700  1
  H  432  1  0.61791100  0.36852200  0.48823400  1
  H  433  1  0.67933300  0.41734800  0.46983900  1
  H  434  1  0.64111200  0.41622800  0.46027400  1
  H  435  1  0.59982300  0.43709400  0.46064500  1
  H  436  1  0.57945900  0.46858900  0.47099000  1
  H  437  1  0.55660500  0.42109200  0.49901500  1
  H  438  1  0.57703300  0.38962600  0.48874600  1
  H  439  1  0.55435400  0.37689700  0.46680800  1
  H  440  1  0.53494200  0.33982100  0.46872200  1
  H  441  1  0.60085600  0.30476700  0.46865000  1
  H  442  1  0.62061600  0.34221300  0.46674900  1
  H  443  1  0.63592800  0.37225400  0.44934900  1
  H  444  1  0.56956700  0.40669600  0.44836200  1
  H  445  1  0.57200900  0.40852000  0.42590100  1
  H  450  1  0.63845300  0.37461500  0.42709600  1
  H  476  1  0.12080000  0.10168700  0.74796900  1
  H  477  1  0.11915200  0.13989600  0.73844700  1
  H  478  1  0.16809800  0.07868200  0.72014300  1
  H  479  1  0.16689300  0.11678900  0.71053600  1
  H  480  1  0.18708900  0.15769900  0.71069200  1
  H  481  1  0.21832000  0.17797500  0.72139000  1
  H  482  1  0.17006900  0.20027000  0.74920100  1
  H  483  1  0.13894300  0.17992700  0.73865000  1
  H  484  1  0.12684100  0.20292200  0.71671700  1
  H  485  1  0.08981400  0.22237600  0.71871300  1
  H  486  1  0.05467700  0.15650300  0.71867900  1
  H  487  1  0.09206100  0.13669000  0.71673400  1
  H  488  1  0.12218700  0.12135100  0.69928600  1
  H  489  1  0.15663800  0.18772800  0.69834800  1
  H  490  1  0.15849900  0.18530600  0.67588800  1
  H  495  1  0.12460300  0.11884600  0.67705500  1
  H  521  1  0.38531700  0.90548400  0.24818500  1
  H  522  1  0.38852300  0.86779700  0.23837800  1
  H  523  1  0.33773500  0.92797100  0.22021500  1
  H  524  1  0.34063800  0.89025100  0.21027100  1
  H  525  1  0.32024700  0.84961900  0.21069300  1
  H  526  1  0.28901100  0.82933800  0.22138600  1
  H  527  1  0.33725100  0.80705000  0.24920200  1
  H  528  1  0.36838100  0.82743400  0.23866700  1
  H  529  1  0.38046700  0.80441600  0.21673100  1
  H  530  1  0.41750200  0.78495400  0.21870600  1
  H  531  1  0.45264200  0.85083200  0.21866300  1
  H  532  1  0.41526400  0.87064800  0.21673500  1
  H  533  1  0.38517100  0.88595200  0.19927800  1
  H  534  1  0.35066700  0.81960500  0.19837000  1
  H  535  1  0.34879500  0.82201400  0.17590800  1
  H  540  1  0.38269900  0.88846400  0.17705700  1
  H  566  1  0.65674900  0.63473500  0.00874200  1
  H  567  1  0.61924200  0.63848500  0.01874600  1
  H  568  1  0.67916300  0.58737200  0.03703300  1
  H  569  1  0.64145700  0.59070600  0.04692200  1
  H  570  1  0.60023400  0.57023700  0.04655600  1
  H  571  1  0.57948600  0.53883600  0.03635800  1
  H  572  1  0.55661100  0.58629500  0.00833100  1
  H  573  1  0.57750000  0.61766400  0.01842700  1
  H  574  1  0.55493600  0.63020200  0.04047500  1
  H  575  1  0.53525000  0.66716400  0.03869900  1
  H  576  1  0.60095300  0.70253000  0.03863200  1
  H  577  1  0.62097900  0.66516900  0.04027200  1
  H  578  1  0.63644600  0.63480600  0.05790500  1
  H  579  1  0.56993400  0.60075900  0.05869100  1
  H  580  1  0.57204300  0.59896400  0.08115700  1
  H  585  1  0.63854700  0.63268700  0.08017400  1
  H  611  1  0.85057300  0.37259400  0.50874100  1
  H  612  1  0.88807600  0.36883500  0.51874100  1
  H  613  1  0.82817400  0.41996400  0.53703600  1
  H  614  1  0.86588200  0.41662000  0.54691800  1
  H  615  1  0.90708700  0.43707500  0.54655600  1
  H  616  1  0.92783900  0.46847700  0.53636600  1
  H  617  1  0.95071500  0.42102800  0.50833300  1
  H  618  1  0.92982700  0.38965600  0.51842600  1
  H  619  1  0.95238000  0.37711600  0.54048200  1
  H  620  1  0.97207200  0.34015700  0.53870200  1
  H  621  1  0.90637900  0.30477900  0.53862700  1
  H  622  1  0.88634600  0.34213700  0.54027100  1
  H  623  1  0.87088500  0.37250300  0.55790400  1
  H  624  1  0.93739100  0.40655500  0.55869300  1
  H  625  1  0.93527700  0.40835100  0.58116000  1
  H  630  1  0.86877600  0.37462300  0.58017100  1
  H  656  1  0.38473200  0.10054500  0.25874500  1
  H  657  1  0.38857800  0.13802200  0.26877900  1
  H  658  1  0.33731700  0.07819200  0.28704300  1
  H  659  1  0.34072000  0.11586300  0.29693800  1
  H  660  1  0.32023100  0.15728100  0.29651000  1
  H  661  1  0.28909200  0.17796600  0.28595800  1
  H  662  1  0.33731700  0.20024800  0.25814100  1
  H  663  1  0.36833800  0.17939800  0.26851900  1
  H  664  1  0.38025600  0.20234700  0.29055700  1
  H  665  1  0.41717700  0.22206500  0.28869700  1
  H  666  1  0.45260300  0.15638900  0.28860100  1
  H  667  1  0.41527200  0.13631500  0.29027600  1
  H  668  1  0.38483500  0.12083300  0.30794200  1
  H  669  1  0.35079200  0.18736500  0.30870300  1
  H  670  1  0.34895500  0.18526300  0.33117100  1
  H  675  1  0.38267400  0.11874600  0.33020800  1
  H  701  1  0.12260900  0.90673100  0.75874000  1
  H  702  1  0.11875000  0.86929600  0.76878000  1
  H  703  1  0.16997900  0.92915600  0.78703500  1
  H  704  1  0.16659000  0.89146600  0.79693700  1
  H  705  1  0.18709100  0.85003100  0.79651300  1
  H  706  1  0.21822800  0.82935100  0.78595900  1
  H  707  1  0.17000000  0.80707900  0.75814100  1
  H  708  1  0.13897900  0.82792100  0.76852100  1
  H  709  1  0.12706400  0.80496800  0.79055800  1
  H  710  1  0.09014300  0.78524600  0.78869800  1
  H  711  1  0.05471100  0.85091800  0.78859800  1
  H  712  1  0.09204000  0.87099500  0.79027500  1
  H  713  1  0.12247900  0.88648800  0.80794400  1
  H  714  1  0.15651900  0.81995700  0.80870800  1
  H  715  1  0.15835100  0.82205700  0.83117700  1
  H  720  1  0.12463400  0.88857600  0.83021100  1
  H  746  1  0.65396200  0.86975300  0.50907100  1
  H  747  1  0.61715600  0.86876400  0.51930100  1
  H  748  1  0.68006800  0.91769800  0.53611300  1
  H  749  1  0.64253100  0.91647200  0.54676600  1
  H  750  1  0.59987800  0.93733600  0.54646100  1
  H  751  1  0.57927400  0.96846100  0.53587000  1
  H  752  1  0.55694900  0.92016100  0.50807000  1
  H  753  1  0.57750000  0.88909900  0.51854700  1
  H  754  1  0.55485400  0.87693400  0.54025100  1
  H  755  1  0.53562200  0.83997800  0.53963800  1
  H  756  1  0.60148400  0.80489100  0.54030400  1
  H  757  1  0.62119500  0.84246400  0.54073800  1
  H  758  1  0.63594400  0.87304600  0.55794000  1
  H  759  1  0.56920100  0.90675100  0.55847800  1
  H  760  1  0.56992500  0.90633100  0.58093800  1
  H  765  1  0.63683900  0.87321100  0.57999300  1
  H  791  1  0.85112600  0.13733100  0.00957200  1
  H  792  1  0.88916300  0.13865300  0.01903600  1
  H  793  1  0.82757800  0.09003700  0.03739800  1
  H  794  1  0.86585500  0.09087900  0.04696100  1
  H  795  1  0.90751600  0.07002300  0.04647100  1
  H  796  1  0.92804000  0.03886100  0.03587000  1
  H  797  1  0.95036700  0.08712900  0.00805300  1
  H  798  1  0.92981100  0.11821400  0.01851600  1
  H  799  1  0.95251200  0.13041400  0.04022600  1
  H  800  1  0.97173200  0.16736700  0.03964500  1
  H  801  1  0.90584000  0.20243800  0.04032600  1
  H  802  1  0.88613000  0.16482700  0.04069100  1
  H  803  1  0.87144200  0.13431500  0.05791200  1
  H  804  1  0.93816000  0.10057700  0.05849500  1
  H  805  1  0.93736500  0.10096000  0.08095100  1
  H  810  1  0.87046100  0.13406800  0.07998200  1
  H  836  1  0.38673200  0.40425400  0.75883500  1
  H  837  1  0.38868500  0.36760000  0.76919700  1
  H  838  1  0.33852500  0.42960800  0.78600300  1
  H  839  1  0.34091400  0.39236700  0.79678100  1
  H  840  1  0.32003000  0.35011500  0.79649000  1
  H  841  1  0.28863000  0.32943100  0.78627300  1
  H  842  1  0.33613500  0.30650700  0.75825400  1
  H  843  1  0.36754600  0.32716900  0.76842200  1
  H  844  1  0.38033000  0.30484900  0.79016400  1
  H  845  1  0.41731400  0.28561500  0.78966500  1
  H  846  1  0.45236800  0.35148600  0.79035600  1
  H  847  1  0.41479000  0.37117000  0.79070900  1
  H  848  1  0.38429700  0.38588900  0.80789500  1
  H  849  1  0.35057100  0.31919500  0.80845000  1
  H  850  1  0.35101200  0.31993000  0.83091100  1
  H  855  1  0.38412500  0.38682600  0.82994500  1
  H  881  1  0.11976500  0.60177600  0.25951900  1
  H  882  1  0.11889300  0.63950300  0.26912600  1
  H  883  1  0.16712400  0.57725800  0.28708500  1
  H  884  1  0.16655700  0.61545900  0.29689500  1
  H  885  1  0.18729500  0.65731300  0.29651600  1
  H  886  1  0.21871700  0.67790200  0.28626400  1
  H  887  1  0.17120400  0.70082800  0.25824500  1
  H  888  1  0.13976900  0.68024400  0.26843600  1
  H  889  1  0.12696200  0.70253900  0.29015900  1
  H  890  1  0.08997100  0.72173200  0.28963700  1
  H  891  1  0.05495000  0.65582000  0.29032100  1
  H  892  1  0.09259300  0.63615000  0.29068500  1
  H  893  1  0.12304200  0.62147900  0.30787900  1
  H  894  1  0.15682300  0.68816500  0.30848100  1
  H  895  1  0.15638500  0.68737300  0.33093800  1
  H  900  1  0.12322600  0.62048800  0.32994600  1
  H  926  1  0.85036100  0.87262000  0.49863100  1
  H  927  1  0.88791000  0.86895600  0.48867000  1
  H  928  1  0.82798700  0.92000800  0.47032000  1
  H  929  1  0.86571800  0.91681500  0.46048900  1
  H  930  1  0.90711000  0.93729300  0.46096100  1
  H  931  1  0.92802800  0.96835600  0.47141300  1
  H  932  1  0.95035900  0.92012400  0.49923600  1
  H  933  1  0.92932400  0.88914500  0.48895100  1
  H  934  1  0.95194600  0.87712700  0.46713600  1
  H  935  1  0.97142700  0.84026200  0.46760800  1
  H  936  1  0.90574200  0.80492200  0.46701500  1
  H  937  1  0.88578200  0.84241600  0.46690600  1
  H  938  1  0.87091000  0.87328200  0.44946900  1
  H  939  1  0.93778800  0.90659400  0.44908500  1
  H  940  1  0.93730600  0.90620800  0.42663100  1
  H  945  1  0.87033300  0.87328800  0.42739600  1
  H  971  1  0.65689500  0.13466500  0.99864100  1
  H  972  1  0.61938600  0.13834900  0.98867100  1
  H  973  1  0.67933300  0.08730500  0.97032400  1
  H  974  1  0.64158200  0.09049400  0.96048600  1
  H  975  1  0.60020800  0.07003300  0.96096700  1
  H  976  1  0.57929200  0.03897000  0.97140900  1
  H  977  1  0.55695600  0.08719200  0.99923500  1
  H  978  1  0.57798400  0.11817500  0.98895400  1
  H  979  1  0.55537900  0.13020100  0.96710800  1
  H  980  1  0.53589400  0.16705100  0.96758000  1
  H  981  1  0.60158000  0.20240400  0.96702300  1
  H  982  1  0.62154400  0.16490900  0.96692900  1
  H  983  1  0.63636700  0.13408500  0.94946000  1
  H  984  1  0.56951900  0.10074000  0.94909200  1
  H  985  1  0.56998400  0.10114000  0.92663400  1
  H  990  1  0.63693300  0.13409000  0.92739100  1
  H  1016  1  0.12263900  0.40689900  0.24863200  1
  H  1017  1  0.11904400  0.36933500  0.23870600  1
  H  1018  1  0.16998500  0.42932500  0.22031300  1
  H  1019  1  0.16684000  0.39155500  0.21050000  1
  H  1020  1  0.18728300  0.35040900  0.21092200  1
  H  1021  1  0.21860800  0.32943300  0.22101900  1
  H  1022  1  0.17114000  0.30650400  0.24905000  1
  H  1023  1  0.13980900  0.32755500  0.23903900  1
  H  1024  1  0.12716900  0.30533100  0.21721300  1
  H  1025  1  0.09027700  0.28588400  0.21760600  1
  H  1026  1  0.05498900  0.35159600  0.21700300  1
  H  1027  1  0.09251100  0.37150800  0.21692700  1
  H  1028  1  0.12325400  0.38632100  0.19950600  1
  H  1029  1  0.15666500  0.31951000  0.19910100  1
  H  1030  1  0.15625200  0.32001900  0.17664400  1
  H  1035  1  0.12324900  0.38692800  0.17743000  1
  H  1061  1  0.38470900  0.60031500  0.74863200  1
  H  1062  1  0.38828600  0.63795300  0.73871300  1
  H  1063  1  0.33732800  0.57802300  0.72030500  1
  H  1064  1  0.34049400  0.61575800  0.71050300  1
  H  1065  1  0.32003700  0.65691100  0.71091500  1
  H  1066  1  0.28871300  0.67788700  0.72101000  1
  H  1067  1  0.33617600  0.70082000  0.74904200  1
  H  1068  1  0.36750700  0.67976100  0.73903500  1
  H  1069  1  0.38015100  0.70198700  0.71719600  1
  H  1070  1  0.41704700  0.72143100  0.71760300  1
  H  1071  1  0.45232500  0.65572900  0.71700300  1
  H  1072  1  0.41481000  0.63581200  0.71691400  1
  H  1073  1  0.38402900  0.62096200  0.69950700  1
  H  1074  1  0.35069400  0.68781000  0.69909300  1
  H  1075  1  0.35111200  0.68730200  0.67663900  1
  H  1080  1  0.38403600  0.62034900  0.67742600  1
  H  1106  1  0.35150900  0.13769900  0.49784600  1
  H  1107  1  0.38942800  0.13842000  0.48828500  1
  H  1108  1  0.32710500  0.09043100  0.47011500  1
  H  1109  1  0.36538700  0.09081500  0.46045300  1
  H  1110  1  0.40729200  0.07002100  0.46080500  1
  H  1111  1  0.42790700  0.03860400  0.47104600  1
  H  1112  1  0.45083200  0.08611600  0.49906800  1
  H  1113  1  0.43022200  0.11754300  0.48888200  1
  H  1114  1  0.45251600  0.13035800  0.46713900  1
  H  1115  1  0.47171600  0.16734200  0.46766100  1
  H  1116  1  0.40581500  0.20234900  0.46698900  1
  H  1117  1  0.38613600  0.16470900  0.46664600  1
  H  1118  1  0.37144000  0.13422300  0.44945300  1
  H  1119  1  0.43815800  0.10052900  0.44884000  1
  H  1120  1  0.43738200  0.10096400  0.42638300  1
  H  1125  1  0.37048300  0.13408200  0.42737500  1
  H  1151  1  0.15587300  0.87081700  0.99799000  1
  H  1152  1  0.11753200  0.86951500  0.98865200  1
  H  1153  1  0.17886600  0.91802700  0.97010700  1
  H  1154  1  0.14063000  0.91711800  0.96064700  1
  H  1155  1  0.09998900  0.93729300  0.96079800  1
  H  1156  1  0.07940700  0.96871300  0.97104100  1
  H  1157  1  0.05648400  0.92121100  0.99907500  1
  H  1158  1  0.07706500  0.88978100  0.98888800  1
  H  1159  1  0.05476700  0.87695800  0.96717400  1
  H  1160  1  0.03558500  0.83997000  0.96767400  1
  H  1161  1  0.10149000  0.80495400  0.96697600  1
  H  1162  1  0.12114700  0.84255300  0.96661700  1
  H  1163  1  0.13583100  0.87299800  0.94942200  1
  H  1164  1  0.06914000  0.90677600  0.94883700  1
  H  1165  1  0.06995200  0.90635900  0.92638100  1
  H  1170  1  0.13684100  0.87325400  0.92736800  1
  H  1196  1  0.62081600  0.60148000  0.24800400  1
  H  1197  1  0.61950800  0.63981300  0.23864100  1
  H  1198  1  0.66802600  0.57849100  0.22011700  1
  H  1199  1  0.66712200  0.61668700  0.21065700  1
  H  1200  1  0.68728100  0.65733100  0.21079900  1
  H  1201  1  0.71870400  0.67789400  0.22104500  1
  H  1202  1  0.67121100  0.70083000  0.24907400  1
  H  1203  1  0.63977500  0.68025800  0.23889300  1
  H  1204  1  0.62694700  0.70255000  0.21714700  1
  H  1205  1  0.58995600  0.72173400  0.21764400  1
  H  1206  1  0.55494300  0.65583100  0.21696100  1
  H  1207  1  0.59254600  0.63616800  0.21662300  1
  H  1208  1  0.62298700  0.62149200  0.19942300  1
  H  1209  1  0.65675400  0.68818100  0.19883600  1
  H  1210  1  0.65632700  0.68738200  0.17638300  1
  H  1215  1  0.62322200  0.62047400  0.17737700  1
  H  1241  1  0.88756000  0.40626100  0.74775800  1
  H  1242  1  0.88851400  0.36800500  0.73840900  1
  H  1243  1  0.84024500  0.42975800  0.71987500  1
  H  1244  1  0.84088900  0.39141500  0.71042900  1
  H  1245  1  0.82002600  0.35000500  0.71080400  1
  H  1246  1  0.78860100  0.32942000  0.72105500  1
  H  1247  1  0.83610800  0.30648800  0.74907600  1
  H  1248  1  0.86754600  0.32706400  0.73888600  1
  H  1249  1  0.88036000  0.30477400  0.71716400  1
  H  1250  1  0.91735300  0.28558500  0.71768400  1
  H  1251  1  0.95236600  0.35149800  0.71699900  1
  H  1252  1  0.91471900  0.37116600  0.71664200  1
  H  1253  1  0.88426000  0.38584200  0.69945100  1
  H  1254  1  0.85049800  0.31915800  0.69883900  1
  H  1255  1  0.85092300  0.31995200  0.67638300  1
  H  1260  1  0.88408500  0.38683200  0.67738000  1
  H  1286  1  0.15691000  0.13470100  0.50868700  1
  H  1287  1  0.11934000  0.13826900  0.51861600  1
  H  1288  1  0.17935400  0.08735500  0.53699300  1
  H  1289  1  0.14158300  0.09047500  0.54681300  1
  H  1290  1  0.10039200  0.07003000  0.54640600  1
  H  1291  1  0.07941200  0.03870900  0.53630700  1
  H  1292  1  0.05650600  0.08617900  0.50827100  1
  H  1293  1  0.07756400  0.11750400  0.51828200  1
  H  1294  1  0.05533100  0.13013800  0.54009800  1
  H  1295  1  0.03588100  0.16703400  0.53970300  1
  H  1296  1  0.10158700  0.20232200  0.54032100  1
  H  1297  1  0.12150400  0.16480500  0.54040500  1
  H  1298  1  0.13636500  0.13401100  0.55781200  1
  H  1299  1  0.06950800  0.10068400  0.55822600  1
  H  1300  1  0.07001500  0.10110300  0.58068000  1
  H  1305  1  0.13697400  0.13402200  0.57989000  1
  H  1331  1  0.35045300  0.87265900  0.00868000  1
  H  1332  1  0.38798700  0.86905200  0.01861100  1
  H  1333  1  0.32799500  0.91999200  0.03700500  1
  H  1334  1  0.36576600  0.91684400  0.04681700  1
  H  1335  1  0.40692200  0.93728100  0.04640000  1
  H  1336  1  0.42789300  0.96860500  0.03630300  1
  H  1337  1  0.45081400  0.92113800  0.00826800  1
  H  1338  1  0.42976700  0.88980700  0.01828100  1
  H  1339  1  0.45197800  0.87717100  0.04012600  1
  H  1340  1  0.47143300  0.84028700  0.03973000  1
  H  1341  1  0.40572800  0.80498900  0.04031200  1
  H  1342  1  0.38580700  0.84250500  0.04038600  1
  H  1343  1  0.37099400  0.87325700  0.05781800  1
  H  1344  1  0.43782200  0.90661900  0.05822100  1
  H  1345  1  0.43733400  0.90618700  0.08067400  1
  H  1350  1  0.37039700  0.87323400  0.07989100  1
  H  1376  1  0.88469100  0.60042100  0.75868500  1
  H  1377  1  0.88827000  0.63798300  0.76861300  1
  H  1378  1  0.83734500  0.57797500  0.78699800  1
  H  1379  1  0.84047600  0.61574900  0.79681500  1
  H  1380  1  0.82003400  0.65690900  0.79639700  1
  H  1381  1  0.78871000  0.67788600  0.78629900  1
  H  1382  1  0.83617800  0.70081600  0.75826900  1
  H  1383  1  0.86750900  0.67976300  0.76828000  1
  H  1384  1  0.88014900  0.70198500  0.79010600  1
  H  1385  1  0.91704100  0.72143500  0.78971300  1
  H  1386  1  0.95232900  0.65572200  0.79031500  1
  H  1387  1  0.91480800  0.63581000  0.79039200  1
  H  1388  1  0.88406400  0.62099700  0.80781300  1
  H  1389  1  0.85065300  0.68780800  0.80821800  1
  H  1390  1  0.85106600  0.68729900  0.83067500  1
  H  1395  1  0.88406900  0.62039000  0.82988900  1
  H  1421  1  0.62265600  0.40686300  0.25868100  1
  H  1422  1  0.61904800  0.36933100  0.26861200  1
  H  1423  1  0.66998500  0.42932900  0.28700600  1
  H  1424  1  0.66683900  0.39155700  0.29681800  1
  H  1425  1  0.68728600  0.35039800  0.29640400  1
  H  1426  1  0.71861000  0.32942500  0.28630200  1
  H  1427  1  0.67113800  0.30650700  0.25827000  1
  H  1428  1  0.63980900  0.32755700  0.26828400  1
  H  1429  1  0.62716900  0.30533100  0.29012100  1
  H  1430  1  0.59027100  0.28588500  0.28971500  1
  H  1431  1  0.55499600  0.35159100  0.29031500  1
  H  1432  1  0.59251200  0.37150600  0.29040500  1
  H  1433  1  0.62328100  0.38634900  0.30781200  1
  H  1434  1  0.65662600  0.31950700  0.30822500  1
  H  1435  1  0.65620800  0.32001600  0.33068000  1
  H  1440  1  0.62327500  0.38696300  0.32989100  1
  H  1447  1  0.15768700  0.38712500  0.13451600  1
  H  1449  1  0.09188100  0.34584700  0.15419700  1
  H  1450  1  0.08428000  0.32894900  0.14075900  1
  H  1451  1  0.07065300  0.35691400  0.14347500  1
  H  1453  1  0.09727200  0.35985400  0.10019100  1
  H  1455  1  0.13798700  0.38565400  0.15670800  1
  H  1462  1  0.34963300  0.62019100  0.63450600  1
  H  1464  1  0.41542200  0.66147600  0.65420000  1
  H  1465  1  0.42303200  0.67837100  0.64076100  1
  H  1466  1  0.43665600  0.65040600  0.64348400  1
  H  1468  1  0.41013400  0.64743900  0.60020800  1
  H  1470  1  0.36934000  0.62166600  0.65670400  1
  H  1477  1  0.87017800  0.90769200  0.38451000  1
  H  1479  1  0.91146500  0.84189100  0.40420200  1
  H  1480  1  0.92837500  0.83429700  0.39076500  1
  H  1481  1  0.90040800  0.82066700  0.39347500  1
  H  1483  1  0.89746200  0.84726800  0.35016800  1
  H  1485  1  0.87166800  0.88798500  0.40670700  1
  H  1492  1  0.63714100  0.09962700  0.88447900  1
  H  1494  1  0.59584700  0.16539700  0.90420500  1
  H  1495  1  0.57894700  0.17299100  0.89076800  1
  H  1496  1  0.60689600  0.18664400  0.89349200  1
  H  1498  1  0.60991100  0.16023400  0.85020600  1
  H  1500  1  0.63562100  0.11915900  0.90669100  1
  H  1507  1  0.34962400  0.38713400  0.87283700  1
  H  1509  1  0.41539000  0.34584700  0.85312400  1
  H  1510  1  0.42301600  0.32895900  0.86656200  1
  H  1511  1  0.43663300  0.35692300  0.86383200  1
  H  1513  1  0.41009500  0.35986500  0.90717500  1
  H  1515  1  0.36929000  0.38565400  0.85065600  1
  H  1522  1  0.15768200  0.62016100  0.37284200  1
  H  1524  1  0.09192700  0.66146200  0.35312300  1
  H  1525  1  0.08430500  0.67835500  0.36655900  1
  H  1526  1  0.07068000  0.65039500  0.36383100  1
  H  1528  1  0.09721700  0.64744800  0.40718100  1
  H  1530  1  0.13808500  0.62165900  0.35066100  1
  H  1537  1  0.63715400  0.90767600  0.62285000  1
  H  1539  1  0.59585600  0.84192600  0.60312400  1
  H  1540  1  0.57896300  0.83430200  0.61656100  1
  H  1541  1  0.60692100  0.82067200  0.61382900  1
  H  1543  1  0.60987500  0.84718700  0.65714600  1
  H  1545  1  0.63565400  0.88810100  0.60067300  1
  H  1552  1  0.87018000  0.09962400  0.12285100  1
  H  1554  1  0.91146500  0.16539600  0.10312400  1
  H  1555  1  0.92836800  0.17301900  0.11655700  1
  H  1556  1  0.90040600  0.18664600  0.11383300  1
  H  1558  1  0.89743000  0.16016600  0.15716400  1
  H  1560  1  0.87165600  0.11924000  0.10066700  1
  H  1567  1  0.84963100  0.62019300  0.87280300  1
  H  1569  1  0.91543800  0.66147100  0.85312100  1
  H  1570  1  0.92303700  0.67837000  0.86656100  1
  H  1571  1  0.93666500  0.65040400  0.86384300  1
  H  1573  1  0.91004500  0.64746400  0.90713100  1
  H  1575  1  0.86933100  0.62166500  0.85061100  1
  H  1582  1  0.65768300  0.38712700  0.37281300  1
  H  1584  1  0.59189600  0.34584200  0.35311900  1
  H  1585  1  0.58428600  0.32894900  0.36655800  1
  H  1586  1  0.57066200  0.35691200  0.36383500  1
  H  1588  1  0.59718700  0.35987900  0.40711500  1
  H  1590  1  0.63797800  0.38565200  0.35061500  1
  H  1597  1  0.13715200  0.09963900  0.62282400  1
  H  1599  1  0.09584700  0.16541400  0.60311600  1
  H  1600  1  0.07894800  0.17301400  0.61655500  1
  H  1601  1  0.10690800  0.18664900  0.61383400  1
  H  1603  1  0.10990700  0.16019900  0.65713700  1
  H  1605  1  0.13565200  0.11931700  0.60061000  1
  H  1612  1  0.37018200  0.90769400  0.12282900  1
  H  1614  1  0.41146900  0.84191400  0.10311400  1
  H  1615  1  0.42837300  0.83432300  0.11655200  1
  H  1616  1  0.40042200  0.82067200  0.11383100  1
  H  1618  1  0.39742900  0.84715000  0.15711200  1
  H  1620  1  0.37169800  0.88813800  0.10061700  1
  H  1627  1  0.65769400  0.62018200  0.13448100  1
  H  1629  1  0.59193000  0.66146900  0.15419400  1
  H  1630  1  0.58430200  0.67835900  0.14075700  1
  H  1631  1  0.57068500  0.65039500  0.14348700  1
  H  1633  1  0.59722500  0.64745300  0.10014000  1
  H  1635  1  0.63802400  0.62166100  0.15666100  1
  H  1642  1  0.84964200  0.38715900  0.63448000  1
  H  1644  1  0.91539900  0.34585400  0.65419400  1
  H  1645  1  0.92302000  0.32896500  0.64075700  1
  H  1646  1  0.93664500  0.35692500  0.64348500  1
  H  1648  1  0.91009100  0.35987000  0.60013300  1
  H  1650  1  0.86928100  0.38567000  0.65666200  1
  H  1657  1  0.37016400  0.09964300  0.38447200  1
  H  1659  1  0.41146400  0.16539200  0.40419400  1
  H  1660  1  0.42835500  0.17301600  0.39075800  1
  H  1661  1  0.40039700  0.18664400  0.39348900  1
  H  1663  1  0.39744300  0.16013100  0.35017400  1
  H  1665  1  0.37166300  0.11922900  0.40665400  1
  H  1672  1  0.13713700  0.90769400  0.88447000  1
  H  1674  1  0.09585200  0.84192100  0.90419600  1
  H  1675  1  0.07895000  0.83430000  0.89076200  1
  H  1676  1  0.10691200  0.82067200  0.89348600  1
  H  1678  1  0.10988800  0.84715400  0.85015600  1
  H  1680  1  0.13566100  0.88807000  0.90666100  1
  H  1687  1  0.98544800  0.25031500  0.02084300  1
  H  1689  1  0.98385400  0.20959800  0.06097800  1
  H  1690  1  0.98984400  0.23507700  0.07018200  1
  H  1691  1  0.01350800  0.21695700  0.06473000  1
  H  1693  1  0.03681300  0.29667100  0.05365200  1
  H  1695  1  0.97953600  0.20583000  0.02983600  1
  H  1702  1  0.52184500  0.75699300  0.52084500  1
  H  1704  1  0.52346300  0.79771900  0.56097800  1
  H  1705  1  0.51747200  0.77224000  0.57018100  1
  H  1706  1  0.49380800  0.79036700  0.56473700  1
  H  1708  1  0.47047200  0.71067600  0.55366800  1
  H  1710  1  0.52781200  0.80146000  0.52980000  1
  H  1717  1  0.00699900  0.73548200  0.27083600  1
  H  1719  1  0.04772700  0.73385600  0.31097500  1
  H  1720  1  0.02223900  0.73983200  0.32017400  1
  H  1721  1  0.04035700  0.76350500  0.31473200  1
  H  1723  1  0.96062400  0.78686900  0.30366300  1
  H  1725  1  0.05149100  0.72949900  0.27980900  1
  H  1732  1  0.50035400  0.27185900  0.77083600  1
  H  1734  1  0.45959000  0.27348600  0.81096500  1
  H  1735  1  0.48507700  0.26751800  0.82016700  1
  H  1736  1  0.46695900  0.24384200  0.81472900  1
  H  1738  1  0.54669000  0.22046800  0.80366100  1
  H  1740  1  0.45592400  0.27795300  0.77974300  1
  H  1747  1  0.52187000  0.25030800  0.98647300  1
  H  1749  1  0.52348700  0.20960600  0.94634700  1
  H  1750  1  0.51748100  0.23508400  0.93715000  1
  H  1751  1  0.49382900  0.21694600  0.94260200  1
  H  1753  1  0.47049900  0.29672400  0.95366700  1
  H  1755  1  0.52793500  0.20583900  0.97752100  1
  H  1762  1  0.98547300  0.75702300  0.48647300  1
  H  1764  1  0.98382900  0.79771200  0.44634800  1
  H  1765  1  0.98984400  0.77223400  0.43715100  1
  H  1766  1  0.01349000  0.79037600  0.44260500  1
  H  1768  1  0.03686900  0.71056600  0.45366400  1
  H  1770  1  0.97945100  0.80152400  0.47748300  1
  H  1777  1  0.50030800  0.73548600  0.73647000  1
  H  1779  1  0.45960600  0.73382900  0.69635000  1
  H  1780  1  0.48508400  0.73984100  0.68715100  1
  H  1781  1  0.46693700  0.76348900  0.69259900  1
  H  1783  1  0.54670100  0.78686100  0.70365500  1
  H  1785  1  0.45585100  0.72938100  0.72753500  1
  H  1792  1  0.00698500  0.27185700  0.23647400  1
  H  1794  1  0.04772100  0.27349500  0.19635200  1
  H  1795  1  0.02224400  0.26750200  0.18714900  1
  H  1796  1  0.04037200  0.24384200  0.19259900  1
  H  1798  1  0.96060500  0.22042600  0.20364800  1
  H  1800  1  0.05146600  0.27798900  0.22755400  1
  H  1807  1  0.02186800  0.75700300  0.98647300  1
  H  1809  1  0.02346200  0.79772100  0.94633700  1
  H  1810  1  0.01747400  0.77224000  0.93713700  1
  H  1811  1  0.99380800  0.79036100  0.94258700  1
  H  1813  1  0.97050700  0.71063900  0.95366700  1
  H  1815  1  0.02780200  0.80147800  0.97749300  1
  H  1822  1  0.48545600  0.25031100  0.48647300  1
  H  1824  1  0.48386300  0.20959800  0.44633800  1
  H  1825  1  0.48984600  0.23507800  0.43713600  1
  H  1826  1  0.51351400  0.21695900  0.44258300  1
  H  1828  1  0.53680900  0.29668300  0.45366600  1
  H  1830  1  0.47950200  0.20584900  0.47751100  1
  H  1837  1  0.00033100  0.27182000  0.73648300  1
  H  1839  1  0.95959400  0.27346800  0.69634500  1
  H  1840  1  0.98508000  0.26748600  0.68714600  1
  H  1841  1  0.96695500  0.24381700  0.69258500  1
  H  1843  1  0.04666000  0.22041300  0.70364200  1
  H  1845  1  0.95583800  0.27782300  0.72751500  1
  H  1852  1  0.50696400  0.73545900  0.23648300  1
  H  1854  1  0.54772800  0.73383200  0.19635300  1
  H  1855  1  0.52224200  0.73980000  0.18715200  1
  H  1856  1  0.54036000  0.76347600  0.19259000  1
  H  1858  1  0.46062800  0.78685000  0.20365800  1
  H  1860  1  0.55138900  0.72936300  0.22757700  1
  H  1867  1  0.48544700  0.75701200  0.02085100  1
  H  1869  1  0.48383100  0.79771200  0.06097000  1
  H  1870  1  0.48983700  0.77223400  0.07016800  1
  H  1871  1  0.51348900  0.79037000  0.06471700  1
  H  1873  1  0.53681600  0.71058900  0.05365200  1
  H  1875  1  0.47938000  0.80148500  0.02979600  1
  H  1882  1  0.02184600  0.25029200  0.52084600  1
  H  1884  1  0.02348900  0.20960600  0.56097100  1
  H  1885  1  0.01747300  0.23508400  0.57016800  1
  H  1886  1  0.99382800  0.21694300  0.56471400  1
  H  1888  1  0.97045200  0.29676000  0.55365500  1
  H  1890  1  0.02787100  0.20578900  0.52983700  1
  H  1897  1  0.50701000  0.27183200  0.27084900  1
  H  1899  1  0.54771400  0.27348900  0.31096900  1
  H  1900  1  0.52223400  0.26747700  0.32016700  1
  H  1901  1  0.54038100  0.24382900  0.31472000  1
  H  1903  1  0.46061700  0.22045800  0.30366400  1
  H  1905  1  0.55146700  0.27793700  0.27978400  1
  H  1912  1  0.00033300  0.73546100  0.77084400  1
  H  1914  1  0.95959700  0.73382400  0.81096700  1
  H  1915  1  0.98507500  0.73981600  0.82016900  1
  H  1916  1  0.96694600  0.76347600  0.81472000  1
  H  1918  1  0.04671400  0.78689300  0.80367000  1
  H  1920  1  0.95585300  0.72933000  0.77976500  1
  H  1927  1  0.99358500  0.46470500  0.99736700  1
  H  1929  1  0.05081500  0.50418200  0.02536500  1
  H  1930  1  0.03262300  0.52898500  0.02766900  1
  H  1931  1  0.05370200  0.52892500  0.01526100  1
  H  1933  1  0.98465800  0.55799000  0.99590500  1
  H  1935  1  0.02211400  0.44930700  0.01241000  1
  H  1942  1  0.51374300  0.54259700  0.49735800  1
  H  1944  1  0.45649400  0.50314500  0.52536100  1
  H  1945  1  0.47469000  0.47834500  0.52767000  1
  H  1946  1  0.45361400  0.47839900  0.51526000  1
  H  1948  1  0.52268500  0.44931200  0.49594000  1
  H  1950  1  0.48518200  0.55802700  0.51236700  1
  H  1957  1  0.79261300  0.74358600  0.24736600  1
  H  1959  1  0.75314100  0.80082600  0.27536600  1
  H  1960  1  0.72834000  0.78263000  0.27766900  1
  H  1961  1  0.72839900  0.80371000  0.26526200  1
  H  1963  1  0.69934800  0.73469900  0.24589900  1
  H  1965  1  0.80801700  0.77212800  0.26240100  1
  H  1972  1  0.71469600  0.26372900  0.74737200  1
  H  1974  1  0.75417500  0.20649200  0.77536700  1
  H  1975  1  0.77898000  0.22468500  0.77767300  1
  H  1976  1  0.77891400  0.20361000  0.76526100  1
  H  1978  1  0.80797200  0.27261700  0.74590600  1
  H  1980  1  0.69928900  0.23518500  0.76238400  1
  H  1987  1  0.51373100  0.46471200  0.00995500  1
  H  1989  1  0.45648500  0.50416500  0.98196400  1
  H  1990  1  0.47468500  0.52896000  0.97964400  1
  H  1991  1  0.45361200  0.52891700  0.99205700  1
  H  1993  1  0.52266500  0.55800200  0.01141200  1
  H  1995  1  0.48516200  0.44926800  0.99498100  1
  H  2002  1  0.99358500  0.54261100  0.50994900  1
  H  2004  1  0.05083800  0.50316100  0.48196100  1
  H  2005  1  0.03263600  0.47836700  0.47964300  1
  H  2006  1  0.05370700  0.47840400  0.49205500  1
  H  2008  1  0.98464400  0.44931600  0.51139300  1
  H  2010  1  0.02214800  0.55805200  0.49496900  1
  H  2017  1  0.71470400  0.74358400  0.75994400  1
  H  2019  1  0.75416800  0.80083000  0.73195900  1
  H  2020  1  0.77896900  0.78263200  0.72964400  1
  H  2021  1  0.77891700  0.80369900  0.74205900  1
  H  2023  1  0.80799500  0.73467600  0.76138600  1
  H  2025  1  0.69928000  0.77212900  0.74494000  1
  H  2032  1  0.79260200  0.26373800  0.25995800  1
  H  2034  1  0.75315200  0.20649200  0.23195900  1
  H  2035  1  0.72835300  0.22468800  0.22964700  1
  H  2036  1  0.72840200  0.20361600  0.24205800  1
  H  2038  1  0.69931200  0.27265300  0.26136900  1
  H  2040  1  0.80805400  0.23516400  0.24498100  1
  H  2047  1  0.21470700  0.26373300  0.75995200  1
  H  2049  1  0.25418400  0.20649900  0.73195400  1
  H  2050  1  0.27898700  0.22469200  0.72965100  1
  H  2051  1  0.27892300  0.20361400  0.74205900  1
  H  2053  1  0.30797800  0.27262300  0.76141900  1
  H  2055  1  0.19930300  0.23519200  0.74491900  1
  H  2062  1  0.29262200  0.74359100  0.25994600  1
  H  2064  1  0.25314500  0.80082300  0.23195100  1
  H  2065  1  0.22834200  0.78262600  0.22964600  1
  H  2066  1  0.22840100  0.80370800  0.24205300  1
  H  2068  1  0.19934600  0.73470100  0.26141400  1
  H  2070  1  0.30802900  0.77213300  0.24493400  1
  H  2077  1  0.29261100  0.26373400  0.24737300  1
  H  2079  1  0.25314500  0.20649700  0.27536100  1
  H  2080  1  0.22834000  0.22469200  0.27767200  1
  H  2081  1  0.22839700  0.20361900  0.26526000  1
  H  2083  1  0.19932100  0.27264400  0.24593100  1
  H  2085  1  0.30802700  0.23519900  0.26240500  1
  H  2092  1  0.21470200  0.74359300  0.74736700  1
  H  2094  1  0.25415600  0.80084200  0.77536100  1
  H  2095  1  0.27895300  0.78264200  0.77767500  1
  H  2096  1  0.27890900  0.80371500  0.76526300  1
  H  2098  1  0.30798500  0.73468700  0.74592600  1
  H  2100  1  0.19925900  0.77215400  0.76235100  1
  H  2107  1  0.49357700  0.96470200  0.49736900  1
  H  2109  1  0.55082800  0.00417900  0.52536900  1
  H  2110  1  0.53263200  0.02897600  0.52767300  1
  H  2111  1  0.55370800  0.02891800  0.51526400  1
  H  2113  1  0.48470300  0.05796900  0.49590200  1
  H  2115  1  0.52209400  0.94930300  0.51238400  1
  H  2122  1  0.01375300  0.04260400  0.99735800  1
  H  2124  1  0.95648800  0.00314100  0.02536700  1
  H  2125  1  0.97468400  0.97834500  0.02767100  1
  H  2126  1  0.95360800  0.97840200  0.01526100  1
  H  2128  1  0.02262800  0.94933900  0.99592400  1
  H  2130  1  0.98520100  0.05802700  0.01234000  1
  H  2137  1  0.01375800  0.96472100  0.50995800  1
  H  2139  1  0.95649500  0.00417600  0.48195700  1
  H  2140  1  0.97468800  0.02897500  0.47964800  1
  H  2141  1  0.95362100  0.02891700  0.49206100  1
  H  2143  1  0.02265500  0.05801000  0.51137000  1
  H  2145  1  0.98520500  0.94928400  0.49498300  1
  H  2152  1  0.49356800  0.04259800  0.00996000  1
  H  2154  1  0.55081600  0.00313700  0.98195500  1
  H  2155  1  0.53262100  0.97833600  0.97965300  1
  H  2156  1  0.55370100  0.97839900  0.99205700  1
  H  2158  1  0.48467400  0.94931400  0.01138700  1
  H  2160  1  0.52211500  0.05803400  0.99498100  1
  H  2167  1  0.23440900  0.42259100  0.99493400  1
  H  2169  1  0.21952500  0.35598500  0.02440600  1
  H  2170  1  0.24966700  0.35476000  0.02889400  1
  H  2171  1  0.23919900  0.33723900  0.01618100  1
  H  2173  1  0.30807200  0.36528200  0.99710300  1
  H  2175  1  0.19777800  0.40799900  0.00373700  1
  H  2182  1  0.27248200  0.58467800  0.49487400  1
  H  2184  1  0.28764400  0.65126700  0.52452400  1
  H  2185  1  0.25751200  0.65259300  0.52892300  1
  H  2186  1  0.26816100  0.67006700  0.51624300  1
  H  2188  1  0.19914300  0.64208000  0.49708100  1
  H  2190  1  0.30743300  0.59370100  0.50603500  1
  H  2197  1  0.83545900  0.98503400  0.24537300  1
  H  2199  1  0.90112700  0.97037200  0.27432500  1
  H  2200  1  0.90337100  0.00044100  0.27908200  1
  H  2201  1  0.92096900  0.98971300  0.26643100  1
  H  2203  1  0.89188600  0.05835000  0.24694300  1
  H  2205  1  0.84591500  0.95478100  0.25613600  1
  H  2212  1  0.67277600  0.02246000  0.74498400  1
  H  2214  1  0.60625400  0.03756400  0.77463800  1
  H  2215  1  0.60474600  0.00740200  0.77893000  1
  H  2216  1  0.58730600  0.01829300  0.76629500  1
  H  2218  1  0.61523100  0.94914300  0.74707500  1
  H  2220  1  0.66787600  0.05409800  0.75965100  1
  H  2227  1  0.77236100  0.58464500  0.01242200  1
  H  2229  1  0.78770400  0.65110700  0.98279400  1
  H  2230  1  0.75761500  0.65261800  0.97836100  1
  H  2231  1  0.76833100  0.67003100  0.99105700  1
  H  2233  1  0.69913200  0.64210300  0.01022100  1
  H  2235  1  0.80720500  0.59329700  0.00112200  1
  H  2242  1  0.73508900  0.42258200  0.51249100  1
  H  2244  1  0.71965300  0.35618100  0.48280100  1
  H  2245  1  0.74974700  0.35469600  0.47835700  1
  H  2246  1  0.73905600  0.33719400  0.49101300  1
  H  2248  1  0.80826900  0.36522200  0.51024000  1
  H  2250  1  0.70061700  0.41510900  0.50067000  1
  H  2257  1  0.17190800  0.02118500  0.76270700  1
  H  2259  1  0.10692700  0.03791900  0.73299700  1
  H  2260  1  0.10441800  0.00790100  0.72813800  1
  H  2261  1  0.08684600  0.01862300  0.74078200  1
  H  2263  1  0.11515800  0.94882400  0.76029600  1
  H  2265  1  0.16731000  0.05286600  0.75123100  1
  H  2272  1  0.33520800  0.98494700  0.26181400  1
  H  2274  1  0.40133000  0.97047500  0.23296600  1
  H  2275  1  0.40338500  0.00052800  0.22824700  1
  H  2276  1  0.42112300  0.98982500  0.24084300  1
  H  2278  1  0.39183800  0.05831800  0.26039800  1
  H  2280  1  0.34819000  0.95485100  0.25093400  1
  H  2287  1  0.73352100  0.92240200  0.49568500  1
  H  2289  1  0.71989000  0.85644900  0.52442700  1
  H  2290  1  0.75003200  0.85482800  0.52909800  1
  H  2291  1  0.73941600  0.83677000  0.51660900  1
  H  2293  1  0.80792200  0.86554400  0.49707000  1
  H  2295  1  0.71285800  0.91714300  0.51894400  1
  H  2302  1  0.77235500  0.08466400  0.99486800  1
  H  2304  1  0.78762000  0.15120700  0.02455200  1
  H  2305  1  0.75750200  0.15263500  0.02894000  1
  H  2306  1  0.76821600  0.17006400  0.01625900  1
  H  2308  1  0.69915600  0.14211600  0.99707500  1
  H  2310  1  0.80661900  0.09227600  0.00681300  1
  H  2317  1  0.33516700  0.48238600  0.74612400  1
  H  2319  1  0.40189700  0.47042700  0.77432100  1
  H  2320  1  0.40279600  0.50060300  0.77904500  1
  H  2321  1  0.42118800  0.49044100  0.76657900  1
  H  2323  1  0.39142900  0.55765200  0.74708800  1
  H  2325  1  0.35037300  0.46617400  0.77394100  1
  H  2332  1  0.17277800  0.52245000  0.24496700  1
  H  2334  1  0.10621800  0.53756000  0.27463800  1
  H  2335  1  0.10473800  0.50740000  0.27892600  1
  H  2336  1  0.08730600  0.51828000  0.26628500  1
  H  2338  1  0.11520800  0.44918800  0.24707800  1
  H  2340  1  0.16763400  0.55436300  0.25933800  1
  H  2347  1  0.27274400  0.08452400  0.51228800  1
  H  2349  1  0.28766300  0.15109400  0.48268600  1
  H  2350  1  0.25752700  0.15251400  0.47838600  1
  H  2351  1  0.26838000  0.16994600  0.49104300  1
  H  2353  1  0.19936200  0.14208700  0.51016200  1
  H  2355  1  0.30494100  0.09067000  0.49847200  1
  H  2362  1  0.23624800  0.92203200  0.01264100  1
  H  2364  1  0.21936500  0.85696000  0.98299200  1
  H  2365  1  0.24937500  0.85437800  0.97813500  1
  H  2366  1  0.23862700  0.83688400  0.99080200  1
  H  2368  1  0.30846500  0.86510800  0.01028400  1
  H  2370  1  0.20380600  0.91686500  0.00181000  1
  H  2377  1  0.67191600  0.52114700  0.26272600  1
  H  2379  1  0.60700500  0.53797500  0.23300500  1
  H  2380  1  0.60445600  0.50797000  0.22813200  1
  H  2381  1  0.58689700  0.51870000  0.24077900  1
  H  2383  1  0.61510300  0.44885700  0.26028100  1
  H  2385  1  0.66763200  0.55301200  0.25127300  1
  H  2392  1  0.83459700  0.48490900  0.76240300  1
  H  2394  1  0.90109300  0.46957700  0.73278600  1
  H  2395  1  0.90261300  0.49965300  0.72836300  1
  H  2396  1  0.91997400  0.48892800  0.74107200  1
  H  2398  1  0.89213500  0.55809000  0.76020400  1
  H  2400  1  0.84358300  0.45002400  0.75121200  1
  C  1  1  0.10562200  0.39204500  0.08306700  1
  C  2  1  0.08591100  0.40140400  0.07649400  1
  C  3  1  0.08461900  0.40032800  0.06319900  1
  C  4  1  0.10329900  0.39073500  0.05574800  1
  C  5  1  0.12251400  0.38070800  0.06263100  1
  C  6  1  0.12399600  0.38186100  0.07585300  1
  C  7  1  0.10182300  0.38846700  0.04132100  1
  C  8  1  0.08988700  0.36405800  0.03993600  1
  C  9  1  0.10254900  0.34213700  0.03985700  1
  C  10  1  0.09091700  0.31992900  0.03874500  1
  C  11  1  0.06586600  0.31846200  0.03830100  1
  C  12  1  0.05312800  0.34001900  0.03879200  1
  C  13  1  0.06478100  0.36201800  0.03986300  1
  C  14  1  0.08884300  0.40887100  0.03458600  1
  C  15  1  0.12590200  0.39020600  0.03468500  1
  C  16  1  0.13101800  0.37890100  0.02302800  1
  C  17  1  0.15348300  0.38074000  0.01716700  1
  C  18  1  0.17172100  0.39459500  0.02252900  1
  C  19  1  0.16606800  0.40799500  0.03323500  1
  C  20  1  0.14369900  0.40605100  0.03902300  1
  C  21  1  0.09034500  0.43289700  0.03866300  1
  C  22  1  0.07863800  0.45150700  0.03227700  1
  C  23  1  0.06521000  0.44699300  0.02133600  1
  C  24  1  0.06568300  0.42379000  0.01636200  1
  C  25  1  0.07763800  0.40539700  0.02272200  1
  C  46  1  0.40167900  0.61526600  0.58307400  1
  C  47  1  0.42140000  0.60592100  0.57650500  1
  C  48  1  0.42271000  0.60699200  0.56321300  1
  C  49  1  0.40404900  0.61660600  0.55577000  1
  C  50  1  0.38482100  0.62663500  0.56264000  1
  C  51  1  0.38330800  0.62545000  0.57585800  1
  C  52  1  0.40553200  0.61880800  0.54136500  1
  C  53  1  0.41744200  0.64325500  0.53994000  1
  C  54  1  0.40478200  0.66518900  0.53985200  1
  C  55  1  0.41641300  0.68739700  0.53873200  1
  C  56  1  0.44146300  0.68886100  0.53829400  1
  C  57  1  0.45420300  0.66730700  0.53878700  1
  C  58  1  0.44254700  0.64530900  0.53986000  1
  C  59  1  0.41849900  0.59844000  0.53460000  1
  C  60  1  0.38139800  0.61691100  0.53484300  1
  C  61  1  0.37656600  0.62836900  0.52322100  1
  C  62  1  0.35419400  0.62688500  0.51731800  1
  C  63  1  0.33580100  0.61283700  0.52232400  1
  C  64  1  0.34098100  0.59972200  0.53326900  1
  C  65  1  0.36342300  0.60114900  0.53912900  1
  C  66  1  0.41698300  0.57441500  0.53866500  1
  C  67  1  0.42868300  0.55580800  0.53227700  1
  C  68  1  0.44211100  0.56032500  0.52133700  1
  C  69  1  0.44163400  0.58353000  0.51636300  1
  C  70  1  0.42967600  0.60192000  0.52272500  1
  C  91  1  0.86527500  0.85561300  0.33307100  1
  C  92  1  0.85591900  0.83590500  0.32649400  1
  C  93  1  0.85699700  0.83460400  0.31320300  1
  C  94  1  0.86661700  0.85326000  0.30577400  1
  C  95  1  0.87664800  0.87248700  0.31265600  1
  C  96  1  0.87545500  0.87399200  0.32586700  1
  C  97  1  0.86884700  0.85171000  0.29138300  1
  C  98  1  0.89327800  0.83986900  0.28993500  1
  C  99  1  0.91521500  0.85253200  0.28985300  1
  C  100  1  0.93740900  0.84090100  0.28874100  1
  C  101  1  0.93886100  0.81585300  0.28829800  1
  C  102  1  0.91730100  0.80312400  0.28879300  1
  C  103  1  0.89530900  0.81478100  0.28986200  1
  C  104  1  0.84844600  0.83888500  0.28457600  1
  C  105  1  0.86733100  0.87582400  0.28501500  1
  C  106  1  0.87903300  0.88056500  0.27344300  1
  C  107  1  0.87782400  0.90292600  0.26770100  1
  C  108  1  0.86436400  0.92104200  0.27329200  1
  C  109  1  0.85033900  0.91606300  0.28386500  1
  C  110  1  0.85159400  0.89363200  0.28949900  1
  C  111  1  0.82442800  0.84035700  0.28865800  1
  C  112  1  0.80582000  0.82864000  0.28227900  1
  C  113  1  0.81033000  0.81521600  0.27133700  1
  C  114  1  0.83353300  0.81568900  0.26636300  1
  C  115  1  0.85192200  0.82766700  0.27271500  1
  C  136  1  0.64205400  0.15166500  0.83308200  1
  C  137  1  0.65139600  0.17139500  0.82651700  1
  C  138  1  0.65034200  0.17270900  0.81322700  1
  C  139  1  0.64074400  0.15403900  0.80579200  1
  C  140  1  0.63069900  0.13481000  0.81264900  1
  C  141  1  0.63187500  0.13329500  0.82586500  1
  C  142  1  0.63858100  0.15552000  0.79141100  1
  C  143  1  0.61409000  0.16743200  0.78996200  1
  C  144  1  0.59214500  0.15477600  0.78986600  1
  C  145  1  0.56993400  0.16640200  0.78874800  1
  C  146  1  0.56846200  0.19145300  0.78830700  1
  C  147  1  0.59001500  0.20419200  0.78879900  1
  C  148  1  0.61201800  0.19253800  0.78986900  1
  C  149  1  0.65890100  0.16849100  0.78460400  1
  C  150  1  0.64059200  0.13131900  0.78498000  1
  C  151  1  0.62900800  0.12685000  0.77338500  1
  C  152  1  0.63010800  0.10468200  0.76735000  1
  C  153  1  0.64391200  0.08595800  0.77208900  1
  C  154  1  0.65738100  0.09069900  0.78304100  1
  C  155  1  0.65626500  0.11307800  0.78910900  1
  C  156  1  0.68292100  0.16698200  0.78866700  1
  C  157  1  0.70151700  0.17868800  0.78227700  1
  C  158  1  0.69699700  0.19210600  0.77133400  1
  C  159  1  0.67379000  0.19163400  0.76636500  1
  C  160  1  0.65540400  0.17967300  0.77272900  1
  C  181  1  0.40163800  0.39196600  0.92436000  1
  C  182  1  0.42126700  0.40129600  0.93101900  1
  C  183  1  0.42236700  0.40025100  0.94432800  1
  C  184  1  0.40354400  0.39081300  0.95175200  1
  C  185  1  0.38442400  0.38084100  0.94479100  1
  C  186  1  0.38318100  0.38185900  0.93154700  1
  C  187  1  0.40475200  0.38854700  0.96619300  1
  C  188  1  0.41690300  0.36418100  0.96762700  1
  C  189  1  0.40442700  0.34216500  0.96768300  1
  C  190  1  0.41623000  0.31999600  0.96863600  1
  C  191  1  0.44130100  0.31858900  0.96899400  1
  C  192  1  0.45388300  0.34023600  0.96849400  1
  C  193  1  0.44204700  0.36218600  0.96753200  1
  C  194  1  0.41786900  0.40888800  0.97289000  1
  C  195  1  0.38048900  0.39049600  0.97263500  1
  C  196  1  0.37550900  0.37920000  0.98430300  1
  C  197  1  0.35338800  0.38156000  0.99034000  1
  C  198  1  0.33530200  0.39585000  0.98509600  1
  C  199  1  0.34062400  0.40893600  0.97417300  1
  C  200  1  0.36284800  0.40656900  0.96824000  1
  C  201  1  0.41666200  0.43287300  0.96873000  1
  C  202  1  0.42864000  0.45142500  0.97502200  1
  C  203  1  0.44210800  0.44691800  0.98595400  1
  C  204  1  0.44157700  0.42372600  0.99094400  1
  C  205  1  0.42932000  0.40539300  0.98469000  1
  C  226  1  0.10568400  0.61534600  0.42435900  1
  C  227  1  0.08604900  0.60602400  0.43101600  1
  C  228  1  0.08494500  0.60707100  0.44432800  1
  C  229  1  0.10377200  0.61649300  0.45175100  1
  C  230  1  0.12288600  0.62648100  0.44478700  1
  C  231  1  0.12413700  0.62545500  0.43154800  1
  C  232  1  0.10256400  0.61877200  0.46618800  1
  C  233  1  0.09041700  0.64313900  0.46763400  1
  C  234  1  0.10288600  0.66516000  0.46768300  1
  C  235  1  0.09107800  0.68732700  0.46862500  1
  C  236  1  0.06600800  0.68873000  0.46900000  1
  C  237  1  0.05343100  0.66708200  0.46849800  1
  C  238  1  0.06527100  0.64513400  0.46752300  1
  C  239  1  0.08944400  0.59843700  0.47289500  1
  C  240  1  0.12682800  0.61683400  0.47263700  1
  C  241  1  0.13180700  0.62811600  0.48430700  1
  C  242  1  0.15392300  0.62575600  0.49033700  1
  C  243  1  0.17200700  0.61147200  0.48509400  1
  C  244  1  0.16669000  0.59838300  0.47416900  1
  C  245  1  0.14446600  0.60075400  0.46824400  1
  C  246  1  0.09064900  0.57444900  0.46873500  1
  C  247  1  0.07868600  0.55589300  0.47503000  1
  C  248  1  0.06520900  0.56040000  0.48595500  1
  C  249  1  0.06574100  0.58359000  0.49094600  1
  C  250  1  0.07799800  0.60192300  0.48469200  1
  C  271  1  0.64197900  0.85569300  0.67436000  1
  C  272  1  0.65129400  0.83605300  0.68101700  1
  C  273  1  0.65025500  0.83494800  0.69432900  1
  C  274  1  0.64081000  0.85376500  0.70175100  1
  C  275  1  0.63084100  0.87289300  0.69478900  1
  C  276  1  0.63187700  0.87414900  0.68155000  1
  C  277  1  0.63854400  0.85256200  0.71618800  1
  C  278  1  0.61417700  0.84041200  0.71762800  1
  C  279  1  0.59216000  0.85288400  0.71768700  1
  C  280  1  0.56999100  0.84107700  0.71863500  1
  C  281  1  0.56858800  0.81600600  0.71900500  1
  C  282  1  0.59023600  0.80342800  0.71849900  1
  C  283  1  0.61218400  0.81526600  0.71752900  1
  C  284  1  0.65888700  0.83944500  0.72289400  1
  C  285  1  0.64049600  0.87682600  0.72263700  1
  C  286  1  0.62920400  0.88180400  0.73430600  1
  C  287  1  0.63155800  0.90392300  0.74033500  1
  C  288  1  0.64584400  0.92200700  0.73509300  1
  C  289  1  0.65893500  0.91669100  0.72416700  1
  C  290  1  0.65656600  0.89446900  0.71824200  1
  C  291  1  0.68286900  0.84064500  0.71873200  1
  C  292  1  0.70142300  0.82867800  0.72502800  1
  C  293  1  0.69691800  0.81520700  0.73595500  1
  C  294  1  0.67372600  0.81573900  0.74094500  1
  C  295  1  0.65539100  0.82799400  0.73469000  1
  C  316  1  0.86534500  0.15161800  0.17435600  1
  C  317  1  0.85602000  0.17125400  0.18101200  1
  C  318  1  0.85707000  0.17236400  0.19432400  1
  C  319  1  0.86651200  0.15354600  0.20174800  1
  C  320  1  0.87648200  0.13442100  0.19478600  1
  C  321  1  0.87545000  0.13316500  0.18154600  1
  C  322  1  0.86878000  0.15475900  0.21618500  1
  C  323  1  0.89314400  0.16691300  0.21762500  1
  C  324  1  0.91516600  0.15444200  0.21768500  1
  C  325  1  0.93733100  0.16625200  0.21863100  1
  C  326  1  0.93873100  0.19132300  0.21900600  1
  C  327  1  0.91708200  0.20389900  0.21850000  1
  C  328  1  0.89513600  0.19205800  0.21752600  1
  C  329  1  0.84843500  0.16787200  0.22289100  1
  C  330  1  0.86684500  0.13050000  0.22263400  1
  C  331  1  0.87812900  0.12552200  0.23430500  1
  C  332  1  0.87576300  0.10341500  0.24033700  1
  C  333  1  0.86143100  0.08539000  0.23507800  1
  C  334  1  0.84836600  0.09066700  0.22415700  1
  C  335  1  0.85075600  0.11287400  0.21823900  1
  C  336  1  0.82444900  0.16666900  0.21873200  1
  C  337  1  0.80589700  0.17864000  0.22502400  1
  C  338  1  0.81040000  0.19211100  0.23595200  1
  C  339  1  0.83359200  0.19157900  0.24094200  1
  C  340  1  0.85192700  0.17932400  0.23468800  1
  C  361  1  0.90170300  0.61527700  0.92426500  1
  C  362  1  0.92141800  0.60591000  0.93083300  1
  C  363  1  0.92273500  0.60696400  0.94413000  1
  C  364  1  0.90408800  0.61655100  0.95159100  1
  C  365  1  0.88485600  0.62659500  0.94471500  1
  C  366  1  0.88334500  0.62545400  0.93149300  1
  C  367  1  0.90563500  0.61866400  0.96601400  1
  C  368  1  0.91748100  0.64315300  0.96743800  1
  C  369  1  0.90480400  0.66509300  0.96747600  1
  C  370  1  0.91640400  0.68732500  0.96857000  1
  C  371  1  0.94145400  0.68882200  0.96901300  1
  C  372  1  0.95420300  0.66727100  0.96853200  1
  C  373  1  0.94257400  0.64524300  0.96751400  1
  C  374  1  0.91856300  0.59817500  0.97275800  1
  C  375  1  0.88150300  0.61683100  0.97251300  1
  C  376  1  0.87674600  0.62836700  0.98412400  1
  C  377  1  0.85429400  0.62719300  0.98994400  1
  C  378  1  0.83580800  0.61328700  0.98491700  1
  C  379  1  0.84091900  0.60003500  0.97398400  1
  C  380  1  0.86345800  0.60116700  0.96819300  1
  C  381  1  0.91688100  0.57421800  0.96860800  1
  C  382  1  0.92859400  0.55540000  0.97482400  1
  C  383  1  0.94234400  0.55948000  0.98569900  1
  C  384  1  0.94188900  0.58264900  0.99082100  1
  C  385  1  0.92991400  0.60130400  0.98461500  1
  C  406  1  0.60563200  0.39204600  0.42426100  1
  C  407  1  0.58590900  0.40140100  0.43082700  1
  C  408  1  0.58458100  0.40035100  0.44412000  1
  C  409  1  0.60321600  0.39074200  0.45158100  1
  C  410  1  0.62245500  0.38070400  0.44471000  1
  C  411  1  0.62398900  0.38187200  0.43149000  1
  C  412  1  0.60165100  0.38864200  0.46599700  1
  C  413  1  0.58982500  0.36415400  0.46744000  1
  C  414  1  0.60250900  0.34221700  0.46747900  1
  C  415  1  0.59091000  0.31998600  0.46857900  1
  C  416  1  0.56586200  0.31849100  0.46901600  1
  C  417  1  0.55311200  0.34004200  0.46853800  1
  C  418  1  0.56473700  0.36206800  0.46752100  1
  C  419  1  0.58875700  0.40914300  0.47275300  1
  C  420  1  0.62578800  0.39044800  0.47246800  1
  C  421  1  0.63056200  0.37890500  0.48406800  1
  C  422  1  0.65304200  0.38012400  0.48987400  1
  C  423  1  0.67148600  0.39429600  0.48496500  1
  C  424  1  0.66632600  0.40733100  0.47395800  1
  C  425  1  0.64380800  0.40613000  0.46814400  1
  C  426  1  0.59045800  0.43310400  0.46860900  1
  C  427  1  0.57872400  0.45191600  0.47481900  1
  C  428  1  0.56496500  0.44783700  0.48568900  1
  C  429  1  0.56543600  0.42467100  0.49081400  1
  C  430  1  0.57742000  0.40601900  0.48461800  1
  C  451  1  0.14204900  0.15166800  0.67424100  1
  C  452  1  0.15140000  0.17138800  0.68080900  1
  C  453  1  0.15032200  0.17270900  0.69409800  1
  C  454  1  0.14071800  0.15405700  0.70153800  1
  C  455  1  0.13068700  0.13481600  0.69466700  1
  C  456  1  0.13186900  0.13329900  0.68145400  1
  C  457  1  0.13850500  0.15565100  0.71592800  1
  C  458  1  0.11404700  0.16746600  0.71737400  1
  C  459  1  0.09210900  0.15479600  0.71746800  1
  C  460  1  0.06990900  0.16642600  0.71858300  1
  C  461  1  0.06845500  0.19147400  0.71902900  1
  C  462  1  0.09001200  0.20420700  0.71853100  1
  C  463  1  0.11200500  0.19255300  0.71745400  1
  C  464  1  0.15888600  0.16848300  0.72273300  1
  C  465  1  0.14003600  0.13154600  0.72231900  1
  C  466  1  0.12838700  0.12683800  0.73390100  1
  C  467  1  0.12869200  0.10418000  0.73939800  1
  C  468  1  0.14069300  0.08535000  0.73358700  1
  C  469  1  0.15603700  0.09091100  0.72337100  1
  C  470  1  0.15573200  0.11362900  0.71793900  1
  C  471  1  0.18289900  0.16698000  0.71865600  1
  C  472  1  0.20150500  0.17868300  0.72504000  1
  C  473  1  0.19699300  0.19210600  0.73598200  1
  C  474  1  0.17379200  0.19163400  0.74095700  1
  C  475  1  0.15540200  0.17967600  0.73460000  1
  C  496  1  0.36526500  0.85563600  0.17424700  1
  C  497  1  0.35592600  0.83592000  0.18082500  1
  C  498  1  0.35699600  0.83461300  0.19411800  1
  C  499  1  0.36666300  0.85323700  0.20155100  1
  C  500  1  0.37665500  0.87248500  0.19466900  1
  C  501  1  0.37544300  0.87400800  0.18145800  1
  C  502  1  0.36887000  0.85169900  0.21594900  1
  C  503  1  0.39329200  0.83986500  0.21740000  1
  C  504  1  0.41521700  0.85254300  0.21747200  1
  C  505  1  0.43741100  0.84090800  0.21857200  1
  C  506  1  0.43886000  0.81586000  0.21901400  1
  C  507  1  0.41730500  0.80312400  0.21851800  1
  C  508  1  0.39531100  0.81477600  0.21746200  1
  C  509  1  0.34844800  0.83889200  0.22275500  1
  C  510  1  0.36730400  0.87582700  0.22229900  1
  C  511  1  0.37894400  0.88065800  0.23386900  1
  C  512  1  0.37759800  0.90305800  0.23953700  1
  C  513  1  0.36412700  0.92124000  0.23397600  1
  C  514  1  0.35012600  0.91606100  0.22337600  1
  C  515  1  0.35151100  0.89356100  0.21777600  1
  C  516  1  0.32443300  0.84035800  0.21866300  1
  C  517  1  0.30582400  0.82863700  0.22503900  1
  C  518  1  0.31033000  0.81521400  0.23598300  1
  C  519  1  0.33353300  0.81568600  0.24095700  1
  C  520  1  0.35192500  0.82767200  0.23461300  1
  C  541  1  0.60567500  0.61535700  0.08294200  1
  C  542  1  0.58604400  0.60602200  0.07628500  1
  C  543  1  0.58492800  0.60705100  0.06297000  1
  C  544  1  0.60372800  0.61648000  0.05552800  1
  C  545  1  0.62285300  0.62646100  0.06249600  1
  C  546  1  0.62411500  0.62545700  0.07574000  1
  C  547  1  0.60247900  0.61865300  0.04107000  1
  C  548  1  0.59037500  0.64304800  0.03961700  1
  C  549  1  0.60286300  0.66507300  0.03961600  1
  C  550  1  0.59108500  0.68726300  0.03868800  1
  C  551  1  0.56601500  0.68869800  0.03832400  1
  C  552  1  0.55342500  0.66705400  0.03881100  1
  C  553  1  0.56524100  0.64507600  0.03972800  1
  C  554  1  0.58938500  0.59818200  0.03439100  1
  C  555  1  0.62676900  0.61675100  0.03464600  1
  C  556  1  0.63177000  0.62807700  0.02299200  1
  C  557  1  0.65391200  0.62576200  0.01697900  1
  C  558  1  0.67200000  0.61148400  0.02222200  1
  C  559  1  0.66666667  0.59839400  0.03314700  1
  C  560  1  0.64444600  0.60073300  0.03906100  1
  C  561  1  0.59076800  0.57426200  0.03863100  1
  C  562  1  0.57876500  0.55550000  0.03251800  1
  C  563  1  0.56497000  0.55956000  0.02165600  1
  C  564  1  0.56548800  0.58271600  0.01651800  1
  C  565  1  0.57776100  0.60131500  0.02260800  1
  C  586  1  0.90164100  0.39196800  0.58294300  1
  C  587  1  0.92127500  0.40129600  0.57628700  1
  C  588  1  0.92239500  0.40026400  0.56297200  1
  C  589  1  0.90359300  0.39084900  0.55552700  1
  C  590  1  0.88447500  0.38085200  0.56249600  1
  C  591  1  0.88320300  0.38186400  0.57573900  1
  C  592  1  0.90484300  0.38866300  0.54107100  1
  C  593  1  0.91694200  0.36426600  0.53961100  1
  C  594  1  0.90446200  0.34223800  0.53961700  1
  C  595  1  0.91624400  0.32004800  0.53869600  1
  C  596  1  0.94131200  0.31861900  0.53832100  1
  C  597  1  0.95389900  0.34026600  0.53881000  1
  C  598  1  0.94207700  0.36223900  0.53973300  1
  C  599  1  0.91794000  0.40912900  0.53439100  1
  C  600  1  0.88055300  0.39055300  0.53464800  1
  C  601  1  0.87554800  0.37924100  0.52299000  1
  C  602  1  0.85340800  0.38156000  0.51698000  1
  C  603  1  0.83532700  0.39584100  0.52222800  1
  C  604  1  0.84064300  0.40892800  0.53315300  1
  C  605  1  0.86288300  0.40658000  0.53906300  1
  C  606  1  0.91654700  0.43305200  0.53862900  1
  C  607  1  0.92854600  0.45182000  0.53251500  1
  C  608  1  0.94234800  0.44776400  0.52165700  1
  C  609  1  0.94183500  0.42460700  0.51651800  1
  C  610  1  0.92955700  0.40600700  0.52260600  1
  C  631  1  0.36533900  0.15162500  0.33295900  1
  C  632  1  0.35602400  0.17126400  0.32630100  1
  C  633  1  0.35706500  0.17236900  0.31299000  1
  C  634  1  0.36651000  0.15355100  0.30556800  1
  C  635  1  0.37647900  0.13442400  0.31253000  1
  C  636  1  0.37544700  0.13317100  0.32576900  1
  C  637  1  0.36877800  0.15475400  0.29113000  1
  C  638  1  0.39314300  0.16690600  0.28969200  1
  C  639  1  0.41516000  0.15443300  0.28963200  1
  C  640  1  0.43732700  0.16624100  0.28868400  1
  C  641  1  0.43873100  0.19131200  0.28831400  1
  C  642  1  0.41708200  0.20389000  0.28881900  1
  C  643  1  0.39513400  0.19205100  0.28979100  1
  C  644  1  0.34843500  0.16787100  0.28442600  1
  C  645  1  0.36682900  0.13049500  0.28467900  1
  C  646  1  0.37812500  0.12551600  0.27301100  1
  C  647  1  0.37577100  0.10340000  0.26698400  1
  C  648  1  0.36144200  0.08537300  0.27224900  1
  C  649  1  0.34837300  0.09065500  0.28316600  1
  C  650  1  0.35075600  0.11286400  0.28908200  1
  C  651  1  0.32445100  0.16667000  0.28858600  1
  C  652  1  0.30589900  0.17863900  0.28229300  1
  C  653  1  0.31040200  0.19211000  0.27136500  1
  C  654  1  0.33359400  0.19158100  0.26637600  1
  C  655  1  0.35192900  0.17932400  0.27262900  1
  C  676  1  0.14197300  0.85570000  0.83296300  1
  C  677  1  0.15129800  0.83606400  0.82630700  1
  C  678  1  0.15024900  0.83495500  0.81299500  1
  C  679  1  0.14080700  0.85377300  0.80557000  1
  C  680  1  0.13083700  0.87289800  0.81253300  1
  C  681  1  0.13186800  0.87415300  0.82577200  1
  C  682  1  0.13854000  0.85256200  0.79113400  1
  C  683  1  0.11417500  0.84040700  0.78969400  1
  C  684  1  0.09215500  0.85287700  0.78963400  1
  C  685  1  0.06998800  0.84106700  0.78868800  1
  C  686  1  0.06858700  0.81599500  0.78831200  1
  C  687  1  0.09023600  0.80342100  0.78881900  1
  C  688  1  0.11218400  0.81526200  0.78979200  1
  C  689  1  0.15888400  0.83944700  0.78442800  1
  C  690  1  0.14047700  0.87682600  0.78468500  1
  C  691  1  0.12919700  0.88180400  0.77301600  1
  C  692  1  0.13156500  0.90391000  0.76698500  1
  C  693  1  0.14585900  0.92198000  0.77223100  1
  C  694  1  0.15894600  0.91668200  0.78315400  1
  C  695  1  0.15656500  0.89446000  0.78907600  1
  C  696  1  0.18286900  0.84065000  0.78858700  1
  C  697  1  0.20142300  0.82868000  0.78229400  1
  C  698  1  0.19691700  0.81521400  0.77136300  1
  C  699  1  0.17372400  0.81574400  0.76637500  1
  C  700  1  0.15539000  0.82799800  0.77263100  1
  C  721  1  0.60396300  0.89084500  0.58287700  1
  C  722  1  0.58461300  0.90057900  0.57615100  1
  C  723  1  0.58422400  0.90071700  0.56283900  1
  C  724  1  0.60326500  0.89146600  0.55554800  1
  C  725  1  0.62240700  0.88159200  0.56247900  1
  C  726  1  0.62306000  0.88181100  0.57568600  1
  C  727  1  0.60206000  0.88891200  0.54122400  1
  C  728  1  0.59036200  0.86430300  0.53976100  1
  C  729  1  0.60310300  0.84238900  0.53989800  1
  C  730  1  0.59153100  0.82005000  0.53962600  1
  C  731  1  0.56648100  0.81843700  0.53930400  1
  C  732  1  0.55376700  0.84006700  0.53910300  1
  C  733  1  0.56530800  0.86215300  0.53953900  1
  C  734  1  0.58907700  0.90913200  0.53441800  1
  C  735  1  0.62626700  0.89068000  0.53488800  1
  C  736  1  0.63023600  0.87872700  0.52337000  1
  C  737  1  0.65210000  0.87951500  0.51714700  1
  C  738  1  0.67074000  0.89404100  0.52132400  1
  C  739  1  0.66697400  0.90695200  0.53264300  1
  C  740  1  0.64485700  0.90597700  0.53900000  1
  C  741  1  0.59048700  0.93311300  0.53853700  1
  C  742  1  0.57860500  0.95164700  0.53221500  1
  C  743  1  0.56515700  0.94707100  0.52129400  1
  C  744  1  0.56562700  0.92388800  0.51630200  1
  C  745  1  0.57770300  0.90554400  0.52261200  1
  C  766  1  0.90333200  0.11645500  0.08287900  1
  C  767  1  0.92271000  0.10676500  0.07615400  1
  C  768  1  0.92312300  0.10661100  0.06284000  1
  C  769  1  0.90416500  0.11598200  0.05552700  1
  C  770  1  0.88498800  0.12579900  0.06246300  1
  C  771  1  0.88425100  0.12548600  0.07567400  1
  C  772  1  0.90538700  0.11850000  0.04116500  1
  C  773  1  0.91700400  0.14306800  0.03968800  1
  C  774  1  0.90422000  0.16494400  0.03984900  1
  C  775  1  0.91579400  0.18728600  0.03961800  1
  C  776  1  0.94084900  0.18888300  0.03933000  1
  C  777  1  0.95359200  0.16727600  0.03908400  1
  C  778  1  0.94206000  0.14519900  0.03952200  1
  C  779  1  0.91835800  0.09821800  0.03441900  1
  C  780  1  0.88125700  0.11659400  0.03474900  1
  C  781  1  0.87655500  0.12817500  0.02316300  1
  C  782  1  0.85418500  0.12695800  0.01731000  1
  C  783  1  0.83572200  0.11296600  0.02225600  1
  C  784  1  0.84071300  0.09984200  0.03325100  1
  C  785  1  0.86321600  0.10094800  0.03907600  1
  C  786  1  0.91688800  0.07423000  0.03853800  1
  C  787  1  0.92871800  0.05567100  0.03221200  1
  C  788  1  0.94216800  0.06023900  0.02129100  1
  C  789  1  0.94170400  0.08341600  0.01628900  1
  C  790  1  0.92964700  0.10177500  0.02259300  1
  C  811  1  0.36650300  0.35396500  0.83284500  1
  C  812  1  0.35676100  0.33461700  0.82612000  1
  C  813  1  0.35659900  0.33422900  0.81280000  1
  C  814  1  0.36586600  0.35323500  0.80547500  1
  C  815  1  0.37574600  0.37235300  0.81243100  1
  C  816  1  0.37545700  0.37308300  0.82564500  1
  C  817  1  0.36835200  0.35207500  0.79111100  1
  C  818  1  0.39294200  0.34035500  0.78962600  1
  C  819  1  0.41486800  0.35308200  0.78985700  1
  C  820  1  0.43722000  0.34152600  0.78964100  1
  C  821  1  0.43884200  0.31647900  0.78933400  1
  C  822  1  0.41721800  0.30375400  0.78909200  1
  C  823  1  0.39511500  0.31529900  0.78946600  1
  C  824  1  0.34798000  0.33907200  0.78436500  1
  C  825  1  0.36671200  0.37637600  0.78481500  1
  C  826  1  0.37868200  0.38059900  0.77331800  1
  C  827  1  0.37736900  0.40240800  0.76704900  1
  C  828  1  0.36241200  0.42075400  0.77120500  1
  C  829  1  0.34986800  0.41691900  0.78264300  1
  C  830  1  0.35139000  0.39487100  0.78902500  1
  C  831  1  0.32405900  0.34061500  0.78857600  1
  C  832  1  0.30530100  0.32869800  0.78244200  1
  C  833  1  0.30941600  0.31492000  0.77158600  1
  C  834  1  0.33256100  0.31538000  0.76644200  1
  C  835  1  0.35117600  0.32750700  0.77257500  1
  C  856  1  0.14084100  0.65336200  0.33285900  1
  C  857  1  0.15055100  0.67273100  0.32613900  1
  C  858  1  0.15073000  0.67314800  0.31282400  1
  C  859  1  0.14139100  0.65419500  0.30549800  1
  C  860  1  0.13154600  0.63502300  0.31243500  1
  C  861  1  0.13184300  0.63427100  0.32565100  1
  C  862  1  0.13898200  0.65544800  0.29113000  1
  C  863  1  0.11435400  0.66702900  0.28963400  1
  C  864  1  0.09246200  0.65424100  0.28984900  1
  C  865  1  0.07009700  0.66578800  0.28962500  1
  C  866  1  0.06847000  0.69083900  0.28932900  1
  C  867  1  0.09007800  0.70358900  0.28909200  1
  C  868  1  0.11218300  0.69207700  0.28946200  1
  C  869  1  0.15935900  0.66841000  0.28438800  1
  C  870  1  0.14091100  0.63124700  0.28478200  1
  C  871  1  0.12924200  0.62675500  0.27321900  1
  C  872  1  0.13020000  0.60452000  0.26727200  1
  C  873  1  0.14395400  0.58583400  0.27208700  1
  C  874  1  0.15743800  0.59056500  0.28302000  1
  C  875  1  0.15644600  0.61298600  0.28900800  1
  C  876  1  0.18328200  0.66676000  0.28858200  1
  C  877  1  0.20204400  0.67863500  0.28243600  1
  C  878  1  0.19792000  0.69240300  0.27157900  1
  C  879  1  0.17477300  0.69196200  0.26643500  1
  C  880  1  0.15615200  0.67987200  0.27257400  1
  C  901  1  0.90327500  0.89077400  0.42456400  1
  C  902  1  0.92255200  0.90047700  0.43136800  1
  C  903  1  0.92277200  0.90061400  0.44470000  1
  C  904  1  0.90365600  0.89142300  0.45199700  1
  C  905  1  0.88457700  0.88168600  0.44496500  1
  C  906  1  0.88411400  0.88181800  0.43173800  1
  C  907  1  0.90459700  0.88883000  0.46639900  1
  C  908  1  0.91647400  0.86435700  0.46788600  1
  C  909  1  0.90388000  0.84239600  0.46768400  1
  C  910  1  0.91562500  0.82011400  0.46774600  1
  C  911  1  0.94070200  0.81857400  0.46797400  1
  C  912  1  0.95329000  0.84026900  0.46820800  1
  C  913  1  0.94157400  0.86229200  0.46786500  1
  C  914  1  0.91772100  0.90910400  0.47307400  1
  C  915  1  0.88034800  0.89073800  0.47277900  1
  C  916  1  0.87538200  0.87935700  0.48441800  1
  C  917  1  0.85323000  0.88160600  0.49040100  1
  C  918  1  0.83518500  0.89590300  0.48513100  1
  C  919  1  0.84046900  0.90899200  0.47420900  1
  C  920  1  0.86270900  0.90673300  0.46832700  1
  C  921  1  0.91656800  0.93305200  0.46886000  1
  C  922  1  0.92867600  0.95155500  0.47508700  1
  C  923  1  0.94217200  0.94700400  0.48599500  1
  C  924  1  0.94165200  0.92383700  0.49101300  1
  C  925  1  0.92928800  0.90553700  0.48482000  1
  C  946  1  0.60402700  0.11653200  0.92455700  1
  C  947  1  0.58474900  0.10685200  0.93136900  1
  C  948  1  0.58453700  0.10670300  0.94469600  1
  C  949  1  0.60365900  0.11588200  0.95199700  1
  C  950  1  0.62272700  0.12563200  0.94496000  1
  C  951  1  0.62319500  0.12548500  0.93172900  1
  C  952  1  0.60271700  0.11849000  0.96640000  1
  C  953  1  0.59085200  0.14296500  0.96789100  1
  C  954  1  0.60344000  0.16492700  0.96767400  1
  C  955  1  0.59169700  0.18720800  0.96773000  1
  C  956  1  0.56662500  0.18874200  0.96796600  1
  C  957  1  0.55402600  0.16705400  0.96822100  1
  C  958  1  0.56575000  0.14503200  0.96786300  1
  C  959  1  0.58959300  0.09822300  0.97307900  1
  C  960  1  0.62696300  0.11659200  0.97277700  1
  C  961  1  0.63191800  0.12795500  0.98441700  1
  C  962  1  0.65405600  0.12569900  0.99039700  1
  C  963  1  0.67212100  0.11144600  0.98512400  1
  C  964  1  0.66684900  0.09832800  0.97420100  1
  C  965  1  0.64460200  0.10058900  0.96832500  1
  C  966  1  0.59075500  0.07427300  0.96886200  1
  C  967  1  0.57865100  0.05576500  0.97508800  1
  C  968  1  0.56514500  0.06031500  0.98599200  1
  C  969  1  0.56566400  0.08348000  0.99101900  1
  C  970  1  0.57802700  0.10178200  0.98482200  1
  C  991  1  0.14080500  0.35403400  0.17457800  1
  C  992  1  0.15047400  0.33474700  0.18138900  1
  C  993  1  0.15063100  0.33451000  0.19472200  1
  C  994  1  0.14144500  0.35360000  0.20203700  1
  C  995  1  0.13170200  0.37268400  0.19499900  1
  C  996  1  0.13185700  0.37318800  0.18176500  1
  C  997  1  0.13894500  0.35262300  0.21646100  1
  C  998  1  0.11443900  0.34080000  0.21796300  1
  C  999  1  0.09247300  0.35340800  0.21769800  1
  C  1000  1  0.07016700  0.34169300  0.21773900  1
  C  1001  1  0.06859800  0.31662200  0.21796800  1
  C  1002  1  0.09028900  0.30402100  0.21820700  1
  C  1003  1  0.11234000  0.31571100  0.21793600  1
  C  1004  1  0.15935000  0.33952700  0.22311000  1
  C  1005  1  0.14080900  0.37689900  0.22281000  1
  C  1006  1  0.12940600  0.38187900  0.23443800  1
  C  1007  1  0.13161200  0.40404900  0.24039700  1
  C  1008  1  0.14586000  0.42211700  0.23511800  1
  C  1009  1  0.15897800  0.41683700  0.22420200  1
  C  1010  1  0.15674700  0.39457400  0.21833400  1
  C  1011  1  0.18323600  0.34086600  0.21881800  1
  C  1012  1  0.20195000  0.32873300  0.22486800  1
  C  1013  1  0.19784400  0.31492000  0.23571100  1
  C  1014  1  0.17471100  0.31541700  0.24087500  1
  C  1015  1  0.15614300  0.32778500  0.23484200  1
  C  1036  1  0.36654600  0.65327500  0.67457800  1
  C  1037  1  0.35684500  0.67255500  0.68138100  1
  C  1038  1  0.35668600  0.67279200  0.69471600  1
  C  1039  1  0.36587700  0.65370200  0.70203400  1
  C  1040  1  0.37562100  0.63461900  0.69499700  1
  C  1041  1  0.37548200  0.63411900  0.68176400  1
  C  1042  1  0.36837400  0.65468800  0.71645800  1
  C  1043  1  0.39287800  0.66651600  0.71795900  1
  C  1044  1  0.41484200  0.65391000  0.71770000  1
  C  1045  1  0.43714400  0.66563000  0.71772800  1
  C  1046  1  0.43872600  0.69070200  0.71799500  1
  C  1047  1  0.41702700  0.70329500  0.71821400  1
  C  1048  1  0.39497800  0.69160600  0.71792600  1
  C  1049  1  0.34796900  0.66778900  0.72310600  1
  C  1050  1  0.36652600  0.63041400  0.72281500  1
  C  1051  1  0.37792100  0.62540900  0.73444700  1
  C  1052  1  0.37571900  0.60321200  0.74040600  1
  C  1053  1  0.36141300  0.58516900  0.73512800  1
  C  1054  1  0.34833700  0.59049700  0.72421000  1
  C  1055  1  0.35057800  0.61275000  0.71834200  1
  C  1056  1  0.32408300  0.66644500  0.71881400  1
  C  1057  1  0.30537000  0.67858700  0.72486100  1
  C  1058  1  0.30947400  0.69240800  0.73570200  1
  C  1059  1  0.33260400  0.69190300  0.74086800  1
  C  1060  1  0.35117400  0.67953200  0.73483700  1
  C  1081  1  0.40335900  0.11647800  0.42445900  1
  C  1082  1  0.42271200  0.10673600  0.43118000  1
  C  1083  1  0.42313400  0.10660100  0.44449800  1
  C  1084  1  0.40415600  0.11589700  0.45183300  1
  C  1085  1  0.38499500  0.12574000  0.44489400  1
  C  1086  1  0.38428700  0.12550500  0.43167400  1
  C  1087  1  0.40536100  0.11831900  0.46621500  1
  C  1088  1  0.41699300  0.14293800  0.46769500  1
  C  1089  1  0.40422900  0.16483700  0.46747100  1
  C  1090  1  0.41578300  0.18720300  0.46769100  1
  C  1091  1  0.44083700  0.18885100  0.46801300  1
  C  1092  1  0.45357800  0.16723600  0.46824900  1
  C  1093  1  0.44205100  0.14513100  0.46784900  1
  C  1094  1  0.41840100  0.09796100  0.47292600  1
  C  1095  1  0.38118800  0.11636300  0.47263400  1
  C  1096  1  0.37669600  0.12802100  0.48422100  1
  C  1097  1  0.35443100  0.12716900  0.49014200  1
  C  1098  1  0.33576500  0.11377100  0.48501400  1
  C  1099  1  0.34049400  0.09990300  0.47425500  1
  C  1100  1  0.36295100  0.10082200  0.46837500  1
  C  1101  1  0.41676400  0.07403800  0.46873100  1
  C  1102  1  0.42863000  0.05527400  0.47488000  1
  C  1103  1  0.44240700  0.05939700  0.48573400  1
  C  1104  1  0.44195800  0.08254300  0.49087900  1
  C  1105  1  0.42988300  0.10116800  0.48473500  1
  C  1126  1  0.10398000  0.89086300  0.92445600  1
  C  1127  1  0.08460300  0.90055400  0.93118100  1
  C  1128  1  0.08417700  0.90072600  0.94449800  1
  C  1129  1  0.10310200  0.89136800  0.95182700  1
  C  1130  1  0.12229800  0.88155600  0.94488500  1
  C  1131  1  0.12304900  0.88184100  0.93167100  1
  C  1132  1  0.10174400  0.88892300  0.96621200  1
  C  1133  1  0.09025200  0.86432800  0.96770200  1
  C  1134  1  0.10306200  0.84244800  0.96748500  1
  C  1135  1  0.09151900  0.82009200  0.96770200  1
  C  1136  1  0.06646800  0.81846200  0.96800400  1
  C  1137  1  0.05372300  0.84007400  0.96824000  1
  C  1138  1  0.06522400  0.86217500  0.96785300  1
  C  1139  1  0.08892500  0.90936700  0.97294700  1
  C  1140  1  0.12586100  0.89038200  0.97251300  1
  C  1141  1  0.13060900  0.87863200  0.98404900  1
  C  1142  1  0.15335000  0.87874100  0.98941600  1
  C  1143  1  0.17195200  0.89124500  0.98360500  1
  C  1144  1  0.16662700  0.90600200  0.97330500  1
  C  1145  1  0.14382500  0.90589100  0.96802300  1
  C  1146  1  0.09055400  0.93328000  0.96874000  1
  C  1147  1  0.07869300  0.95204800  0.97488000  1
  C  1148  1  0.06490800  0.94792200  0.98572800  1
  C  1149  1  0.06536200  0.92478300  0.99088700  1
  C  1150  1  0.07744600  0.90616000  0.98474700  1
  C  1171  1  0.64081700  0.65335300  0.17446600  1
  C  1172  1  0.65056800  0.67271000  0.18118000  1
  C  1173  1  0.65072300  0.67313900  0.19449500  1
  C  1174  1  0.64137000  0.65421300  0.20182800  1
  C  1175  1  0.63154900  0.63501800  0.19488400  1
  C  1176  1  0.63184700  0.63425300  0.18167100  1
  C  1177  1  0.63891900  0.65558200  0.21620500  1
  C  1178  1  0.61432300  0.66706300  0.21770500  1
  C  1179  1  0.59244100  0.65425700  0.21747500  1
  C  1180  1  0.57008700  0.66579600  0.21767900  1
  C  1181  1  0.56846200  0.69084400  0.21798500  1
  C  1182  1  0.59006700  0.70359800  0.21824000  1
  C  1183  1  0.61216800  0.69209200  0.21785300  1
  C  1184  1  0.65935300  0.66840700  0.22294600  1
  C  1185  1  0.64037300  0.63146900  0.22250600  1
  C  1186  1  0.62861100  0.62672400  0.23404100  1
  C  1187  1  0.62871100  0.60399200  0.23942300  1
  C  1188  1  0.64138600  0.58546100  0.23367500  1
  C  1189  1  0.65603500  0.59073900  0.22334500  1
  C  1190  1  0.65589500  0.61350800  0.21803000  1
  C  1191  1  0.68326900  0.66676200  0.21873800  1
  C  1192  1  0.70203700  0.67862800  0.22488000  1
  C  1193  1  0.69791900  0.69240500  0.23573300  1
  C  1194  1  0.67478000  0.69195500  0.24088700  1
  C  1195  1  0.65615500  0.67987500  0.23475200  1
  C  1216  1  0.86646900  0.35396100  0.67446200  1
  C  1217  1  0.85676100  0.33459400  0.68118200  1
  C  1218  1  0.85658800  0.33417700  0.69450000  1
  C  1219  1  0.86592300  0.35312700  0.70183900  1
  C  1220  1  0.87576000  0.37229800  0.69489500  1
  C  1221  1  0.87547000  0.37304800  0.68167500  1
  C  1222  1  0.86837200  0.35185900  0.71622700  1
  C  1223  1  0.89297400  0.34028200  0.71769400  1
  C  1224  1  0.91485600  0.35307500  0.71747000  1
  C  1225  1  0.93722000  0.34153000  0.71769300  1
  C  1226  1  0.93885200  0.31647800  0.71799000  1
  C  1227  1  0.91724400  0.30372600  0.71822700  1
  C  1228  1  0.89514000  0.31523500  0.71785700  1
  C  1229  1  0.84796500  0.33889000  0.72293500  1
  C  1230  1  0.86654200  0.37598100  0.72266800  1
  C  1231  1  0.87814300  0.38067900  0.73425800  1
  C  1232  1  0.87716200  0.40314700  0.74003500  1
  C  1233  1  0.86338500  0.42165300  0.73494100  1
  C  1234  1  0.85003300  0.41662100  0.72403900  1
  C  1235  1  0.85097500  0.39405800  0.71830600  1
  C  1236  1  0.82404000  0.34055100  0.71873700  1
  C  1237  1  0.80527400  0.32868200  0.72488200  1
  C  1238  1  0.80939400  0.31491500  0.73574000  1
  C  1239  1  0.83254000  0.31535100  0.74088500  1
  C  1240  1  0.85116500  0.32743200  0.73474600  1
  C  1261  1  0.10403900  0.11654600  0.58274200  1
  C  1262  1  0.08476000  0.10684200  0.57593700  1
  C  1263  1  0.08452300  0.10668900  0.56260100  1
  C  1264  1  0.10361500  0.11587000  0.55528400  1
  C  1265  1  0.12269700  0.12561700  0.56232000  1
  C  1266  1  0.12318400  0.12549700  0.57555300  1
  C  1267  1  0.10262800  0.11836600  0.54086000  1
  C  1268  1  0.09080100  0.14287100  0.53935800  1
  C  1269  1  0.10340600  0.16483800  0.53961600  1
  C  1270  1  0.09168800  0.18714200  0.53957400  1
  C  1271  1  0.06661400  0.18870800  0.53934500  1
  C  1272  1  0.05401800  0.16701600  0.53909800  1
  C  1273  1  0.06571100  0.14496900  0.53938800  1
  C  1274  1  0.08952900  0.09796200  0.53421100  1
  C  1275  1  0.12690700  0.11650200  0.53450800  1
  C  1276  1  0.13188800  0.12791100  0.52288200  1
  C  1277  1  0.15406000  0.12571200  0.51691700  1
  C  1278  1  0.17214700  0.11147900  0.52218500  1
  C  1279  1  0.16685600  0.09834900  0.53310200  1
  C  1280  1  0.14459000  0.10056400  0.53897700  1
  C  1281  1  0.09086600  0.07407500  0.53850300  1
  C  1282  1  0.07874200  0.05536000  0.53244800  1
  C  1283  1  0.06491400  0.05947400  0.52161100  1
  C  1284  1  0.06542000  0.08260500  0.51644600  1
  C  1285  1  0.07779200  0.10117000  0.52247900  1
  C  1306  1  0.40329800  0.89078500  0.08274400  1
  C  1307  1  0.42257800  0.90046800  0.07593400  1
  C  1308  1  0.42280400  0.90063200  0.06260000  1
  C  1309  1  0.40370800  0.89145900  0.05528400  1
  C  1310  1  0.38463600  0.88170100  0.06232400  1
  C  1311  1  0.38414400  0.88183600  0.07555900  1
  C  1312  1  0.40469400  0.88894800  0.04086100  1
  C  1313  1  0.41650900  0.86444200  0.03935000  1
  C  1314  1  0.40390900  0.84247500  0.03962400  1
  C  1315  1  0.41562700  0.82017200  0.03959000  1
  C  1316  1  0.44069600  0.81861000  0.03934900  1
  C  1317  1  0.45330100  0.84029800  0.03908900  1
  C  1318  1  0.44160000  0.86234200  0.03939400  1
  C  1319  1  0.41779800  0.90934600  0.03421000  1
  C  1320  1  0.38041900  0.89080100  0.03451200  1
  C  1321  1  0.37544100  0.87940600  0.02288200  1
  C  1322  1  0.35328500  0.88162200  0.01692100  1
  C  1323  1  0.33522600  0.89586800  0.02220500  1
  C  1324  1  0.34048500  0.90898400  0.03311900  1
  C  1325  1  0.36274600  0.90674900  0.03898400  1
  C  1326  1  0.41644700  0.93323500  0.03849700  1
  C  1327  1  0.42857800  0.95195100  0.03244700  1
  C  1328  1  0.44239800  0.94784400  0.02160600  1
  C  1329  1  0.44190100  0.92471000  0.01644300  1
  C  1330  1  0.42953200  0.90614400  0.02247600  1
  C  1351  1  0.86651400  0.65328400  0.83274100  1
  C  1352  1  0.85684400  0.67257100  0.82592900  1
  C  1353  1  0.85668600  0.67280800  0.81259600  1
  C  1354  1  0.86587100  0.65371600  0.80528200  1
  C  1355  1  0.87561600  0.63463400  0.81231900  1
  C  1356  1  0.87546100  0.63412800  0.82555300  1
  C  1357  1  0.86837200  0.65469200  0.79085700  1
  C  1358  1  0.89287900  0.66651600  0.78935600  1
  C  1359  1  0.91484500  0.65391000  0.78962100  1
  C  1360  1  0.93715100  0.66562500  0.78958000  1
  C  1361  1  0.93872100  0.69069600  0.78935100  1
  C  1362  1  0.91702900  0.70329700  0.78911100  1
  C  1363  1  0.89497800  0.69160800  0.78938300  1
  C  1364  1  0.84796700  0.66778900  0.78420700  1
  C  1365  1  0.86650700  0.63041400  0.78450900  1
  C  1366  1  0.87791000  0.62543600  0.77288100  1
  C  1367  1  0.87571200  0.60326700  0.76691900  1
  C  1368  1  0.86148100  0.58518700  0.77219600  1
  C  1369  1  0.84835000  0.59046900  0.78310900  1
  C  1370  1  0.85057100  0.61273400  0.78898100  1
  C  1371  1  0.82408100  0.66645400  0.78850000  1
  C  1372  1  0.80536700  0.67858700  0.78245000  1
  C  1373  1  0.80947200  0.69240000  0.77160600  1
  C  1374  1  0.83260600  0.69190300  0.76644400  1
  C  1375  1  0.85117400  0.67953400  0.77247700  1
  C  1396  1  0.64077200  0.35404300  0.33274100  1
  C  1397  1  0.65047500  0.33476300  0.32593700  1
  C  1398  1  0.65063400  0.33452600  0.31260300  1
  C  1399  1  0.64144500  0.35361400  0.30528500  1
  C  1400  1  0.63170600  0.37270000  0.31232100  1
  C  1401  1  0.63183400  0.37319700  0.32555300  1
  C  1402  1  0.63895000  0.35262500  0.29086200  1
  C  1403  1  0.61444400  0.34080000  0.28936000  1
  C  1404  1  0.59247800  0.35340800  0.28961800  1
  C  1405  1  0.57017800  0.34168800  0.28959100  1
  C  1406  1  0.56859400  0.31661700  0.28932400  1
  C  1407  1  0.59029300  0.30402300  0.28910400  1
  C  1408  1  0.61234200  0.31571100  0.28939200  1
  C  1409  1  0.65935300  0.33952700  0.28421300  1
  C  1410  1  0.64080100  0.37689900  0.28451200  1
  C  1411  1  0.62940500  0.38187700  0.27288300  1
  C  1412  1  0.63161900  0.40403100  0.26692200  1
  C  1413  1  0.64586800  0.42209200  0.27220400  1
  C  1414  1  0.65899000  0.41683300  0.28311600  1
  C  1415  1  0.65675100  0.39457000  0.28898300  1
  C  1416  1  0.68324100  0.34087100  0.28850100  1
  C  1417  1  0.70195200  0.32873000  0.28245300  1
  C  1418  1  0.69784200  0.31491300  0.27161100  1
  C  1419  1  0.67471200  0.31541900  0.26644600  1
  C  1420  1  0.65614400  0.32778600  0.27248100  1
  C  1441  1  0.10578300  0.35859000  0.13659600  1
  C  1442  1  0.12796900  0.36732900  0.14110500  1
  C  1443  1  0.14182600  0.37957700  0.13203700  1
  C  1445  1  0.11341100  0.37360800  0.11570400  1
  C  1448  1  0.08724000  0.34694400  0.14426100  1
  C  1452  1  0.10704000  0.37360600  0.10303200  1
  C  1454  1  0.13462200  0.36918700  0.15380200  1
  C  1456  1  0.40153300  0.64872800  0.63659600  1
  C  1457  1  0.37934100  0.63999600  0.64109900  1
  C  1458  1  0.36549600  0.62773900  0.63203000  1
  C  1460  1  0.39392900  0.63369800  0.61570300  1
  C  1463  1  0.42007100  0.66037400  0.64426500  1
  C  1467  1  0.40029200  0.63372800  0.60302600  1
  C  1469  1  0.37269200  0.63813500  0.65379700  1
  C  1471  1  0.89873500  0.85580100  0.38659800  1
  C  1472  1  0.88997500  0.87798400  0.39110300  1
  C  1473  1  0.87773900  0.89183600  0.38203000  1
  C  1475  1  0.88374700  0.86343300  0.36570500  1
  C  1478  1  0.91037400  0.83725500  0.39426500  1
  C  1482  1  0.88371200  0.85700500  0.35304300  1
  C  1484  1  0.88813300  0.88461800  0.40379800  1
  C  1486  1  0.60861500  0.15152600  0.88660000  1
  C  1487  1  0.61736600  0.12933100  0.89109500  1
  C  1488  1  0.62959300  0.11549500  0.88201100  1
  C  1490  1  0.62359700  0.14393400  0.86570000  1
  C  1493  1  0.59694500  0.17004600  0.89427100  1
  C  1497  1  0.62357400  0.15033900  0.85302700  1
  C  1499  1  0.61917600  0.12264300  0.90378700  1
  C  1501  1  0.40152000  0.35860500  0.87073800  1
  C  1502  1  0.37929600  0.36727600  0.86624700  1
  C  1503  1  0.36548500  0.37957900  0.87531200  1
  C  1505  1  0.39392100  0.37361900  0.89163700  1
  C  1508  1  0.42004600  0.34695300  0.86305900  1
  C  1512  1  0.40034700  0.37360600  0.90431300  1
  C  1514  1  0.37266700  0.36918900  0.85356500  1
  C  1516  1  0.10579400  0.64870500  0.37073500  1
  C  1517  1  0.12801600  0.64002300  0.36624800  1
  C  1518  1  0.14182500  0.62772600  0.37531700  1
  C  1520  1  0.11339700  0.63372200  0.39164000  1
  C  1523  1  0.08727000  0.66036000  0.36305600  1
  C  1527  1  0.10696900  0.63371000  0.40431400  1
  C  1529  1  0.13466600  0.63811700  0.35356900  1
  C  1531  1  0.60861900  0.85578200  0.62073900  1
  C  1532  1  0.61729500  0.87800800  0.61625500  1
  C  1533  1  0.62959300  0.89181700  0.62532200  1
  C  1535  1  0.62360800  0.86338300  0.64164500  1
  C  1538  1  0.59695800  0.83726500  0.61305800  1
  C  1542  1  0.62360600  0.85699700  0.65433000  1
  C  1544  1  0.61919800  0.88466600  0.60357900  1
  C  1546  1  0.89871900  0.15153400  0.12073800  1
  C  1547  1  0.88997100  0.12933900  0.11625500  1
  C  1548  1  0.87772800  0.11549100  0.12532200  1
  C  1550  1  0.88367300  0.14395400  0.14164000  1
  C  1553  1  0.91037100  0.17005500  0.11305700  1
  C  1557  1  0.88372800  0.15035100  0.15432100  1
  C  1559  1  0.88811100  0.12265300  0.10358000  1
  C  1561  1  0.90153600  0.64872800  0.87072300  1
  C  1562  1  0.87935000  0.63998900  0.86621500  1
  C  1563  1  0.86549200  0.62774100  0.87528200  1
  C  1565  1  0.89390800  0.63371000  0.89161700  1
  C  1568  1  0.92007800  0.66037300  0.86305800  1
  C  1572  1  0.90027800  0.63371000  0.90429100  1
  C  1574  1  0.87269700  0.63813100  0.85351700  1
  C  1576  1  0.60578600  0.35859000  0.37072400  1
  C  1577  1  0.62797700  0.36732200  0.36622000  1
  C  1578  1  0.64182000  0.37957900  0.37528900  1
  C  1580  1  0.61338900  0.37362200  0.39161800  1
  C  1583  1  0.58724900  0.34694400  0.36305400  1
  C  1587  1  0.60702600  0.37359200  0.40429700  1
  C  1589  1  0.63462700  0.36918400  0.35352200  1
  C  1591  1  0.10859800  0.15152300  0.62071900  1
  C  1592  1  0.11735500  0.12933400  0.61621900  1
  C  1593  1  0.12959500  0.11549800  0.62529800  1
  C  1595  1  0.12359700  0.14392700  0.64161600  1
  C  1598  1  0.09694600  0.17005900  0.61305100  1
  C  1602  1  0.12357900  0.15034900  0.65428400  1
  C  1604  1  0.11918900  0.12268800  0.60352000  1
  C  1606  1  0.39870800  0.85579400  0.12071800  1
  C  1607  1  0.38995700  0.87798600  0.11621700  1
  C  1608  1  0.37773200  0.89182900  0.12530000  1
  C  1610  1  0.38373000  0.86340300  0.14161900  1
  C  1613  1  0.41037500  0.83726900  0.11304900  1
  C  1617  1  0.38372600  0.85700100  0.15429200  1
  C  1619  1  0.38814500  0.88466600  0.10352100  1
  C  1621  1  0.60579800  0.64871300  0.13658000  1
  C  1622  1  0.62802200  0.64004200  0.14107000  1
  C  1623  1  0.64183300  0.62773900  0.13200500  1
  C  1625  1  0.61339800  0.63369600  0.11567900  1
  C  1628  1  0.58727200  0.66036400  0.14426000  1
  C  1632  1  0.60697100  0.63371000  0.10300100  1
  C  1634  1  0.63465300  0.63812700  0.15375100  1
  C  1636  1  0.90153100  0.35861500  0.63658200  1
  C  1637  1  0.87930900  0.36729400  0.64107200  1
  C  1638  1  0.86549800  0.37959300  0.63200400  1
  C  1640  1  0.89392200  0.37360100  0.61567600  1
  C  1643  1  0.92005600  0.34696000  0.64426000  1
  C  1647  1  0.90034400  0.37361200  0.60299900  1
  C  1649  1  0.87266800  0.36920700  0.65375100  1
  C  1651  1  0.39869900  0.15153500  0.38658100  1
  C  1652  1  0.39002300  0.12931000  0.39106800  1
  C  1653  1  0.37772500  0.11550200  0.38199900  1
  C  1655  1  0.38371000  0.14393400  0.36567500  1
  C  1658  1  0.41036000  0.17005300  0.39426100  1
  C  1662  1  0.38371200  0.15032100  0.35298900  1
  C  1664  1  0.38811900  0.12265500  0.40374600  1
  C  1666  1  0.10859900  0.85578500  0.88658100  1
  C  1667  1  0.11734600  0.87797900  0.89106800  1
  C  1668  1  0.12958900  0.89182700  0.88199800  1
  C  1670  1  0.12364500  0.86336500  0.86568000  1
  C  1673  1  0.09694800  0.83726300  0.89426100  1
  C  1677  1  0.12359100  0.85696700  0.85299900  1
  C  1679  1  0.11920500  0.88466200  0.90374700  1
  C  1681  1  0.99840300  0.23946200  0.05099700  1
  C  1682  1  0.98592700  0.23633300  0.03944500  1
  C  1683  1  0.99280400  0.25189900  0.02961100  1
  C  1685  1  0.02127200  0.27188700  0.04242500  1
  C  1688  1  0.99615000  0.22433400  0.06230100  1
  C  1692  1  0.03657400  0.29080100  0.04480200  1
  C  1694  1  0.97235300  0.21630900  0.03636200  1
  C  1696  1  0.50889700  0.76786300  0.55099800  1
  C  1697  1  0.52136600  0.77099400  0.53944300  1
  C  1698  1  0.51448700  0.75541900  0.52961300  1
  C  1700  1  0.48602200  0.73544000  0.54243100  1
  C  1703  1  0.51116300  0.78298800  0.56230200  1
  C  1707  1  0.47073500  0.71651000  0.54481400  1
  C  1709  1  0.53495800  0.79100900  0.53635200  1
  C  1711  1  0.01786800  0.74840300  0.30099000  1
  C  1712  1  0.02100900  0.73594900  0.28942800  1
  C  1713  1  0.00541700  0.74282700  0.27960800  1
  C  1715  1  0.98542200  0.77125600  0.29243500  1
  C  1718  1  0.03298700  0.74614700  0.31229800  1
  C  1722  1  0.96654900  0.78659900  0.29482600  1
  C  1724  1  0.04103400  0.72235700  0.28635700  1
  C  1726  1  0.48945100  0.25892700  0.80098400  1
  C  1727  1  0.48632100  0.27138900  0.78942300  1
  C  1728  1  0.50192600  0.26451000  0.77960700  1
  C  1730  1  0.52190900  0.23608200  0.79243500  1
  C  1733  1  0.47433000  0.26119600  0.81229000  1
  C  1737  1  0.54077300  0.22072300  0.79482000  1
  C  1739  1  0.46632100  0.28501700  0.78634300  1
  C  1741  1  0.50891800  0.23945700  0.95633600  1
  C  1742  1  0.52148000  0.23633100  0.96787200  1
  C  1743  1  0.51452100  0.25188600  0.97770100  1
  C  1745  1  0.48603900  0.27191600  0.96489100  1
  C  1748  1  0.51118200  0.22433400  0.94502600  1
  C  1752  1  0.47071600  0.29085800  0.96251400  1
  C  1754  1  0.53505600  0.21626100  0.97095600  1
  C  1756  1  0.99839800  0.76786200  0.45633600  1
  C  1757  1  0.98583300  0.77098000  0.46786800  1
  C  1758  1  0.99280600  0.75543000  0.47770000  1
  C  1760  1  0.02127300  0.73539700  0.46488800  1
  C  1763  1  0.99613800  0.78298400  0.44503200  1
  C  1767  1  0.03662500  0.71648500  0.46250100  1
  C  1769  1  0.97227500  0.79106400  0.47094800  1
  C  1771  1  0.48945100  0.74841200  0.70633600  1
  C  1772  1  0.48633000  0.73585100  0.71786900  1
  C  1773  1  0.50189000  0.74282200  0.72769700  1
  C  1775  1  0.52192100  0.77128900  0.71488500  1
  C  1778  1  0.47433000  0.74614000  0.69503000  1
  C  1782  1  0.54086500  0.78661700  0.71250700  1
  C  1784  1  0.46625900  0.72226800  0.72095800  1
  C  1786  1  0.01786300  0.25893300  0.20633300  1
  C  1787  1  0.02101800  0.27141400  0.21788500  1
  C  1788  1  0.00541700  0.26451000  0.22770400  1
  C  1790  1  0.98542300  0.23600600  0.21489100  1
  C  1793  1  0.03298900  0.26119500  0.19503000  1
  C  1797  1  0.96648300  0.22069100  0.21249000  1
  C  1799  1  0.04105400  0.28506700  0.22096700  1
  C  1801  1  0.00891200  0.76785800  0.95631700  1
  C  1802  1  0.02138900  0.77098900  0.96787200  1
  C  1803  1  0.01451100  0.75542100  0.97771000  1
  C  1805  1  0.98604100  0.73542900  0.96489100  1
  C  1808  1  0.01116600  0.78298400  0.94501700  1
  C  1812  1  0.97074000  0.71651000  0.96251400  1
  C  1814  1  0.03497300  0.79101400  0.97095600  1
  C  1816  1  0.49841200  0.23945800  0.45631900  1
  C  1817  1  0.48594200  0.23631900  0.46787300  1
  C  1818  1  0.49281300  0.25189200  0.47770500  1
  C  1820  1  0.52127700  0.27188900  0.46489200  1
  C  1823  1  0.49615700  0.22433400  0.44501500  1
  C  1827  1  0.53657600  0.29081200  0.46251500  1
  C  1829  1  0.47235100  0.21629700  0.47096100  1
  C  1831  1  0.98944800  0.25890800  0.70633000  1
  C  1832  1  0.98631300  0.27136200  0.71789200  1
  C  1833  1  0.00190600  0.26447500  0.72771100  1
  C  1835  1  0.02188700  0.23603900  0.71488200  1
  C  1838  1  0.97433000  0.26117200  0.69502300  1
  C  1842  1  0.04077300  0.22070900  0.71248400  1
  C  1844  1  0.96629300  0.28496200  0.72096400  1
  C  1846  1  0.51786700  0.74839100  0.20633500  1
  C  1847  1  0.52099600  0.73592900  0.21789600  1
  C  1848  1  0.50539300  0.74280600  0.22771200  1
  C  1850  1  0.48540900  0.77123600  0.21488300  1
  C  1853  1  0.53298800  0.74612200  0.19502800  1
  C  1857  1  0.46654600  0.78659500  0.21249800  1
  C  1859  1  0.54099300  0.72230100  0.22097600  1
  C  1861  1  0.49839800  0.76786200  0.05098200  1
  C  1862  1  0.48583500  0.77099000  0.03945100  1
  C  1863  1  0.49279500  0.75543300  0.02962000  1
  C  1865  1  0.52128100  0.73540000  0.04242200  1
  C  1868  1  0.49613600  0.78298200  0.06228800  1
  C  1872  1  0.53660600  0.71645300  0.04480300  1
  C  1874  1  0.47225500  0.79106400  0.03636600  1
  C  1876  1  0.00892100  0.23945700  0.55098200  1
  C  1877  1  0.02148900  0.23633700  0.53945200  1
  C  1878  1  0.01451400  0.25188600  0.52962000  1
  C  1880  1  0.98604300  0.27192100  0.54243000  1
  C  1883  1  0.01118000  0.22433400  0.56228700  1
  C  1887  1  0.97069100  0.29083800  0.54481800  1
  C  1889  1  0.03504900  0.21624700  0.53637200  1
  C  1891  1  0.51786700  0.25890800  0.30098300  1
  C  1892  1  0.52098900  0.27146700  0.28944900  1
  C  1893  1  0.50542800  0.26449800  0.27962200  1
  C  1895  1  0.48539700  0.23603100  0.29243400  1
  C  1898  1  0.53298800  0.26117900  0.31228800  1
  C  1902  1  0.46645300  0.22070100  0.29481200  1
  C  1904  1  0.54105900  0.28505100  0.28636100  1
  C  1906  1  0.98945500  0.74838600  0.80098600  1
  C  1907  1  0.98630100  0.73590400  0.78943400  1
  C  1908  1  0.00190200  0.74280800  0.77961500  1
  C  1910  1  0.02189500  0.77131300  0.79242800  1
  C  1913  1  0.97433000  0.74612300  0.81228900  1
  C  1917  1  0.04083600  0.78662700  0.79482800  1
  C  1919  1  0.96626400  0.72225200  0.78635100  1
  C  1921  1  0.02270900  0.50896300  0.01170500  1
  C  1922  1  0.01818100  0.48488800  0.00829100  1
  C  1923  1  0.99831800  0.48140000  0.00024400  1
  C  1925  1  0.98956300  0.52265800  0.99931100  1
  C  1928  1  0.04104500  0.51798600  0.02046500  1
  C  1932  1  0.97681500  0.54221100  0.99507500  1
  C  1934  1  0.03064000  0.46482600  0.01253100  1
  C  1936  1  0.48460500  0.49836300  0.51170300  1
  C  1937  1  0.48913400  0.52243200  0.50827900  1
  C  1938  1  0.50900700  0.52591000  0.50023900  1
  C  1940  1  0.51776500  0.48465100  0.49932400  1
  C  1943  1  0.46626800  0.48934300  0.52046300  1
  C  1947  1  0.53052800  0.46509200  0.49511200  1
  C  1949  1  0.47666900  0.54250200  0.51250400  1
  C  1951  1  0.74836600  0.77272400  0.26170500  1
  C  1952  1  0.77243700  0.76818900  0.25828600  1
  C  1953  1  0.77592200  0.74832200  0.25024300  1
  C  1955  1  0.73467100  0.73958100  0.24931900  1
  C  1958  1  0.73933900  0.79105400  0.27046600  1
  C  1962  1  0.71512200  0.72682400  0.24511900  1
  C  1964  1  0.79250200  0.78066000  0.26250800  1
  C  1966  1  0.75895000  0.23460500  0.76171300  1
  C  1967  1  0.73487700  0.23913300  0.75829400  1
  C  1968  1  0.73138900  0.25899100  0.75024500  1
  C  1970  1  0.77264200  0.26772300  0.74930800  1
  C  1973  1  0.76797700  0.21626500  0.77046800  1
  C  1977  1  0.79218900  0.28045700  0.74508400  1
  C  1979  1  0.71482300  0.22668900  0.76255000  1
  C  1981  1  0.48460300  0.50895000  0.99561300  1
  C  1982  1  0.48910400  0.48487700  0.99904600  1
  C  1983  1  0.50898900  0.48140100  0.00708100  1
  C  1985  1  0.51776400  0.52266500  0.00800500  1
  C  1988  1  0.46626300  0.51796800  0.98686000  1
  C  1992  1  0.53055000  0.54223700  0.01220100  1
  C  1994  1  0.47667100  0.46480100  0.99478300  1
  C  1996  1  0.02271900  0.49837300  0.49561300  1
  C  1997  1  0.01821400  0.52244400  0.49904200  1
  C  1998  1  0.99833200  0.52592000  0.50707900  1
  C  2000  1  0.98956300  0.48465500  0.50800500  1
  C  2003  1  0.04105800  0.48935500  0.48685300  1
  C  2007  1  0.97676500  0.46508300  0.51219000  1
  C  2009  1  0.03063300  0.54251700  0.49476500  1
  C  2011  1  0.75895000  0.77270800  0.74560700  1
  C  2012  1  0.73487500  0.76820300  0.74903300  1
  C  2013  1  0.73139400  0.74832300  0.75707100  1
  C  2015  1  0.77265300  0.73958500  0.75801300  1
  C  2018  1  0.76797400  0.79105000  0.73685100  1
  C  2022  1  0.79220900  0.72685900  0.76225100  1
  C  2024  1  0.71480700  0.78063500  0.74476600  1
  C  2026  1  0.74837000  0.23460300  0.24561300  1
  C  2027  1  0.77244300  0.23912700  0.24903400  1
  C  2028  1  0.77591500  0.25900000  0.25707700  1
  C  2030  1  0.73465800  0.26775000  0.25800000  1
  C  2033  1  0.73934600  0.21626800  0.23685400  1
  C  2037  1  0.71509900  0.28046200  0.26224200  1
  C  2039  1  0.79252000  0.22667300  0.24479600  1
  C  2041  1  0.25895700  0.23460300  0.74561200  1
  C  2042  1  0.23488400  0.23913400  0.74903200  1
  C  2043  1  0.23139800  0.25900200  0.75707400  1
  C  2045  1  0.27264900  0.26774100  0.75800500  1
  C  2048  1  0.26798600  0.21627000  0.73685300  1
  C  2052  1  0.29219500  0.28046600  0.76223900  1
  C  2054  1  0.21482100  0.22666200  0.74480900  1
  C  2056  1  0.24836600  0.77272200  0.24561200  1
  C  2057  1  0.27244100  0.76818900  0.24902500  1
  C  2058  1  0.27592900  0.74832700  0.25707300  1
  C  2060  1  0.23467600  0.73959000  0.25800700  1
  C  2063  1  0.23934100  0.79105200  0.23685000  1
  C  2067  1  0.21512900  0.72686100  0.26223700  1
  C  2069  1  0.29249500  0.78063000  0.24476700  1
  C  2071  1  0.24836300  0.23460900  0.26170800  1
  C  2072  1  0.27244100  0.23913400  0.25829600  1
  C  2073  1  0.27592000  0.25900000  0.25025000  1
  C  2075  1  0.23466400  0.26774200  0.24930800  1
  C  2078  1  0.23933700  0.21627200  0.27046600  1
  C  2082  1  0.21510800  0.28046100  0.24506500  1
  C  2084  1  0.29251300  0.22666500  0.26252900  1
  C  2086  1  0.25893800  0.77272600  0.76170900  1
  C  2087  1  0.23486500  0.76820300  0.75828800  1
  C  2088  1  0.23139100  0.74833600  0.75024100  1
  C  2090  1  0.27264900  0.73958100  0.74932000  1
  C  2093  1  0.26796100  0.79106400  0.77046700  1
  C  2097  1  0.29221400  0.72680900  0.74513300  1
  C  2099  1  0.21479400  0.78064000  0.76254900  1
  C  2101  1  0.52271500  0.00895300  0.51171000  1
  C  2102  1  0.51818600  0.98488800  0.50827900  1
  C  2103  1  0.49832000  0.98139400  0.50023800  1
  C  2105  1  0.48958600  0.02264400  0.49931600  1
  C  2108  1  0.54105400  0.01797700  0.52046900  1
  C  2112  1  0.47683100  0.04219500  0.49511900  1
  C  2114  1  0.53058500  0.96484200  0.51255400  1
  C  2116  1  0.98460300  0.99836600  0.01170700  1
  C  2117  1  0.98913300  0.02242800  0.00826800  1
  C  2118  1  0.00900700  0.02591500  0.00023500  1
  C  2120  1  0.01773500  0.98466500  0.99932000  1
  C  2123  1  0.96626300  0.98934400  0.02046600  1
  C  2127  1  0.03049800  0.96511300  0.99513200  1
  C  2129  1  0.97672800  0.04248100  0.01252900  1
  C  2131  1  0.98461900  0.00895600  0.49561000  1
  C  2132  1  0.98913800  0.98489000  0.49904600  1
  C  2133  1  0.00901500  0.98141000  0.50708200  1
  C  2135  1  0.01774500  0.02266700  0.50800700  1
  C  2138  1  0.96627300  0.01797700  0.48685400  1
  C  2142  1  0.03046600  0.04222400  0.51224000  1
  C  2144  1  0.97672000  0.96482300  0.49479200  1
  C  2146  1  0.52270800  0.99835900  0.99561300  1
  C  2147  1  0.51816800  0.02242900  0.99903700  1
  C  2148  1  0.49830600  0.02591000  0.00708100  1
  C  2150  1  0.48957000  0.98465500  0.00800700  1
  C  2153  1  0.54104300  0.98933700  0.98685000  1
  C  2157  1  0.47685800  0.96509900  0.01225100  1
  C  2159  1  0.53059900  0.04249600  0.99479200  1
  C  2161  1  0.24418900  0.37348500  0.01195900  1
  C  2162  1  0.23047400  0.39312700  0.00744900  1
  C  2163  1  0.24256200  0.40806400  0.99880100  1
  C  2165  1  0.27818600  0.38539600  0.99973500  1
  C  2168  1  0.23754200  0.35446100  0.02085300  1
  C  2172  1  0.30121600  0.38136800  0.99571700  1
  C  2174  1  0.20676100  0.39893800  0.01023900  1
  C  2176  1  0.26303800  0.63377800  0.51197400  1
  C  2177  1  0.27662900  0.61385700  0.50757900  1
  C  2178  1  0.26448700  0.59925000  0.49877300  1
  C  2180  1  0.22901700  0.62204000  0.49973400  1
  C  2183  1  0.26969100  0.65281800  0.52090500  1
  C  2187  1  0.20602000  0.62600400  0.49571300  1
  C  2189  1  0.30003400  0.60708800  0.51078000  1
  C  2191  1  0.88510200  0.99579600  0.26199500  1
  C  2192  1  0.86582700  0.98169500  0.25776700  1
  C  2193  1  0.85014200  0.99332400  0.24903100  1
  C  2195  1  0.87182600  0.02872100  0.24952000  1
  C  2198  1  0.90359900  0.98851000  0.27097100  1
  C  2202  1  0.87579900  0.05148400  0.24556100  1
  C  2204  1  0.85956000  0.95851200  0.26150700  1
  C  2206  1  0.62355100  0.01302000  0.76198000  1
  C  2207  1  0.64363900  0.02649400  0.75770300  1
  C  2208  1  0.65811600  0.01448200  0.74880200  1
  C  2210  1  0.63525500  0.97903600  0.74971000  1
  C  2213  1  0.60457300  0.01967100  0.77095100  1
  C  2217  1  0.63129700  0.95603400  0.74569300  1
  C  2219  1  0.65117500  0.04930600  0.76149700  1
  C  2221  1  0.76294000  0.63377400  0.99533000  1
  C  2222  1  0.77652200  0.61383900  0.99973500  1
  C  2223  1  0.76437500  0.59923200  0.00853400  1
  C  2225  1  0.72898100  0.62204900  0.00759400  1
  C  2228  1  0.76975700  0.65277100  0.98639700  1
  C  2232  1  0.70601700  0.62603700  0.01161400  1
  C  2234  1  0.79998100  0.60703100  0.99658500  1
  C  2236  1  0.74435300  0.37348500  0.49536400  1
  C  2237  1  0.73077500  0.39349200  0.49976500  1
  C  2238  1  0.74299800  0.40797000  0.50858900  1
  C  2240  1  0.77840500  0.38519800  0.50757800  1
  C  2243  1  0.73761100  0.35449300  0.48639400  1
  C  2247  1  0.80136200  0.38128100  0.51161600  1
  C  2249  1  0.70749500  0.40081700  0.49646300  1
  C  2251  1  0.12293200  0.01252400  0.74529900  1
  C  2252  1  0.14281300  0.02614200  0.74982400  1
  C  2253  1  0.15727000  0.01365100  0.75861000  1
  C  2255  1  0.13493000  0.97858900  0.75754400  1
  C  2258  1  0.10428300  0.01978200  0.73628400  1
  C  2262  1  0.13120600  0.95576700  0.76162200  1
  C  2264  1  0.15154400  0.04891700  0.74709600  1
  C  2266  1  0.38506600  0.99575700  0.24542100  1
  C  2267  1  0.36558100  0.98173400  0.24965800  1
  C  2268  1  0.34993500  0.99331500  0.25832900  1
  C  2270  1  0.37178200  0.02872600  0.25777700  1
  C  2273  1  0.40369900  0.98859300  0.23635900  1
  C  2277  1  0.37574000  0.05146800  0.26175600  1
  C  2279  1  0.36145400  0.95848700  0.24525700  1
  C  2281  1  0.74475000  0.87276400  0.51187300  1
  C  2282  1  0.73085100  0.89271700  0.50794600  1
  C  2283  1  0.74187700  0.90745900  0.49890400  1
  C  2285  1  0.77796500  0.88551300  0.49945400  1
  C  2288  1  0.73800400  0.85425100  0.52102900  1
  C  2292  1  0.80104300  0.88161000  0.49563100  1
  C  2294  1  0.71097300  0.90196100  0.51424300  1
  C  2296  1  0.76299000  0.13377000  0.01198700  1
  C  2297  1  0.77655400  0.11381300  0.00758000  1
  C  2298  1  0.76438600  0.09923500  0.99878200  1
  C  2300  1  0.72899700  0.12208300  0.99973500  1
  C  2303  1  0.76968400  0.15281100  0.02092200  1
  C  2307  1  0.70604000  0.12604000  0.99571700  1
  C  2309  1  0.79991300  0.10687400  0.01078900  1
  C  2311  1  0.38505200  0.49491200  0.76179900  1
  C  2312  1  0.36534100  0.48051500  0.75807200  1
  C  2313  1  0.35018300  0.49099800  0.74903600  1
  C  2315  1  0.37146500  0.52766100  0.74939400  1
  C  2318  1  0.40371300  0.48862700  0.77096300  1
  C  2322  1  0.37536300  0.55079100  0.74560400  1
  C  2324  1  0.35676400  0.46184700  0.76552200  1
  C  2326  1  0.12355900  0.51302800  0.26198300  1
  C  2327  1  0.14363600  0.52649200  0.25768700  1
  C  2328  1  0.15813000  0.51447300  0.24879800  1
  C  2330  1  0.13525100  0.47905700  0.24971500  1
  C  2333  1  0.10456700  0.51967000  0.27094800  1
  C  2337  1  0.13127600  0.45607900  0.24570000  1
  C  2339  1  0.15108800  0.54935600  0.26140700  1
  C  2341  1  0.26299900  0.13380000  0.49532200  1
  C  2342  1  0.27649200  0.11384900  0.49962700  1
  C  2343  1  0.26463500  0.09913900  0.50849300  1
  C  2345  1  0.22920000  0.12191000  0.50763700  1
  C  2348  1  0.26977300  0.15270500  0.48637000  1
  C  2352  1  0.20620900  0.12601000  0.51158600  1
  C  2354  1  0.29935300  0.10670300  0.49582000  1
  C  2356  1  0.24479100  0.87298200  0.99527300  1
  C  2357  1  0.23119700  0.89291100  0.99979200  1
  C  2358  1  0.24373700  0.90735600  0.00855800  1
  C  2360  1  0.27871300  0.88489900  0.00753100  1
  C  2363  1  0.23749500  0.85430300  0.98628400  1
  C  2367  1  0.30150600  0.88114900  0.01161800  1
  C  2369  1  0.20816800  0.90191700  0.99727300  1
  C  2371  1  0.62296400  0.51254200  0.24529900  1
  C  2372  1  0.64289700  0.52613400  0.24981700  1
  C  2373  1  0.65727100  0.51363100  0.25862600  1
  C  2375  1  0.63491000  0.47860200  0.25753600  1
  C  2378  1  0.60433700  0.51983900  0.23628400  1
  C  2382  1  0.63115400  0.45579900  0.26160400  1
  C  2384  1  0.65231900  0.54901300  0.24710400  1
  C  2386  1  0.88373800  0.49438500  0.74531000  1
  C  2387  1  0.86385100  0.48080900  0.74974400  1
  C  2388  1  0.84916800  0.49293100  0.75851600  1
  C  2390  1  0.87201300  0.52828400  0.75759500  1
  C  2393  1  0.90273400  0.48751700  0.73639800  1
  C  2397  1  0.87605700  0.55122900  0.76159100  1
  C  2399  1  0.85728000  0.45729600  0.74666800  1
  N  41  1  0.19463300  0.39157800  0.01971200  1
  N  42  1  0.05284300  0.46462000  0.01603000  1
  N  43  1  0.10692900  0.39232600  0.09572000  1
  N  44  1  0.05436600  0.29747200  0.03765300  1
  N  86  1  0.31334000  0.61732600  0.51897700  1
  N  87  1  0.45448400  0.54269800  0.51603700  1
  N  88  1  0.40036300  0.61499000  0.59572700  1
  N  89  1  0.45296600  0.70985000  0.53764500  1
  N  131  1  0.85736800  0.93787400  0.26613600  1
  N  132  1  0.79270000  0.80284600  0.26603700  1
  N  133  1  0.86499600  0.85693000  0.34572200  1
  N  134  1  0.95984700  0.80434500  0.28764700  1
  N  176  1  0.63867000  0.06419700  0.76781100  1
  N  177  1  0.71461800  0.20447400  0.76602500  1
  N  178  1  0.64232400  0.15034000  0.84573400  1
  N  179  1  0.54747300  0.20295700  0.78765500  1
  N  221  1  0.31341100  0.39728100  0.98984000  1
  N  222  1  0.45448200  0.46456500  0.99125500  1
  N  223  1  0.40039200  0.39228000  0.91168300  1
  N  224  1  0.45290200  0.29760900  0.96964500  1
  N  266  1  0.19388200  0.61003900  0.48983500  1
  N  267  1  0.05283700  0.54275900  0.49125900  1
  N  268  1  0.10693400  0.61503500  0.41168300  1
  N  269  1  0.05439800  0.70970600  0.46965800  1
  N  311  1  0.64726800  0.94388900  0.73982500  1
  N  312  1  0.71456300  0.80283700  0.74125900  1
  N  313  1  0.64229400  0.85694100  0.66168400  1
  N  314  1  0.54761000  0.80440000  0.71966200  1
  N  356  1  0.85983100  0.06356600  0.23974500  1
  N  357  1  0.79275300  0.20449100  0.24124900  1
  N  358  1  0.86503700  0.15036900  0.16167900  1
  N  359  1  0.95970800  0.20293400  0.21966100  1
  N  401  1  0.81337700  0.61748600  0.98850100  1
  N  402  1  0.95533800  0.54151500  0.99042500  1
  N  403  1  0.90038300  0.61499800  0.91161000  1
  N  404  1  0.95294300  0.70982700  0.96966400  1
  N  446  1  0.69389100  0.38997000  0.48862600  1
  N  447  1  0.55196700  0.46579800  0.49041700  1
  N  448  1  0.60696000  0.39232100  0.41160500  1
  N  449  1  0.55437300  0.29748900  0.46966000  1
  N  491  1  0.14820800  0.06768000  0.74054600  1
  N  492  1  0.21462200  0.20447700  0.74128100  1
  N  493  1  0.14232000  0.15034200  0.66158800  1
  N  494  1  0.04747200  0.20298700  0.71968100  1
  N  536  1  0.35675200  0.93745000  0.24169300  1
  N  537  1  0.29270500  0.80284500  0.24129100  1
  N  538  1  0.36499100  0.85695700  0.16159300  1
  N  539  1  0.45984500  0.80435700  0.21966300  1
  N  581  1  0.69387900  0.61007700  0.01748900  1
  N  582  1  0.55196900  0.54157300  0.01693100  1
  N  583  1  0.60693300  0.61504400  0.09562200  1
  N  584  1  0.55442300  0.70969200  0.03767500  1
  N  626  1  0.81345700  0.39727400  0.51749400  1
  N  627  1  0.95536000  0.46575000  0.51693900  1
  N  628  1  0.90037900  0.39228000  0.59562300  1
  N  629  1  0.95291300  0.29763000  0.53766600  1
  N  671  1  0.35978600  0.06355600  0.26757800  1
  N  672  1  0.29275200  0.20448100  0.26606500  1
  N  673  1  0.36502400  0.15037800  0.34563500  1
  N  674  1  0.45970800  0.20292000  0.28765700  1
  N  716  1  0.14729900  0.94381100  0.76749000  1
  N  717  1  0.21455800  0.80283900  0.76606100  1
  N  718  1  0.14228100  0.85694900  0.84564000  1
  N  719  1  0.04761200  0.80438400  0.78765800  1
  N  761  1  0.69113800  0.89083600  0.51500700  1
  N  762  1  0.55279800  0.96466800  0.51599800  1
  N  763  1  0.60230800  0.88633700  0.59535000  1
  N  764  1  0.55479700  0.79780300  0.54138300  1
  N  806  1  0.81350700  0.11775900  0.01860000  1
  N  807  1  0.95453000  0.04264100  0.01600200  1
  N  808  1  0.90500700  0.12096200  0.09535300  1
  N  809  1  0.95250700  0.20953200  0.04138900  1
  N  851  1  0.36344400  0.44025500  0.76389600  1
  N  852  1  0.29146300  0.30193500  0.76687100  1
  N  853  1  0.37097400  0.35230600  0.84533000  1
  N  854  1  0.45947100  0.30478800  0.79142800  1
  N  896  1  0.13871800  0.56405400  0.26791000  1
  N  897  1  0.21586600  0.70539400  0.26687000  1
  N  898  1  0.13634100  0.65500500  0.34533800  1
  N  899  1  0.04782200  0.70251700  0.29139200  1
  N  941  1  0.81328600  0.89745000  0.48977900  1
  N  942  1  0.95454100  0.96462700  0.49127800  1
  N  943  1  0.90498900  0.88633000  0.41205700  1
  N  944  1  0.95244400  0.79792500  0.46591900  1
  N  986  1  0.69396000  0.11002700  0.98985000  1
  N  987  1  0.55277700  0.04268800  0.99127400  1
  N  988  1  0.60232600  0.12102900  0.91205600  1
  N  989  1  0.55485600  0.20937300  0.96590100  1
  N  1031  1  0.14727200  0.44397100  0.23984000  1
  N  1032  1  0.21580700  0.30192600  0.24042000  1
  N  1033  1  0.13633700  0.35234400  0.16207000  1
  N  1034  1  0.04796000  0.30484500  0.21589500  1
  N  1076  1  0.35971000  0.56322200  0.73973800  1
  N  1077  1  0.29150800  0.70541000  0.74040400  1
  N  1078  1  0.37098300  0.65497600  0.66206600  1
  N  1079  1  0.45935900  0.70246600  0.71590900  1
  N  1121  1  0.31387600  0.11869300  0.48900000  1
  N  1122  1  0.45540300  0.04144900  0.49043900  1
  N  1123  1  0.40500300  0.12098300  0.41197900  1
  N  1124  1  0.45251400  0.20949400  0.46593000  1
  N  1166  1  0.18997700  0.89710300  0.99061400  1
  N  1167  1  0.05191300  0.96586700  0.99043500  1
  N  1168  1  0.10231500  0.88635500  0.91197700  1
  N  1169  1  0.05481300  0.79781300  0.96592900  1
  N  1211  1  0.64696600  0.56707400  0.24046900  1
  N  1212  1  0.71586800  0.70539400  0.24043900  1
  N  1213  1  0.63634800  0.65501200  0.16198400  1
  N  1214  1  0.54784200  0.70253200  0.21588900  1
  N  1256  1  0.86763300  0.44403000  0.73849400  1
  N  1257  1  0.79144900  0.30192300  0.74045000  1
  N  1258  1  0.87096300  0.35231900  0.66198100  1
  N  1259  1  0.95950100  0.30479700  0.71592700  1
  N  1301  1  0.19401900  0.11011000  0.51746400  1
  N  1302  1  0.05191700  0.04151500  0.51690300  1
  N  1303  1  0.10234000  0.12098700  0.59525400  1
  N  1304  1  0.05487700  0.20937100  0.54140200  1
  N  1346  1  0.31342200  0.89727500  0.01747500  1
  N  1347  1  0.45539500  0.96580300  0.01689900  1
  N  1348  1  0.40499100  0.88628900  0.09525000  1
  N  1349  1  0.45245900  0.79796600  0.04141900  1
  N  1391  1  0.86009400  0.56334200  0.76746600  1
  N  1392  1  0.79151100  0.70539500  0.76690000  1
  N  1393  1  0.87098100  0.65497500  0.84524900  1
  N  1394  1  0.95935700  0.70247300  0.79142400  1
  N  1436  1  0.64727400  0.44388900  0.26746800  1
  N  1437  1  0.71580300  0.30191900  0.26690100  1
  N  1438  1  0.63633300  0.35234200  0.34525200  1
  N  1439  1  0.54796100  0.30485200  0.29141000  1
  N  1444  1  0.13453400  0.38214900  0.11988400  1
  N  1446  1  0.09989800  0.36170700  0.12423400  1
  N  1459  1  0.37280000  0.62516200  0.61987900  1
  N  1461  1  0.40743100  0.64560400  0.62423500  1
  N  1474  1  0.87517400  0.88454500  0.36987700  1
  N  1476  1  0.89562900  0.84991000  0.37423600  1
  N  1489  1  0.63215600  0.12280800  0.86986100  1
  N  1491  1  0.61171000  0.15743400  0.87423900  1
  N  1504  1  0.37279700  0.38216700  0.88746100  1
  N  1506  1  0.40742200  0.36172300  0.88309800  1
  N  1519  1  0.13451400  0.62515100  0.38746600  1
  N  1521  1  0.09989300  0.64560100  0.38309600  1
  N  1534  1  0.63217100  0.88450200  0.63746900  1
  N  1536  1  0.61172600  0.84988000  0.63310000  1
  N  1549  1  0.87514900  0.12281500  0.13746900  1
  N  1551  1  0.89559000  0.15743800  0.13309900  1
  N  1564  1  0.87278400  0.62516900  0.88743600  1
  N  1566  1  0.90742000  0.64561100  0.88308700  1
  N  1579  1  0.63451800  0.38215600  0.38744100  1
  N  1581  1  0.59988700  0.36171400  0.38308400  1
  N  1594  1  0.13216000  0.12280500  0.63744900  1
  N  1596  1  0.11170700  0.15743000  0.63307900  1
  N  1609  1  0.37516900  0.88452300  0.13745200  1
  N  1611  1  0.39561500  0.84989400  0.13308100  1
  N  1624  1  0.63452000  0.62514900  0.11985700  1
  N  1626  1  0.59989600  0.64559400  0.12422000  1
  N  1639  1  0.87280500  0.38217100  0.61985500  1
  N  1641  1  0.90742700  0.36172100  0.62422000  1
  N  1654  1  0.37514800  0.12281500  0.36985000  1
  N  1656  1  0.39559200  0.15743800  0.37422000  1
  N  1669  1  0.13216800  0.88450400  0.86985200  1
  N  1671  1  0.11172800  0.84988200  0.87422100  1
  N  1684  1  0.00966400  0.26897000  0.03132700  1
  N  1686  1  0.01487900  0.25715300  0.05198100  1
  N  1699  1  0.49762900  0.73834600  0.53133300  1
  N  1701  1  0.49242200  0.75017400  0.55198600  1
  N  1714  1  0.98833700  0.75967800  0.28132900  1
  N  1716  1  0.00017100  0.76487200  0.30198400  1
  N  1729  1  0.51900100  0.24765600  0.78133000  1
  N  1731  1  0.50715500  0.24246600  0.80198300  1
  N  1744  1  0.49765200  0.26896700  0.97599300  1
  N  1746  1  0.49243900  0.25715800  0.95534600  1
  N  1759  1  0.00968000  0.73835300  0.47598900  1
  N  1761  1  0.01487800  0.75016700  0.45534500  1
  N  1774  1  0.51896900  0.75969200  0.72598400  1
  N  1776  1  0.50714900  0.76489100  0.70534200  1
  N  1789  1  0.98834600  0.24763300  0.22598500  1
  N  1791  1  0.00017200  0.24244100  0.20534300  1
  N  1804  1  0.99765200  0.73834600  0.97599300  1
  N  1806  1  0.99243800  0.75016500  0.95533600  1
  N  1819  1  0.50966800  0.26897000  0.47598800  1
  N  1821  1  0.51488400  0.25715500  0.45533500  1
  N  1834  1  0.01898100  0.24761900  0.72598700  1
  N  1836  1  0.00713900  0.24243400  0.70533300  1
  N  1849  1  0.48831900  0.75966200  0.22598900  1
  N  1851  1  0.50016400  0.76485200  0.20533600  1
  N  1864  1  0.50966600  0.73835100  0.03132900  1
  N  1866  1  0.51487900  0.75016000  0.05197100  1
  N  1879  1  0.99763800  0.26896300  0.53133000  1
  N  1881  1  0.99243900  0.25715300  0.55197300  1
  N  1894  1  0.48835000  0.24762600  0.28133500  1
  N  1896  1  0.50016900  0.24242700  0.30197700  1
  N  1909  1  0.01897300  0.75968500  0.78133400  1
  N  1911  1  0.00714500  0.76487700  0.80197500  1
  N  1924  1  0.98485000  0.49984300  0.99604700  1
  N  1926  1  0.00845500  0.52635500  0.00699000  1
  N  1939  1  0.52248400  0.50745900  0.49605700  1
  N  1941  1  0.49886600  0.48096500  0.50700100  1
  N  1954  1  0.75747700  0.73484900  0.24605600  1
  N  1956  1  0.73097200  0.75846800  0.25699900  1
  N  1969  1  0.74983400  0.27245300  0.74604800  1
  N  1971  1  0.77634400  0.24884300  0.75699300  1
  N  1984  1  0.52247500  0.49984900  0.01126400  1
  N  1986  1  0.49886400  0.52634600  0.00032000  1
  N  1999  1  0.98484700  0.50747100  0.51126200  1
  N  2001  1  0.00845800  0.48097600  0.50032100  1
  N  2014  1  0.74984100  0.73485900  0.76126900  1
  N  2016  1  0.77634600  0.75846600  0.75032600  1
  N  2029  1  0.75746400  0.27246800  0.26126700  1
  N  2031  1  0.73097100  0.24885600  0.25032000  1
  N  2044  1  0.24984200  0.27246800  0.76126800  1
  N  2046  1  0.27635100  0.24885400  0.75032400  1
  N  2059  1  0.25748400  0.73486500  0.26127000  1
  N  2061  1  0.23097200  0.75847500  0.25032600  1
  N  2074  1  0.25747500  0.27246200  0.24604900  1
  N  2076  1  0.23096700  0.24885600  0.25699300  1
  N  2089  1  0.24984000  0.73485800  0.74605700  1
  N  2091  1  0.27633500  0.75847300  0.75700000  1
  N  2104  1  0.48485100  0.99984000  0.49605200  1
  N  2106  1  0.50847200  0.02634600  0.50699800  1
  N  2119  1  0.02247800  0.00746600  0.99605600  1
  N  2121  1  0.99885000  0.98097100  0.00700200  1
  N  2134  1  0.02247800  0.99986100  0.51127000  1
  N  2136  1  0.99886100  0.02635500  0.50032200  1
  N  2149  1  0.48484500  0.00746000  0.01127400  1
  N  2151  1  0.50846100  0.98096300  0.00032900  1
  N  2164  1  0.26537000  0.40390900  0.99534900  1
  N  2166  1  0.26697000  0.37065900  0.00787500  1
  N  2179  1  0.24175100  0.60355400  0.49527600  1
  N  2181  1  0.24027200  0.63679300  0.50785300  1
  N  2194  1  0.85333700  0.01586100  0.24520800  1
  N  2196  1  0.88720000  0.01841800  0.25767200  1
  N  2209  1  0.65374300  0.99178300  0.74525600  1
  N  2211  1  0.62047900  0.99028400  0.75782000  1
  N  2224  1  0.74166700  0.60353400  0.01205400  1
  N  2226  1  0.74017600  0.63682100  0.99946100  1
  N  2239  1  0.76572800  0.40367700  0.51206400  1
  N  2241  1  0.76716200  0.37041200  0.49946300  1
  N  2254  1  0.15334500  0.99108100  0.76209200  1
  N  2256  1  0.11997600  0.98965900  0.74941200  1
  N  2269  1  0.35324400  0.01588000  0.26206300  1
  N  2271  1  0.38723400  0.01842800  0.24967000  1
  N  2284  1  0.76464000  0.90380900  0.49512800  1
  N  2286  1  0.76739500  0.87020500  0.50753100  1
  N  2299  1  0.74168300  0.10358400  0.99526400  1
  N  2301  1  0.74022900  0.13684100  0.00786000  1
  N  2314  1  0.35330500  0.51389300  0.74521100  1
  N  2316  1  0.38715000  0.51748800  0.75737800  1
  N  2329  1  0.15374900  0.49177900  0.24525700  1
  N  2331  1  0.12048300  0.49029700  0.25782800  1
  N  2344  1  0.24195000  0.10339000  0.51208000  1
  N  2346  1  0.24031400  0.13673300  0.49950700  1
  N  2359  1  0.26627200  0.90335900  0.01206500  1
  N  2361  1  0.26764600  0.86998100  0.99938600  1
  N  2374  1  0.65332800  0.49106700  0.26210100  1
  N  2376  1  0.61997200  0.48967500  0.24940300  1
  N  2389  1  0.85347400  0.51562300  0.76205400  1
  N  2391  1  0.88677800  0.51713000  0.74944600  1
