# generated using pymatgen
data_H22C39N10
_symmetry_space_group_name_H-M   'P 1'
_cell_length_a   56.31300000
_cell_length_b   64.61310000
_cell_length_c   64.61310000
_cell_angle_alpha   120.00000000
_cell_angle_beta   90.00000000
_cell_angle_gamma   90.00000000
_symmetry_Int_Tables_number   1
_chemical_formula_structural   H22C39N10
_chemical_formula_sum   'H264 C468 N120'
_cell_volume   203601.25574430
_cell_formula_units_Z   12
loop_
 _symmetry_equiv_pos_site_id
 _symmetry_equiv_pos_as_xyz
  1  'x, y, z'
loop_
 _atom_site_type_symbol
 _atom_site_label
 _atom_site_symmetry_multiplicity
 _atom_site_fract_x
 _atom_site_fract_y
 _atom_site_fract_z
 _atom_site_occupancy
  H  26  1  0.80712400  0.55827300  0.42588300  1
  H  27  1  0.84713400  0.55983600  0.41553300  1
  H  28  1  0.81977900  0.61614000  0.49527300  1
  H  29  1  0.85990800  0.61771900  0.48473000  1
  H  30  1  0.90773900  0.60889800  0.48336700  1
  H  31  1  0.92804500  0.58623300  0.49764100  1
  H  32  1  0.90960900  0.52280600  0.43458800  1
  H  33  1  0.88949500  0.54545000  0.42044100  1
  H  34  1  0.91928700  0.57109500  0.40797200  1
  H  35  1  0.92226800  0.56043900  0.36699500  1
  H  36  1  0.85429100  0.58961000  0.37075100  1
  H  37  1  0.85127000  0.60004700  0.41135100  1
  H  38  1  0.85452500  0.63416900  0.45332900  1
  H  39  1  0.92664000  0.61439300  0.44714200  1
  H  40  1  0.93773000  0.65303300  0.45484000  1
  H  41  1  0.86543300  0.67257100  0.46134100  1
  H  44  1  0.92689700  0.52080300  0.46789800  1
  H  45  1  0.78053200  0.59550400  0.48428800  1
  H  47  1  0.88165000  0.55224000  0.32926400  1
  H  49  1  0.92627200  0.69420400  0.46564100  1
  H  75  1  0.80708000  0.89812600  0.47651000  1
  H  76  1  0.84708700  0.88623400  0.47496200  1
  H  77  1  0.81983400  0.91002800  0.41889900  1
  H  78  1  0.85996200  0.89791300  0.41732300  1
  H  79  1  0.90787500  0.90517900  0.42598800  1
  H  80  1  0.92815000  0.94213400  0.44864100  1
  H  81  1  0.90943600  0.94269800  0.51210000  1
  H  82  1  0.88936200  0.90588600  0.48946300  1
  H  83  1  0.91933800  0.86784800  0.46396900  1
  H  84  1  0.92243900  0.83757000  0.47466200  1
  H  85  1  0.85463300  0.81176300  0.44522400  1
  H  86  1  0.85148800  0.84190400  0.43476000  1
  H  87  1  0.85455700  0.84996400  0.40072900  1
  H  88  1  0.92665800  0.86343600  0.42052300  1
  H  89  1  0.93773700  0.83247800  0.38189700  1
  H  90  1  0.86544200  0.81956300  0.36233600  1
  H  93  1  0.92684000  0.97794700  0.51407300  1
  H  94  1  0.78054800  0.91952200  0.43942300  1
  H  96  1  0.88202600  0.80787700  0.48277300  1
  H  98  1  0.92629700  0.80207500  0.34076100  1
  H  124  1  0.80705900  0.60927700  0.13695200  1
  H  125  1  0.84707000  0.61960100  0.14882700  1
  H  126  1  0.81985700  0.53966800  0.12476400  1
  H  127  1  0.85999100  0.55018500  0.13686100  1
  H  128  1  0.90798500  0.55159800  0.12971600  1
  H  129  1  0.92824500  0.53729400  0.09275500  1
  H  130  1  0.90932300  0.60008300  0.09207500  1
  H  131  1  0.88926500  0.61426400  0.12889500  1
  H  132  1  0.91936000  0.62686300  0.16683000  1
  H  133  1  0.92254300  0.66783000  0.19707400  1
  H  134  1  0.85492200  0.66424700  0.22325000  1
  H  135  1  0.85167200  0.62364500  0.19310600  1
  H  136  1  0.85459700  0.58142700  0.18483200  1
  H  137  1  0.92669000  0.58788300  0.17144100  1
  H  138  1  0.93777800  0.58018600  0.20237900  1
  H  139  1  0.86549300  0.57340100  0.21521500  1
  H  142  1  0.92681300  0.56683800  0.05687000  1
  H  143  1  0.78055700  0.55074100  0.11536600  1
  H  145  1  0.88277700  0.70572000  0.22674700  1
  H  147  1  0.92632700  0.56928800  0.23268600  1
  H  173  1  0.30693800  0.48512700  0.60054500  1
  H  174  1  0.34693400  0.48356000  0.61087600  1
  H  175  1  0.31989400  0.42810800  0.53075500  1
  H  176  1  0.36002000  0.42651400  0.54127700  1
  H  177  1  0.40821400  0.43480900  0.54278900  1
  H  178  1  0.42848500  0.45746900  0.52849600  1
  H  179  1  0.40904200  0.52096600  0.59101300  1
  H  180  1  0.38897700  0.49832500  0.60518700  1
  H  181  1  0.41925300  0.47337100  0.61802000  1
  H  182  1  0.42248800  0.48413500  0.65898900  1
  H  183  1  0.35523700  0.45366100  0.65529900  1
  H  184  1  0.35190200  0.44321400  0.61470100  1
  H  185  1  0.35454100  0.40946400  0.57221800  1
  H  186  1  0.42662600  0.42947600  0.57921100  1
  H  187  1  0.43770300  0.39083400  0.57150100  1
  H  188  1  0.36544100  0.37104400  0.56416900  1
  H  191  1  0.42681900  0.52291700  0.55790400  1
  H  192  1  0.28053000  0.44834200  0.54187200  1
  H  194  1  0.38354500  0.49225300  0.69691200  1
  H  196  1  0.42627400  0.34960500  0.56047900  1
  H  222  1  0.30697100  0.14613100  0.54970500  1
  H  223  1  0.34697100  0.15802400  0.55126800  1
  H  224  1  0.31989400  0.13347000  0.60679800  1
  H  225  1  0.36002500  0.14558000  0.60839100  1
  H  226  1  0.40817500  0.13872700  0.60004500  1
  H  227  1  0.42844800  0.10177300  0.57738600  1
  H  228  1  0.40910900  0.10085200  0.51389500  1
  H  229  1  0.38904300  0.13766700  0.53653300  1
  H  230  1  0.41927100  0.17548700  0.56154300  1
  H  231  1  0.42248300  0.20571500  0.55080600  1
  H  232  1  0.35517000  0.23237200  0.58117500  1
  H  233  1  0.35186300  0.20221200  0.59160900  1
  H  234  1  0.35456300  0.19356000  0.62539300  1
  H  235  1  0.42665100  0.18047800  0.60539000  1
  H  236  1  0.43773500  0.21140400  0.64402900  1
  H  237  1  0.36547500  0.22392900  0.66380900  1
  H  240  1  0.42679600  0.06574600  0.51195300  1
  H  241  1  0.28054400  0.12429400  0.58651100  1
  H  243  1  0.38332000  0.23550400  0.54271900  1
  H  245  1  0.42627800  0.24154900  0.68532200  1
  H  271  1  0.30709200  0.43474700  0.88944800  1
  H  272  1  0.34709000  0.42439000  0.87752500  1
  H  273  1  0.31977800  0.50417700  0.90110100  1
  H  274  1  0.35990800  0.49362900  0.88896200  1
  H  275  1  0.40775500  0.49225800  0.89634300  1
  H  276  1  0.42805700  0.50654000  0.93328500  1
  H  277  1  0.40956100  0.44352000  0.93369800  1
  H  278  1  0.38945300  0.42936800  0.89690700  1
  H  279  1  0.41927400  0.41685300  0.85879400  1
  H  280  1  0.42226800  0.37588300  0.82846100  1
  H  281  1  0.35432100  0.37965200  0.80300000  1
  H  282  1  0.35128800  0.42024400  0.83317700  1
  H  283  1  0.35448600  0.46224900  0.84108900  1
  H  284  1  0.42661200  0.45598500  0.85458500  1
  H  285  1  0.43767300  0.46368100  0.82363700  1
  H  286  1  0.36537200  0.47026800  0.81069800  1
  H  289  1  0.42692600  0.47678800  0.96897700  1
  H  290  1  0.28051700  0.49318500  0.91067100  1
  H  292  1  0.38162700  0.33816000  0.79889000  1
  H  294  1  0.42623200  0.47433200  0.79319000  1
  H  320  1  0.13249500  0.14165500  0.59725100  1
  H  321  1  0.09180600  0.15089000  0.60673300  1
  H  322  1  0.12228400  0.14258300  0.53296100  1
  H  323  1  0.08169600  0.15188100  0.54260400  1
  H  324  1  0.03702600  0.13661500  0.54142300  1
  H  325  1  0.01531700  0.10039800  0.52721500  1
  H  326  1  0.02458000  0.10449500  0.59393500  1
  H  327  1  0.04625200  0.14034600  0.60785700  1
  H  328  1  0.02008500  0.18052300  0.61709700  1
  H  329  1  0.01746100  0.21130400  0.65797700  1
  H  330  1  0.09008900  0.22690100  0.65712000  1
  H  331  1  0.09250600  0.19692100  0.61658600  1
  H  332  1  0.08525000  0.19828600  0.57949000  1
  H  333  1  0.01371200  0.17717100  0.57486700  1
  H  334  1  0.00234000  0.20813100  0.56729300  1
  H  335  1  0.07412800  0.22882300  0.57180100  1
  H  338  1  0.00360300  0.07112400  0.56299500  1
  H  339  1  0.16207800  0.14142400  0.54607300  1
  H  341  1  0.06374900  0.23841000  0.69671900  1
  H  343  1  0.01328900  0.24143800  0.56083200  1
  H  369  1  0.13242400  0.43782900  0.54837400  1
  H  370  1  0.09171900  0.42834000  0.54815800  1
  H  371  1  0.12232700  0.50187200  0.61385800  1
  H  372  1  0.08175000  0.49222400  0.61352400  1
  H  373  1  0.03719200  0.49349000  0.59922000  1
  H  374  1  0.01546100  0.50770300  0.57722600  1
  H  375  1  0.02436700  0.44085500  0.51467000  1
  H  376  1  0.04606700  0.42693000  0.53658100  1
  H  377  1  0.02008900  0.41782900  0.56770800  1
  H  378  1  0.01748900  0.37694500  0.55760500  1
  H  379  1  0.09023400  0.37769500  0.57359700  1
  H  380  1  0.09263400  0.41823700  0.58417500  1
  H  381  1  0.08521300  0.45518100  0.62280200  1
  H  382  1  0.01372300  0.46019900  0.60644100  1
  H  383  1  0.00234400  0.46777600  0.64497300  1
  H  384  1  0.07408700  0.46286800  0.66102500  1
  H  387  1  0.00354600  0.47185900  0.51221700  1
  H  388  1  0.16207200  0.48892800  0.59937400  1
  H  390  1  0.06380900  0.33813000  0.54572700  1
  H  392  1  0.01327500  0.47410000  0.68470300  1
  H  418  1  0.13244900  0.48651700  0.89354000  1
  H  419  1  0.09173900  0.48672100  0.88425800  1
  H  420  1  0.12237600  0.42102500  0.89208300  1
  H  421  1  0.08179800  0.42134500  0.88276200  1
  H  422  1  0.03723100  0.43564900  0.89834000  1
  H  423  1  0.01549300  0.45764100  0.93454300  1
  H  424  1  0.02437900  0.52019300  0.93023900  1
  H  425  1  0.04608300  0.49828500  0.89440800  1
  H  426  1  0.02011700  0.46715400  0.85418400  1
  H  427  1  0.01751600  0.47725500  0.82340400  1
  H  428  1  0.09026300  0.46127200  0.80816600  1
  H  429  1  0.09266400  0.45069500  0.83812900  1
  H  430  1  0.08523900  0.41206600  0.83644000  1
  H  431  1  0.01375300  0.42843100  0.85783000  1
  H  432  1  0.00236700  0.38990200  0.82687800  1
  H  433  1  0.07410500  0.37384600  0.80590200  1
  H  436  1  0.00351400  0.52263600  0.96367300  1
  H  437  1  0.16211800  0.43552000  0.89361600  1
  H  439  1  0.06387800  0.48910000  0.79644000  1
  H  441  1  0.01329500  0.35017000  0.79348300  1
  H  467  1  0.63256100  0.90199600  0.42861300  1
  H  468  1  0.59187000  0.89271800  0.41911000  1
  H  469  1  0.62227900  0.90132300  0.49302600  1
  H  470  1  0.58170400  0.89199200  0.48336700  1
  H  471  1  0.53696300  0.90707700  0.48448900  1
  H  472  1  0.51526600  0.94330000  0.49871500  1
  H  473  1  0.52474700  0.93936300  0.43209000  1
  H  474  1  0.54639900  0.90349700  0.41815100  1
  H  475  1  0.52009300  0.86338900  0.40887600  1
  H  476  1  0.51738300  0.83266900  0.36798900  1
  H  477  1  0.58991500  0.81670600  0.36876400  1
  H  478  1  0.59241900  0.84665700  0.40931800  1
  H  479  1  0.58527500  0.84552000  0.44655200  1
  H  480  1  0.51372700  0.86648400  0.45094100  1
  H  481  1  0.50234000  0.83549200  0.45844800  1
  H  482  1  0.57415300  0.81495000  0.45418000  1
  H  485  1  0.50364400  0.97265300  0.46298900  1
  H  486  1  0.66208700  0.90249500  0.47995000  1
  H  488  1  0.56348600  0.80551500  0.32917500  1
  H  490  1  0.51327000  0.80217500  0.46488500  1
  H  516  1  0.63257100  0.60633600  0.47743100  1
  H  517  1  0.59187700  0.61580600  0.47766200  1
  H  518  1  0.62228600  0.54184400  0.41241900  1
  H  519  1  0.58170400  0.55147500  0.41275200  1
  H  520  1  0.53692200  0.55035800  0.42665200  1
  H  521  1  0.51523200  0.53613400  0.44865400  1
  H  522  1  0.52479700  0.60272800  0.51135700  1
  H  523  1  0.54644200  0.61666700  0.48942600  1
  H  524  1  0.52007000  0.62595200  0.45863700  1
  H  525  1  0.51733000  0.66684400  0.46882500  1
  H  526  1  0.58982300  0.66608600  0.45196100  1
  H  527  1  0.59235900  0.62552700  0.44134700  1
  H  528  1  0.58527800  0.58822400  0.40302000  1
  H  529  1  0.51371900  0.58392800  0.41962600  1
  H  530  1  0.50233700  0.57641600  0.38112400  1
  H  531  1  0.57415800  0.58058500  0.36481400  1
  H  534  1  0.50367600  0.57183700  0.51374600  1
  H  535  1  0.66209700  0.55501200  0.42659800  1
  H  537  1  0.56332800  0.70567900  0.48052100  1
  H  539  1  0.51326500  0.56994700  0.34136300  1
  H  565  1  0.63265800  0.55758100  0.13336100  1
  H  566  1  0.59196600  0.55732500  0.14258800  1
  H  567  1  0.62218300  0.62222900  0.13320200  1
  H  568  1  0.58160100  0.62187800  0.14248900  1
  H  569  1  0.53663300  0.60829800  0.12793700  1
  H  570  1  0.51494700  0.58627700  0.09171000  1
  H  571  1  0.52506900  0.52347200  0.09529600  1
  H  572  1  0.54670100  0.54542600  0.13117700  1
  H  573  1  0.52009100  0.57588200  0.17114900  1
  H  574  1  0.51736200  0.56568900  0.20185400  1
  H  575  1  0.58965000  0.58333400  0.21849800  1
  H  576  1  0.59218100  0.59393000  0.18853700  1
  H  577  1  0.58535100  0.63200800  0.18902400  1
  H  578  1  0.51370700  0.61513000  0.16860000  1
  H  579  1  0.50233000  0.65364100  0.19958000  1
  H  580  1  0.57422400  0.67023200  0.21957200  1
  H  583  1  0.50372400  0.52111400  0.06214200  1
  H  584  1  0.66205700  0.60832800  0.13262200  1
  H  586  1  0.56320400  0.55432300  0.22922100  1
  H  588  1  0.51332200  0.69355700  0.23262500  1
  H  595  1  0.93405600  0.57378400  0.27171800  1
  H  606  1  0.93407300  0.72867500  0.46108200  1
  H  617  1  0.93405600  0.76291800  0.30644300  1
  H  628  1  0.43394900  0.46947800  0.75399900  1
  H  639  1  0.43398700  0.31524500  0.56525700  1
  H  650  1  0.43402000  0.28058700  0.71981700  1
  H  661  1  0.00545300  0.31387700  0.75520300  1
  H  672  1  0.00548300  0.27973500  0.56285500  1
  H  683  1  0.00546500  0.47211800  0.72101500  1
  H  694  1  0.50549600  0.72972700  0.27089800  1
  H  705  1  0.50541200  0.76379900  0.46260100  1
  H  716  1  0.50540900  0.57221500  0.30526500  1
  H  727  1  0.70201900  0.60166200  0.49266900  1
  H  738  1  0.70203700  0.92175000  0.43321800  1
  H  749  1  0.70205800  0.54226600  0.11308500  1
  H  760  1  0.20199700  0.44216900  0.53338200  1
  H  771  1  0.20201900  0.12192700  0.59262900  1
  H  782  1  0.20199200  0.50155800  0.91292200  1
  H  793  1  0.97593200  0.54689000  0.55657900  1
  H  799  1  0.97594000  0.04048300  0.48798200  1
  H  808  1  0.97604900  0.47828700  0.99441400  1
  H  819  1  0.47598200  0.49684400  0.46935000  1
  H  835  1  0.47584400  0.56551700  0.03162700  1
  H  852  1  0.47607100  0.00332300  0.53803400  1
  C  1  1  0.90277400  0.66700900  0.45922900  1
  C  2  1  0.92007100  0.64963400  0.45561400  1
  C  3  1  0.91347200  0.62675900  0.45127500  1
  C  4  1  0.88934400  0.62012800  0.45093500  1
  C  5  1  0.87224600  0.63799200  0.45495000  1
  C  6  1  0.87869000  0.66083100  0.45923000  1
  C  7  1  0.88235100  0.59384300  0.44084600  1
  C  8  1  0.88422100  0.58528100  0.41401500  1
  C  9  1  0.86624700  0.59122600  0.40233900  1
  C  10  1  0.86801900  0.58527600  0.37830000  1
  C  11  1  0.88847700  0.57378100  0.36492800  1
  C  12  1  0.90704500  0.56849100  0.37619900  1
  C  13  1  0.90502400  0.57447200  0.40033400  1
  C  14  1  0.89759500  0.57994600  0.44949200  1
  C  15  1  0.85746300  0.59041400  0.44829900  1
  C  16  1  0.84175300  0.57211100  0.43239900  1
  C  17  1  0.81798500  0.57105200  0.43852500  1
  C  18  1  0.80904600  0.58769100  0.46135800  1
  C  19  1  0.82531000  0.60404500  0.47833500  1
  C  20  1  0.84907500  0.60499300  0.47204400  1
  C  21  1  0.90875800  0.59081900  0.47229900  1
  C  22  1  0.92068700  0.57736900  0.48092500  1
  C  23  1  0.92155200  0.55210100  0.46742700  1
  C  24  1  0.91001200  0.54106400  0.44494000  1
  C  25  1  0.89817200  0.55456500  0.43644300  1
  C  42  1  0.78512800  0.58839300  0.46719900  1
  C  43  1  0.90952700  0.68884800  0.46150100  1
  C  46  1  0.88943600  0.56740400  0.34114300  1
  C  48  1  0.93189300  0.53782600  0.47573200  1
  C  50  1  0.90278400  0.82295800  0.36789800  1
  C  51  1  0.92008300  0.83668900  0.38528000  1
  C  52  1  0.91349300  0.85525500  0.40814400  1
  C  53  1  0.88937100  0.86159400  0.41478400  1
  C  54  1  0.87227700  0.84775800  0.39690300  1
  C  55  1  0.87870800  0.82919100  0.37406300  1
  C  56  1  0.88238800  0.87777000  0.44107100  1
  C  57  1  0.88432800  0.85952600  0.44965700  1
  C  58  1  0.86645400  0.84179300  0.44363600  1
  C  59  1  0.86829800  0.82372000  0.44960300  1
  C  60  1  0.88874300  0.82196600  0.46119000  1
  C  61  1  0.90722100  0.83863100  0.46654800  1
  C  62  1  0.90512800  0.85675900  0.46054100  1
  C  63  1  0.89760500  0.90033200  0.45495700  1
  C  64  1  0.85747500  0.88859900  0.44449400  1
  C  65  1  0.84172700  0.89087600  0.46271900  1
  C  66  1  0.81795800  0.89806700  0.46378400  1
  C  67  1  0.80904800  0.90436400  0.44721200  1
  C  68  1  0.82533500  0.90506700  0.43091600  1
  C  69  1  0.84910500  0.89785000  0.42998400  1
  C  70  1  0.90882300  0.91223400  0.44407700  1
  C  71  1  0.92072800  0.93432700  0.45752200  1
  C  72  1  0.92151500  0.94615300  0.48279200  1
  C  73  1  0.90989800  0.93475300  0.49384000  1
  C  74  1  0.89808200  0.91274300  0.48034400  1
  C  91  1  0.78513500  0.90951800  0.44650600  1
  C  92  1  0.90952500  0.80337000  0.34606600  1
  C  95  1  0.88981000  0.80459300  0.46761200  1
  C  97  1  0.93185400  0.96873500  0.49705500  1
  C  99  1  0.90283100  0.57564300  0.21185900  1
  C  100  1  0.92012600  0.57934100  0.19815600  1
  C  101  1  0.91352900  0.58365700  0.17960500  1
  C  102  1  0.88940700  0.58393600  0.17325400  1
  C  103  1  0.87231900  0.57986500  0.18707700  1
  C  104  1  0.87875500  0.57554600  0.20561100  1
  C  105  1  0.88242200  0.59406500  0.15709300  1
  C  106  1  0.88441800  0.62089300  0.17533400  1
  C  107  1  0.86662300  0.63261900  0.19315200  1
  C  108  1  0.86853000  0.65665600  0.21122500  1
  C  109  1  0.88895500  0.66998100  0.21287300  1
  C  110  1  0.90734100  0.65866600  0.19609500  1
  C  111  1  0.90519800  0.63453000  0.17798700  1
  C  112  1  0.89760600  0.58536500  0.13450300  1
  C  113  1  0.85748800  0.58670700  0.14630900  1
  C  114  1  0.84171900  0.60269900  0.14412900  1
  C  115  1  0.81795100  0.59658000  0.13693600  1
  C  116  1  0.80905100  0.57368600  0.13056100  1
  C  117  1  0.82535300  0.55665700  0.12976600  1
  C  118  1  0.84912400  0.56293300  0.13698500  1
  C  119  1  0.90887300  0.56260700  0.12262900  1
  C  120  1  0.92078700  0.55396500  0.10054400  1
  C  121  1  0.92150700  0.56737600  0.08868000  1
  C  122  1  0.90982900  0.58979000  0.10004300  1
  C  123  1  0.89801700  0.59830500  0.12205600  1
  C  140  1  0.78513800  0.56782900  0.12539700  1
  C  141  1  0.90957300  0.57337600  0.23143300  1
  C  144  1  0.89009800  0.69377900  0.23022300  1
  C  146  1  0.93185100  0.55905900  0.06610000  1
  C  148  1  0.40276600  0.37673200  0.56669200  1
  C  149  1  0.42006400  0.39418000  0.57054400  1
  C  150  1  0.41347600  0.41705200  0.57486800  1
  C  151  1  0.38935700  0.42363500  0.57501000  1
  C  152  1  0.37226900  0.40569200  0.57075900  1
  C  153  1  0.37870100  0.38283800  0.56644300  1
  C  154  1  0.38240300  0.44994100  0.58516700  1
  C  155  1  0.38446700  0.45853500  0.61199400  1
  C  156  1  0.36679800  0.45226600  0.62369300  1
  C  157  1  0.36875500  0.45822900  0.64772600  1
  C  158  1  0.38909800  0.47011300  0.66108100  1
  C  159  1  0.40734800  0.47579000  0.64980100  1
  C  160  1  0.40516700  0.46974000  0.62566300  1
  C  161  1  0.39756500  0.46381400  0.57642600  1
  C  162  1  0.35744600  0.45338400  0.57786900  1
  C  163  1  0.34162100  0.47143600  0.59393600  1
  C  164  1  0.31785500  0.47251300  0.58781400  1
  C  165  1  0.30900500  0.45612600  0.56485400  1
  C  166  1  0.32535600  0.44001700  0.54777900  1
  C  167  1  0.34913400  0.43908700  0.55404900  1
  C  168  1  0.40899100  0.45291600  0.55375000  1
  C  169  1  0.42087900  0.46636400  0.54509600  1
  C  170  1  0.42147300  0.49164600  0.55843800  1
  C  171  1  0.40964600  0.50270400  0.58077500  1
  C  172  1  0.39782800  0.48920600  0.58928400  1
  C  189  1  0.28509900  0.45544500  0.55896500  1
  C  190  1  0.40949100  0.35488900  0.56443200  1
  C  193  1  0.39031100  0.47656700  0.68487900  1
  C  195  1  0.43184100  0.50590400  0.55012600  1
  C  197  1  0.40279800  0.22073400  0.65812100  1
  C  198  1  0.42009300  0.20711900  0.64068000  1
  C  199  1  0.41349700  0.18857900  0.61780500  1
  C  200  1  0.38937700  0.18215100  0.61122300  1
  C  201  1  0.37229200  0.19586400  0.62916100  1
  C  202  1  0.37872900  0.21440800  0.65201000  1
  C  203  1  0.38241800  0.16599900  0.58491800  1
  C  204  1  0.38446200  0.18423600  0.57632700  1
  C  205  1  0.36676600  0.20217500  0.58257500  1
  C  206  1  0.36870100  0.22025000  0.57661600  1
  C  207  1  0.38905500  0.22176300  0.56477000  1
  C  208  1  0.40733500  0.20484200  0.55912400  1
  C  209  1  0.40517300  0.18674500  0.56516300  1
  C  210  1  0.39758800  0.14339300  0.57104600  1
  C  211  1  0.35746600  0.15524400  0.58147800  1
  C  212  1  0.34164900  0.15322900  0.56340800  1
  C  213  1  0.31788500  0.14602900  0.56232900  1
  C  214  1  0.30902200  0.13950000  0.57874600  1
  C  215  1  0.32536300  0.13858000  0.59488700  1
  C  216  1  0.34914500  0.14575900  0.59580400  1
  C  217  1  0.40898700  0.13159800  0.58194000  1
  C  218  1  0.42087100  0.10949500  0.56849400  1
  C  219  1  0.42150300  0.09757600  0.54321300  1
  C  220  1  0.40969500  0.10886700  0.53215800  1
  C  221  1  0.39787800  0.13087500  0.54565400  1
  C  238  1  0.28511500  0.13430000  0.57942500  1
  C  239  1  0.40953000  0.24030800  0.67996300  1
  C  242  1  0.39024300  0.23912200  0.55833600  1
  C  244  1  0.43185000  0.07499500  0.52895600  1
  C  246  1  0.40271300  0.46811800  0.81410100  1
  C  247  1  0.42001600  0.46445200  0.82782100  1
  C  248  1  0.41343700  0.46015800  0.84639100  1
  C  249  1  0.38931300  0.45982500  0.85269700  1
  C  250  1  0.37220500  0.46387500  0.83888200  1
  C  251  1  0.37863500  0.46815300  0.82031900  1
  C  252  1  0.38233200  0.44973500  0.86889600  1
  C  253  1  0.38421600  0.42290200  0.85064100  1
  C  254  1  0.36626500  0.41123300  0.83298700  1
  C  255  1  0.36804100  0.38719500  0.81489400  1
  C  256  1  0.38849600  0.37382100  0.81302000  1
  C  257  1  0.40705000  0.38509000  0.82960100  1
  C  258  1  0.40502200  0.40922200  0.84775800  1
  C  259  1  0.39759500  0.45839100  0.89142700  1
  C  260  1  0.35744500  0.45718200  0.87978100  1
  C  261  1  0.34173100  0.44127500  0.88216900  1
  C  262  1  0.31796200  0.44740200  0.88935400  1
  C  263  1  0.30902800  0.47024300  0.89556900  1
  C  264  1  0.32529900  0.48722200  0.89620900  1
  C  265  1  0.34906600  0.48093500  0.88898200  1
  C  266  1  0.40875100  0.48120200  0.90336900  1
  C  267  1  0.42068600  0.48982800  0.92544100  1
  C  268  1  0.42153800  0.47634000  0.93722100  1
  C  269  1  0.40997400  0.45386500  0.92578600  1
  C  270  1  0.39813900  0.44536600  0.90378700  1
  C  287  1  0.28511300  0.47609300  0.90072600  1
  C  288  1  0.40945000  0.47036300  0.79451100  1
  C  291  1  0.38945900  0.35003200  0.79562600  1
  C  293  1  0.43189300  0.48463900  0.95979500  1
  C  295  1  0.03703000  0.22156600  0.56836700  1
  C  296  1  0.02007500  0.20569800  0.56895800  1
  C  297  1  0.02688100  0.18711000  0.57316500  1
  C  298  1  0.05100400  0.18293900  0.57642100  1
  C  299  1  0.06774800  0.19916000  0.57585600  1
  C  300  1  0.06111500  0.21766600  0.57160500  1
  C  301  1  0.05819700  0.16596500  0.58552100  1
  C  302  1  0.05706800  0.18371000  0.61253900  1
  C  303  1  0.07669600  0.19868600  0.62504700  1
  C  304  1  0.07527700  0.21681800  0.64908700  1
  C  305  1  0.05363900  0.22168400  0.66162200  1
  C  306  1  0.03353700  0.20791500  0.64947200  1
  C  307  1  0.03527000  0.18951300  0.62540800  1
  C  308  1  0.04264300  0.14366900  0.57688700  1
  C  309  1  0.08278300  0.15472300  0.57684800  1
  C  310  1  0.09777300  0.14886500  0.59088300  1
  C  311  1  0.12197700  0.14336800  0.58527700  1
  C  312  1  0.13191600  0.14199800  0.56450400  1
  C  313  1  0.11613100  0.14395700  0.54852800  1
  C  314  1  0.09201400  0.14956100  0.55431100  1
  C  315  1  0.03395300  0.13053000  0.55305600  1
  C  316  1  0.02120800  0.10890700  0.54451600  1
  C  317  1  0.01702200  0.09877500  0.55920500  1
  C  318  1  0.02649200  0.11123500  0.58265000  1
  C  319  1  0.03920400  0.13275800  0.59104700  1
  C  336  1  0.15633300  0.14041200  0.56012000  1
  C  337  1  0.02990200  0.24081900  0.56568900  1
  C  340  1  0.05298000  0.23972600  0.68521200  1
  C  342  1  0.00486000  0.07712600  0.55153500  1
  C  344  1  0.03700900  0.46649500  0.65726800  1
  C  345  1  0.02007300  0.46600900  0.64084400  1
  C  346  1  0.02688700  0.46180900  0.61805200  1
  C  347  1  0.05099800  0.45843300  0.61058800  1
  C  348  1  0.06771900  0.45886500  0.62732900  1
  C  349  1  0.06108500  0.46313300  0.65009000  1
  C  350  1  0.05820300  0.44936000  0.58452200  1
  C  351  1  0.05711800  0.42233500  0.57523900  1
  C  352  1  0.07679900  0.40979400  0.57755700  1
  C  353  1  0.07538500  0.38575700  0.57165800  1
  C  354  1  0.05372200  0.37325100  0.56411700  1
  C  355  1  0.03358100  0.38543000  0.56262600  1
  C  356  1  0.03529700  0.40949400  0.56828800  1
  C  357  1  0.04264700  0.45797600  0.57084400  1
  C  358  1  0.08277800  0.45807900  0.58198900  1
  C  359  1  0.09774200  0.44411800  0.56205000  1
  C  360  1  0.12193100  0.44974900  0.56212600  1
  C  361  1  0.13190000  0.47045200  0.58158600  1
  C  362  1  0.11614300  0.48637600  0.59959300  1
  C  363  1  0.09204000  0.48056500  0.59944500  1
  C  364  1  0.03404000  0.48183600  0.58152300  1
  C  365  1  0.02127700  0.49037500  0.56844900  1
  C  366  1  0.01699000  0.47565300  0.54365100  1
  C  367  1  0.02636800  0.45217000  0.53267900  1
  C  368  1  0.03907900  0.44376600  0.54579800  1
  C  385  1  0.15631900  0.47483900  0.58435400  1
  C  386  1  0.02987200  0.46917800  0.67919800  1
  C  389  1  0.05308300  0.34966500  0.55858400  1
  C  391  1  0.00482600  0.48332500  0.52967400  1
  C  393  1  0.03703200  0.37760300  0.81330000  1
  C  394  1  0.02010000  0.39401700  0.82925800  1
  C  395  1  0.02691500  0.41681700  0.84783300  1
  C  396  1  0.05102900  0.42427900  0.85191600  1
  C  397  1  0.06774800  0.40753400  0.83560900  1
  C  398  1  0.06110400  0.38478500  0.81710100  1
  C  399  1  0.05823500  0.45034400  0.86890400  1
  C  400  1  0.05714800  0.45962500  0.85116100  1
  C  401  1  0.07682700  0.45731000  0.83630400  1
  C  402  1  0.07541400  0.46321100  0.81816700  1
  C  403  1  0.05375100  0.47075200  0.81320100  1
  C  404  1  0.03361000  0.47224300  0.82687300  1
  C  405  1  0.03532500  0.46657100  0.84526800  1
  C  406  1  0.04267900  0.46402400  0.89119800  1
  C  407  1  0.08281200  0.45288300  0.88015500  1
  C  408  1  0.09776900  0.47282600  0.88613600  1
  C  409  1  0.12196400  0.47274500  0.89166800  1
  C  410  1  0.13193900  0.45330000  0.89293200  1
  C  411  1  0.11618800  0.43528600  0.89084600  1
  C  412  1  0.09208300  0.43542700  0.88518100  1
  C  413  1  0.03407700  0.45334600  0.90438300  1
  C  414  1  0.02130200  0.46641600  0.92598800  1
  C  415  1  0.01701300  0.49121300  0.93606300  1
  C  416  1  0.02637500  0.50218400  0.92354500  1
  C  417  1  0.03910600  0.48906800  0.90203100  1
  C  434  1  0.15636000  0.45053900  0.89455300  1
  C  435  1  0.02988800  0.35567400  0.79405100  1
  C  438  1  0.05311300  0.47628300  0.79514600  1
  C  440  1  0.00483000  0.50518500  0.95770000  1
  C  442  1  0.53704100  0.82213700  0.45750800  1
  C  443  1  0.52008200  0.83798600  0.45688900  1
  C  444  1  0.52689800  0.85659800  0.45272300  1
  C  445  1  0.55102500  0.86083600  0.44955000  1
  C  446  1  0.56776600  0.84462300  0.45014400  1
  C  447  1  0.56113300  0.82608800  0.45435200  1
  C  448  1  0.55821400  0.87778100  0.44042100  1
  C  449  1  0.55705200  0.86003400  0.41340600  1
  C  450  1  0.57661100  0.84495500  0.40087400  1
  C  451  1  0.57513900  0.82683500  0.37683100  1
  C  452  1  0.55350400  0.82210100  0.36431100  1
  C  453  1  0.53345900  0.83596500  0.37648400  1
  C  454  1  0.53524400  0.85432800  0.40055700  1
  C  455  1  0.54267900  0.90009100  0.44905900  1
  C  456  1  0.58281500  0.88899400  0.44905100  1
  C  457  1  0.59784900  0.89472100  0.43494900  1
  C  458  1  0.62203600  0.90027600  0.44058100  1
  C  459  1  0.63194600  0.90176900  0.46141900  1
  C  460  1  0.61614300  0.89986500  0.47741600  1
  C  461  1  0.59203400  0.89423000  0.47161500  1
  C  462  1  0.53394000  0.91319600  0.47287600  1
  C  463  1  0.52119600  0.93482000  0.48142600  1
  C  464  1  0.51708300  0.94500600  0.46677300  1
  C  465  1  0.52661000  0.93258800  0.44334800  1
  C  466  1  0.53931400  0.91106100  0.43494600  1
  C  483  1  0.65635800  0.90341100  0.46584700  1
  C  484  1  0.52990900  0.80284600  0.46012200  1
  C  487  1  0.55277600  0.80414500  0.34068600  1
  C  489  1  0.50491000  0.96665000  0.47444500  1
  C  491  1  0.53704300  0.57730500  0.36869200  1
  C  492  1  0.52007900  0.57795600  0.38517100  1
  C  493  1  0.52689200  0.58212600  0.40795200  1
  C  494  1  0.55102200  0.58527800  0.41535500  1
  C  495  1  0.56776400  0.58466400  0.39854000  1
  C  496  1  0.56113700  0.58042300  0.37578400  1
  C  497  1  0.55820500  0.59442100  0.44143500  1
  C  498  1  0.55701900  0.62143200  0.45069300  1
  C  499  1  0.57655200  0.63396900  0.44811100  1
  C  500  1  0.57506100  0.65801200  0.45404000  1
  C  501  1  0.55342800  0.67052600  0.46186800  1
  C  502  1  0.53340400  0.65835000  0.46359000  1
  C  503  1  0.53520700  0.63427500  0.45787100  1
  C  504  1  0.54267900  0.58577500  0.45510400  1
  C  505  1  0.58281400  0.58581600  0.44403300  1
  C  506  1  0.59785100  0.59995200  0.46384700  1
  C  507  1  0.62203600  0.59431900  0.46379100  1
  C  508  1  0.63195000  0.57348000  0.44445000  1
  C  509  1  0.61614500  0.55744700  0.42657600  1
  C  510  1  0.59203400  0.56324200  0.42673300  1
  C  511  1  0.53391900  0.56196500  0.44438800  1
  C  512  1  0.52118000  0.55341700  0.45746600  1
  C  513  1  0.51709200  0.56806100  0.48230900  1
  C  514  1  0.52664400  0.59147600  0.49332000  1
  C  515  1  0.53934200  0.59987900  0.48019400  1
  C  532  1  0.65636500  0.56907200  0.44165000  1
  C  533  1  0.52991100  0.57468700  0.34678600  1
  C  536  1  0.55268400  0.69415900  0.46757300  1
  C  538  1  0.50492000  0.56038900  0.49628200  1
  C  540  1  0.53706900  0.66620100  0.21266400  1
  C  541  1  0.52007900  0.64964600  0.19697000  1
  C  542  1  0.52688700  0.62686100  0.17836700  1
  C  543  1  0.55103600  0.61953400  0.17399400  1
  C  544  1  0.56781000  0.63643100  0.19003500  1
  C  545  1  0.56118100  0.65918200  0.20855600  1
  C  546  1  0.55818300  0.59344000  0.15707200  1
  C  547  1  0.55695500  0.58421700  0.17485300  1
  C  548  1  0.57642800  0.58702000  0.19011800  1
  C  549  1  0.57493500  0.58110200  0.20824000  1
  C  550  1  0.55336000  0.57304800  0.21276700  1
  C  551  1  0.53339200  0.57109800  0.19871300  1
  C  552  1  0.53519400  0.57681500  0.18035400  1
  C  553  1  0.54266500  0.57978100  0.13474700  1
  C  554  1  0.58280300  0.59078700  0.14587300  1
  C  555  1  0.59790100  0.57106800  0.14040900  1
  C  556  1  0.62208900  0.57115500  0.13487100  1
  C  557  1  0.63193900  0.59039300  0.13315000  1
  C  558  1  0.61607600  0.60813000  0.13476300  1
  C  559  1  0.59195000  0.60793700  0.14034800  1
  C  560  1  0.53374500  0.59053200  0.12174700  1
  C  561  1  0.52102200  0.57744200  0.10011200  1
  C  562  1  0.51708800  0.55256400  0.08982900  1
  C  563  1  0.52679800  0.54153000  0.10214500  1
  C  564  1  0.53949300  0.55466400  0.12367700  1
  C  581  1  0.65634700  0.59323900  0.13156000  1
  C  582  1  0.52995600  0.68810800  0.23195500  1
  C  585  1  0.55262900  0.56732900  0.23068100  1
  C  587  1  0.50492000  0.53858500  0.06818100  1
  C  589  1  0.89611600  0.57986600  0.31335400  1
  C  591  1  0.91790700  0.57566000  0.27964300  1
  C  592  1  0.89674700  0.57750800  0.26892300  1
  C  594  1  0.87487700  0.58197200  0.30278300  1
  C  596  1  0.85416600  0.58578900  0.31296300  1
  C  600  1  0.89621500  0.76425800  0.45495200  1
  C  602  1  0.91794000  0.73473600  0.45918200  1
  C  603  1  0.89675500  0.72220900  0.45735200  1
  C  605  1  0.87494800  0.75163100  0.45287300  1
  C  607  1  0.85425300  0.75804300  0.44907900  1
  C  611  1  0.89610500  0.72147600  0.27061600  1
  C  613  1  0.91789400  0.75509100  0.30025500  1
  C  614  1  0.89669000  0.76593900  0.31264300  1
  C  616  1  0.87481900  0.73217000  0.28310600  1
  C  618  1  0.85408300  0.72207900  0.27657700  1
  C  622  1  0.39594400  0.46382000  0.71257900  1
  C  624  1  0.41777900  0.46783000  0.74618300  1
  C  625  1  0.39658700  0.46633600  0.75707600  1
  C  627  1  0.37467500  0.46205700  0.72331100  1
  C  629  1  0.35392500  0.45854800  0.71325800  1
  C  633  1  0.39601300  0.27955100  0.57106300  1
  C  635  1  0.41782500  0.30910800  0.56697000  1
  C  636  1  0.39663100  0.32150800  0.56849900  1
  C  638  1  0.37473900  0.29204500  0.57283800  1
  C  640  1  0.35400000  0.28553700  0.57641800  1
  C  644  1  0.39610700  0.32225700  0.75535900  1
  C  646  1  0.41787700  0.28851700  0.72587000  1
  C  647  1  0.39671100  0.27780900  0.71330600  1
  C  649  1  0.37486000  0.31168800  0.74269700  1
  C  651  1  0.35415400  0.32188000  0.74907000  1
  C  655  1  0.04307700  0.27934100  0.71255000  1
  C  657  1  0.02142100  0.30845200  0.74666900  1
  C  658  1  0.04228100  0.32204200  0.75641300  1
  C  660  1  0.06397800  0.29314400  0.72213600  1
  C  662  1  0.08442800  0.28763100  0.71132900  1
  C  666  1  0.04316000  0.32229800  0.57082600  1
  C  668  1  0.02147100  0.28821900  0.56587900  1
  C  669  1  0.04234000  0.27842000  0.56963700  1
  C  671  1  0.06407400  0.31265400  0.57494700  1
  C  673  1  0.08454100  0.32342500  0.58020300  1
  C  677  1  0.04313900  0.46406500  0.75555700  1
  C  679  1  0.02144400  0.46903600  0.72644300  1
  C  680  1  0.04229300  0.46518100  0.71283000  1
  C  682  1  0.06402600  0.45984100  0.74173500  1
  C  684  1  0.08448800  0.45455600  0.74723300  1
  C  688  1  0.54313500  0.76442800  0.31343600  1
  C  690  1  0.52148000  0.73522300  0.27937900  1
  C  691  1  0.54238600  0.72173800  0.26955700  1
  C  693  1  0.56408800  0.75074300  0.30377400  1
  C  695  1  0.58456800  0.75636700  0.31451400  1
  C  699  1  0.54312500  0.72143700  0.45512000  1
  C  701  1  0.52142600  0.75540000  0.45978400  1
  C  702  1  0.54235900  0.76529900  0.45627600  1
  C  704  1  0.56410200  0.73117000  0.45123900  1
  C  706  1  0.58461300  0.72049100  0.44623900  1
  C  710  1  0.54310700  0.57976100  0.27041600  1
  C  712  1  0.52141800  0.57506000  0.29969700  1
  C  713  1  0.54235200  0.57856500  0.31310100  1
  C  715  1  0.56408300  0.58365100  0.28403500  1
  C  717  1  0.58459300  0.58864500  0.27834800  1
  C  721  1  0.74517400  0.58132600  0.45249400  1
  C  723  1  0.70957100  0.59302200  0.47605800  1
  C  724  1  0.69552300  0.58181600  0.45526300  1
  C  726  1  0.73104800  0.57047300  0.43155100  1
  C  728  1  0.73973000  0.56004000  0.41000600  1
  C  732  1  0.74516900  0.90189100  0.45355600  1
  C  734  1  0.70958000  0.91378500  0.44186600  1
  C  735  1  0.69552100  0.90423000  0.45309800  1
  C  737  1  0.73103200  0.89182200  0.46442100  1
  C  739  1  0.73970300  0.88071400  0.47486400  1
  C  743  1  0.74516900  0.58248900  0.13304300  1
  C  745  1  0.70959300  0.55888500  0.12109600  1
  C  746  1  0.69552300  0.57966700  0.13071000  1
  C  748  1  0.73102100  0.60341600  0.14316100  1
  C  750  1  0.73968200  0.62496800  0.15430900  1
  C  754  1  0.24511400  0.46247100  0.57360000  1
  C  756  1  0.20953400  0.45080200  0.54999800  1
  C  757  1  0.19546600  0.46203200  0.57078000  1
  C  759  1  0.23096800  0.47332600  0.59452800  1
  C  761  1  0.23962800  0.48374600  0.61608000  1
  C  765  1  0.24513300  0.14195500  0.57243900  1
  C  767  1  0.20955500  0.12995900  0.58404300  1
  C  768  1  0.19548700  0.13957600  0.57287600  1
  C  770  1  0.23098700  0.15209100  0.56164600  1
  C  772  1  0.23964800  0.16327000  0.55127300  1
  C  776  1  0.24515400  0.46139000  0.89307500  1
  C  778  1  0.20954800  0.48495100  0.90495000  1
  C  779  1  0.19550100  0.46415200  0.89536100  1
  C  781  1  0.23103200  0.44044600  0.88298700  1
  C  783  1  0.23971700  0.41890200  0.87188500  1
  C  787  1  0.95853400  0.53330700  0.50218500  1
  C  789  1  0.97393900  0.53653900  0.53848500  1
  C  790  1  0.98329400  0.51318700  0.52599300  1
  C  792  1  0.96822400  0.50986500  0.48949800  1
  C  794  1  0.96753900  0.49633700  0.46641200  1
  C  798  1  0.98331000  0.04359300  0.52168200  1
  C  802  1  0.95858300  0.53266500  0.03519200  1
  C  804  1  0.97402800  0.49637600  0.00214300  1
  C  805  1  0.98332700  0.50886500  0.99125700  1
  C  807  1  0.96819800  0.54534800  0.02440200  1
  C  809  1  0.96745300  0.56842900  0.03392900  1
  C  813  1  0.45857800  0.51041100  0.52373600  1
  C  815  1  0.47398800  0.50718900  0.48744400  1
  C  816  1  0.48334300  0.53054200  0.49994500  1
  C  818  1  0.46826500  0.53385100  0.53643200  1
  C  820  1  0.46752900  0.54739000  0.55951500  1
  C  824  1  0.45861000  0.04411000  0.52444300  1
  C  825  1  0.46746200  0.04284600  0.48741400  1
  C  829  1  0.45853100  0.51110900  0.99076500  1
  C  831  1  0.47388500  0.54741800  0.02386400  1
  C  832  1  0.48329100  0.53491600  0.03469300  1
  C  834  1  0.46825900  0.49841700  0.00149800  1
  C  836  1  0.46761300  0.47532700  0.99191700  1
  C  840  1  0.95852900  0.99967800  0.50156900  1
  C  842  1  0.97395000  0.03273700  0.49833000  1
  C  844  1  0.96823600  0.01042100  0.52500200  1
  C  845  1  0.96751400  0.00088000  0.53854300  1
  C  848  1  0.47405500  0.01105700  0.52767700  1
  C  849  1  0.48336800  0.00018200  0.50430900  1
  C  851  1  0.46824200  0.03333000  0.50097600  1
  N  590  1  0.91678900  0.57714500  0.30137100  1
  N  593  1  0.87621700  0.58078000  0.28122300  1
  N  597  1  0.83594200  0.58920200  0.32207600  1
  N  598  1  0.89698300  0.58238200  0.33505300  1
  N  599  1  0.89499500  0.57749500  0.24842200  1
  N  601  1  0.91686500  0.75497900  0.45769700  1
  N  604  1  0.87624500  0.73126600  0.45407600  1
  N  608  1  0.83604100  0.76378300  0.44568800  1
  N  609  1  0.89712000  0.78347100  0.45249500  1
  N  610  1  0.89497200  0.70171700  0.45735500  1
  N  612  1  0.91679500  0.73335200  0.28002800  1
  N  615  1  0.87613800  0.75373400  0.30347300  1
  N  619  1  0.83583800  0.71304400  0.27073000  1
  N  620  1  0.89696300  0.69976100  0.25147100  1
  N  621  1  0.89492200  0.78643000  0.33314100  1
  N  623  1  0.41665300  0.46628400  0.72443100  1
  N  626  1  0.37601800  0.46330400  0.74489600  1
  N  630  1  0.33567200  0.45540700  0.70424600  1
  N  631  1  0.39672000  0.46115300  0.69082700  1
  N  632  1  0.39483700  0.46635400  0.77757900  1
  N  634  1  0.41671000  0.28890700  0.56852900  1
  N  637  1  0.37607300  0.31237800  0.57157900  1
  N  641  1  0.33575700  0.27969900  0.57962300  1
  N  642  1  0.39680500  0.26044600  0.57370000  1
  N  643  1  0.39487500  0.34198500  0.56846400  1
  N  645  1  0.41677000  0.31025300  0.74610200  1
  N  648  1  0.37618600  0.29012300  0.72233700  1
  N  652  1  0.33593500  0.33099900  0.75477400  1
  N  653  1  0.39699000  0.34394900  0.77455400  1
  N  654  1  0.39495300  0.25730500  0.69281800  1
  N  656  1  0.02261100  0.28789400  0.72520600  1
  N  659  1  0.06256400  0.31373400  0.74347300  1
  N  663  1  0.10244300  0.28270100  0.70171700  1
  N  664  1  0.04214300  0.25948700  0.69131100  1
  N  665  1  0.04403000  0.34271000  0.77667000  1
  N  667  1  0.02267300  0.30968900  0.56680100  1
  N  670  1  0.06264200  0.29131900  0.57420400  1
  N  674  1  0.10257100  0.33301100  0.58485300  1
  N  675  1  0.04224200  0.34354900  0.57223200  1
  N  676  1  0.04407600  0.25816500  0.57005100  1
  N  678  1  0.02265900  0.46813900  0.74700300  1
  N  681  1  0.06258900  0.46056900  0.72113500  1
  N  685  1  0.10251400  0.44987900  0.75215300  1
  N  686  1  0.04222100  0.46266700  0.77540600  1
  N  687  1  0.04402300  0.46477100  0.69216300  1
  N  689  1  0.52265200  0.75577900  0.30084300  1
  N  692  1  0.56269400  0.73015000  0.28243400  1
  N  696  1  0.60261400  0.76139400  0.32407100  1
  N  697  1  0.54217800  0.78428800  0.33466600  1
  N  698  1  0.54415100  0.70109000  0.24927800  1
  N  700  1  0.52260700  0.73394100  0.45888300  1
  N  703  1  0.56269800  0.75249500  0.45195500  1
  N  707  1  0.60268300  0.71098800  0.44181200  1
  N  708  1  0.54216400  0.70018600  0.45370200  1
  N  709  1  0.54411700  0.78555500  0.45586400  1
  N  711  1  0.52259300  0.57597500  0.27914500  1
  N  714  1  0.56268700  0.58290600  0.30462800  1
  N  718  1  0.60266300  0.59306700  0.27326800  1
  N  719  1  0.54214800  0.58120900  0.25059900  1
  N  720  1  0.54411600  0.57895600  0.33375900  1
  N  722  1  0.73360300  0.59226700  0.47389500  1
  N  725  1  0.70703900  0.57124300  0.43386400  1
  N  729  1  0.74736900  0.55091500  0.39098400  1
  N  730  1  0.76878300  0.58144500  0.45116800  1
  N  731  1  0.67195700  0.58310600  0.45674600  1
  N  733  1  0.73361000  0.91235500  0.44261300  1
  N  736  1  0.70702500  0.89339000  0.46366400  1
  N  740  1  0.74733200  0.87082200  0.48399700  1
  N  741  1  0.76877600  0.90043000  0.45343600  1
  N  742  1  0.67195500  0.90440900  0.45178300  1
  N  744  1  0.73362100  0.56107300  0.12253000  1
  N  747  1  0.70701400  0.60107900  0.14158700  1
  N  751  1  0.74730300  0.64399700  0.16423600  1
  N  752  1  0.76877400  0.58383800  0.13451000  1
  N  753  1  0.67195800  0.57815200  0.13048400  1
  N  755  1  0.23356600  0.45154000  0.55218500  1
  N  758  1  0.20696200  0.47257800  0.59219100  1
  N  762  1  0.24725200  0.49286200  0.63511000  1
  N  763  1  0.26871700  0.46235200  0.57495900  1
  N  764  1  0.17189800  0.46074600  0.56928600  1
  N  766  1  0.23358500  0.13141000  0.58330900  1
  N  769  1  0.20698200  0.15049700  0.56238800  1
  N  773  1  0.24727100  0.17322400  0.54219900  1
  N  774  1  0.26874000  0.14341900  0.57255000  1
  N  775  1  0.17192100  0.13935600  0.57416100  1
  N  777  1  0.23358200  0.48279100  0.90354000  1
  N  780  1  0.20702300  0.44275500  0.88453500  1
  N  784  1  0.24735800  0.39988100  0.86199600  1
  N  785  1  0.26876500  0.46006500  0.89164200  1
  N  786  1  0.17193300  0.46562400  0.89555700  1
  N  788  1  0.96225300  0.54552900  0.52623900  1
  N  791  1  0.98001500  0.50106800  0.50185600  1
  N  795  1  0.96698000  0.48428100  0.44601100  1
  N  796  1  0.94718800  0.54510700  0.49286500  1
  N  797  1  0.99515700  0.50407900  0.53765400  1
  N  800  1  0.94717900  0.97856100  0.48977300  1
  N  801  1  0.99517100  0.06436300  0.53079100  1
  N  803  1  0.96233900  0.50861800  0.02337800  1
  N  806  1  0.97999200  0.53299400  0.00324800  1
  N  810  1  0.96684100  0.58882700  0.04225000  1
  N  811  1  0.94721400  0.54198500  0.05630000  1
  N  812  1  0.99519800  0.49720900  0.97049200  1
  N  814  1  0.46229400  0.49819400  0.49968100  1
  N  817  1  0.48005200  0.54265700  0.52408000  1
  N  821  1  0.46692700  0.55945500  0.57991600  1
  N  822  1  0.44720200  0.49861900  0.53304700  1
  N  823  1  0.49521200  0.53965100  0.48829000  1
  N  826  1  0.46681900  0.05115800  0.47533000  1
  N  827  1  0.44723600  0.06521400  0.53622900  1
  N  828  1  0.49523200  0.97941300  0.49519500  1
  N  830  1  0.46220200  0.53517200  0.00262700  1
  N  833  1  0.48005200  0.51077500  0.02265200  1
  N  837  1  0.46708700  0.45492100  0.98355000  1
  N  838  1  0.44717000  0.50179100  0.96965400  1
  N  839  1  0.49516100  0.54657800  0.05545800  1
  N  841  1  0.96225300  0.01150900  0.48934600  1
  N  843  1  0.98002400  0.03157700  0.53380200  1
  N  846  1  0.96692100  0.99254700  0.55061200  1
  N  847  1  0.46236000  0.03229000  0.53667200  1
  N  850  1  0.48003100  0.01217200  0.49217100  1
