# generated using pymatgen
data_H19C29N6O
_symmetry_space_group_name_H-M   'P 1'
_cell_length_a   29.59860000
_cell_length_b   69.13685000
_cell_length_c   69.13680000
_cell_angle_alpha   119.99992823
_cell_angle_beta   89.99960000
_cell_angle_gamma   89.99299999
_symmetry_Int_Tables_number   1
_chemical_formula_structural   H19C29N6O
_chemical_formula_sum   'H684 C1044 N216 O36'
_cell_volume   122523.94553007
_cell_formula_units_Z   36
loop_
 _symmetry_equiv_pos_site_id
 _symmetry_equiv_pos_as_xyz
  1  'x, y, z'
loop_
 _atom_site_type_symbol
 _atom_site_label
 _atom_site_symmetry_multiplicity
 _atom_site_fract_x
 _atom_site_fract_y
 _atom_site_fract_z
 _atom_site_occupancy
  H  4  1  0.71313500  0.96613400  0.29754600  1
  H  10  1  0.84514400  0.97706900  0.71025400  1
  H  11  1  0.87615900  0.97997600  0.69000600  1
  H  15  1  0.37980100  0.96613500  0.29754600  1
  H  21  1  0.51181400  0.97706600  0.71025200  1
  H  22  1  0.54283300  0.97997500  0.69000500  1
  H  26  1  0.04646800  0.96613400  0.29754600  1
  H  32  1  0.17847800  0.97706900  0.71025400  1
  H  33  1  0.20949300  0.97997700  0.69000600  1
  H  82  1  0.92909700  0.86523100  0.23634300  1
  H  83  1  0.91985900  0.82553100  0.21853400  1
  H  84  1  0.73651500  0.85645400  0.22571500  1
  H  85  1  0.72705900  0.81699000  0.20808900  1
  H  86  1  0.98701200  0.79796400  0.16497800  1
  H  87  1  0.98637200  0.76140200  0.12804900  1
  H  88  1  0.98254200  0.74685300  0.17837200  1
  H  89  1  0.99085300  0.72690400  0.19776800  1
  H  90  1  0.98711200  0.82105500  0.25208000  1
  H  91  1  0.98596300  0.79935400  0.27276100  1
  H  92  1  0.90786300  0.76044700  0.26876100  1
  H  93  1  0.89916900  0.76491600  0.30507000  1
  H  94  1  0.71544700  0.75386200  0.27253800  1
  H  95  1  0.70711800  0.75835100  0.30898400  1
  H  96  1  0.97508000  0.71234900  0.24785600  1
  H  97  1  0.97580100  0.67603200  0.21123000  1
  H  98  1  0.98094200  0.67386500  0.10351900  1
  H  99  1  0.98262700  0.65259200  0.12454400  1
  H  100  1  0.71664000  0.65355600  0.17345200  1
  H  101  1  0.70972300  0.61612400  0.16663500  1
  H  102  1  0.91166900  0.65366300  0.15871200  1
  H  103  1  0.90457000  0.61627600  0.15172900  1
  H  104  1  0.91120400  0.72306300  0.10884200  1
  H  105  1  0.90258800  0.70867000  0.06969500  1
  H  106  1  0.70648500  0.68942600  0.05973400  1
  H  107  1  0.71497000  0.70412400  0.09910800  1
  H  112  1  0.94321600  0.58142500  0.14429700  1
  H  113  1  0.93078700  0.76584600  0.33750200  1
  H  114  1  0.03846400  0.89319900  0.25193800  1
  H  115  1  0.93616700  0.69358700  0.03273800  1
  H  164  1  0.92900900  0.29278200  0.05988000  1
  H  165  1  0.91975600  0.31464900  0.09957500  1
  H  166  1  0.73647700  0.29109700  0.06864700  1
  H  167  1  0.72697900  0.31291400  0.10811200  1
  H  168  1  0.98720000  0.28875000  0.12715200  1
  H  169  1  0.98658200  0.28838800  0.16371800  1
  H  170  1  0.98221200  0.35325000  0.17825400  1
  H  171  1  0.99071000  0.39259000  0.19819500  1
  H  172  1  0.98679200  0.35275400  0.10405000  1
  H  173  1  0.98563600  0.39513600  0.12574700  1
  H  174  1  0.90771100  0.43006200  0.16466600  1
  H  175  1  0.89904600  0.46189900  0.16018100  1
  H  176  1  0.71530900  0.44037400  0.17120500  1
  H  177  1  0.70700700  0.47232500  0.16670500  1
  H  178  1  0.97510700  0.45724500  0.21275800  1
  H  179  1  0.97595900  0.45694300  0.24907500  1
  H  180  1  0.98088200  0.35139500  0.25124900  1
  H  181  1  0.98264500  0.39369500  0.27251900  1
  H  182  1  0.71666700  0.44160100  0.27156000  1
  H  183  1  0.70973000  0.47222100  0.30898600  1
  H  184  1  0.91166200  0.42681400  0.27143000  1
  H  185  1  0.90454100  0.45722500  0.30881400  1
  H  186  1  0.91112400  0.30748500  0.20202600  1
  H  187  1  0.90255800  0.28271500  0.21640400  1
  H  188  1  0.70643500  0.29205100  0.23568100  1
  H  189  1  0.71487300  0.31674000  0.22099500  1
  H  194  1  0.94314600  0.48464500  0.34366800  1
  H  195  1  0.93070200  0.49336100  0.15919500  1
  H  196  1  0.03841000  0.28046700  0.03188600  1
  H  197  1  0.93616100  0.26086500  0.23150600  1
  H  246  1  0.92911600  0.68885500  0.63234900  1
  H  247  1  0.91984900  0.70664300  0.61043900  1
  H  248  1  0.73692700  0.69975700  0.63423900  1
  H  249  1  0.72710200  0.71721600  0.61227500  1
  H  250  1  0.98726400  0.76014100  0.63635900  1
  H  251  1  0.98668700  0.79706700  0.63672000  1
  H  252  1  0.98238600  0.74674300  0.57185900  1
  H  253  1  0.99079900  0.72734500  0.53252000  1
  H  254  1  0.98691400  0.67303500  0.57235800  1
  H  255  1  0.98581500  0.65235000  0.52997600  1
  H  256  1  0.90787200  0.65636700  0.49506900  1
  H  257  1  0.89914900  0.62006400  0.46322000  1
  H  258  1  0.71543500  0.65254100  0.48466800  1
  H  259  1  0.70709000  0.61609900  0.45271800  1
  H  260  1  0.97530900  0.67724800  0.46786100  1
  H  261  1  0.97607900  0.71386600  0.46816300  1
  H  262  1  0.98105900  0.82159400  0.57371400  1
  H  263  1  0.98276900  0.80056200  0.53141400  1
  H  264  1  0.71674700  0.75168700  0.48350000  1
  H  265  1  0.70984900  0.75851400  0.45289200  1
  H  266  1  0.91174700  0.76639000  0.49830800  1
  H  267  1  0.90467400  0.77339100  0.46791200  1
  H  268  1  0.91127200  0.81627700  0.61762900  1
  H  269  1  0.90268900  0.85542700  0.64240400  1
  H  270  1  0.70656000  0.86534800  0.63305000  1
  H  271  1  0.71500500  0.82597300  0.60836400  1
  H  276  1  0.94335400  0.78084800  0.44051900  1
  H  277  1  0.93074000  0.58763700  0.43170100  1
  H  278  1  0.03853200  0.67323100  0.64470500  1
  H  279  1  0.93629000  0.89237600  0.66426100  1
  H  328  1  0.92907200  0.03266200  0.71601400  1
  H  329  1  0.91979200  0.07235700  0.73381300  1
  H  330  1  0.73649300  0.04144500  0.72659500  1
  H  331  1  0.72700000  0.08090800  0.74421000  1
  H  332  1  0.98709400  0.09993700  0.78735300  1
  H  333  1  0.98647900  0.13650300  0.82428000  1
  H  334  1  0.98235800  0.15104100  0.77395300  1
  H  335  1  0.99060200  0.17098000  0.75455300  1
  H  336  1  0.98687800  0.07683600  0.70024800  1
  H  337  1  0.98567000  0.09853100  0.67956200  1
  H  338  1  0.90765600  0.13748200  0.68356900  1
  H  339  1  0.89897900  0.13303200  0.64726700  1
  H  340  1  0.71525200  0.14400900  0.67978000  1
  H  341  1  0.70693700  0.13954300  0.64334500  1
  H  342  1  0.97506100  0.18554300  0.70445800  1
  H  343  1  0.97590900  0.22186100  0.74107500  1
  H  344  1  0.98078600  0.22403600  0.84880000  1
  H  345  1  0.98248200  0.24530400  0.82777000  1
  H  346  1  0.71656700  0.24434700  0.77888300  1
  H  347  1  0.70961300  0.28177500  0.78569900  1
  H  348  1  0.91157900  0.24421100  0.79357200  1
  H  349  1  0.90444000  0.28160000  0.80055700  1
  H  350  1  0.91115300  0.17480100  0.84347500  1
  H  351  1  0.90255700  0.18917800  0.88262500  1
  H  352  1  0.70641700  0.20848300  0.89258300  1
  H  353  1  0.71488400  0.19379900  0.85320900  1
  H  358  1  0.94305500  0.31646000  0.80800500  1
  H  359  1  0.93059900  0.13216600  0.61486900  1
  H  360  1  0.03846700  0.00469600  0.70039000  1
  H  361  1  0.93613300  0.20429400  0.91958500  1
  H  410  1  0.92898700  0.60505300  0.89244500  1
  H  411  1  0.91973100  0.58316700  0.85274600  1
  H  412  1  0.73641100  0.60688300  0.88367600  1
  H  413  1  0.72693500  0.58503700  0.84421300  1
  H  414  1  0.98690400  0.60914700  0.82517600  1
  H  415  1  0.98627700  0.60951700  0.78861500  1
  H  416  1  0.98239700  0.54464400  0.77406300  1
  H  417  1  0.99067100  0.50530000  0.75411300  1
  H  418  1  0.98694900  0.54513200  0.84826200  1
  H  419  1  0.98576900  0.50275000  0.82655800  1
  H  420  1  0.90765100  0.46785400  0.78764800  1
  H  421  1  0.89894500  0.43601300  0.79211500  1
  H  422  1  0.71523000  0.45746700  0.78107300  1
  H  423  1  0.70688900  0.42550900  0.78555800  1
  H  424  1  0.97485600  0.44065700  0.73955300  1
  H  425  1  0.97559000  0.44096800  0.70323700  1
  H  426  1  0.98082800  0.54651600  0.70107800  1
  H  427  1  0.98248000  0.50421600  0.67980200  1
  H  428  1  0.71645400  0.45626000  0.68077600  1
  H  429  1  0.70953800  0.42564800  0.64334500  1
  H  430  1  0.91149500  0.47112300  0.68086500  1
  H  431  1  0.90439600  0.44071800  0.64347800  1
  H  432  1  0.91110700  0.59039700  0.75026600  1
  H  433  1  0.90252700  0.61515200  0.73587100  1
  H  434  1  0.70634900  0.60562000  0.71641500  1
  H  435  1  0.71500600  0.58120300  0.73139800  1
  H  440  1  0.94302800  0.41328600  0.60863400  1
  H  441  1  0.93055100  0.40450300  0.79303900  1
  H  442  1  0.03836600  0.61740100  0.92040500  1
  H  443  1  0.93611900  0.63700800  0.72077700  1
  H  492  1  0.92903600  0.20906200  0.31998900  1
  H  493  1  0.91977600  0.19123400  0.34185500  1
  H  494  1  0.73650300  0.19860800  0.31831900  1
  H  495  1  0.72700000  0.18096000  0.34013500  1
  H  496  1  0.98722400  0.13775700  0.31596400  1
  H  497  1  0.98661600  0.10082900  0.31560100  1
  H  498  1  0.98223700  0.15115400  0.38046300  1
  H  499  1  0.99074700  0.17055400  0.41980300  1
  H  500  1  0.98679600  0.22486300  0.37996600  1
  H  501  1  0.98564100  0.24554700  0.42234700  1
  H  502  1  0.90769700  0.24153900  0.45725500  1
  H  503  1  0.89898800  0.27785700  0.48909000  1
  H  504  1  0.71528700  0.24534200  0.46760500  1
  H  505  1  0.70694100  0.28179200  0.49955400  1
  H  506  1  0.97507400  0.22064400  0.48445600  1
  H  507  1  0.97592400  0.18402500  0.48415300  1
  H  508  1  0.98094500  0.07630400  0.37860700  1
  H  509  1  0.98269800  0.09733400  0.42090700  1
  H  510  1  0.71667000  0.14622100  0.46883600  1
  H  511  1  0.70973000  0.13941700  0.49945700  1
  H  512  1  0.91168700  0.13152300  0.45401000  1
  H  513  1  0.90456500  0.12454900  0.48441900  1
  H  514  1  0.91116200  0.08161800  0.33469900  1
  H  515  1  0.90260100  0.04247100  0.30992500  1
  H  516  1  0.70648400  0.03252900  0.31926100  1
  H  517  1  0.71491700  0.07190300  0.34395200  1
  H  522  1  0.94316500  0.11713200  0.51185300  1
  H  523  1  0.93060300  0.31031200  0.52056600  1
  H  524  1  0.03844400  0.22473800  0.30768300  1
  H  525  1  0.93620600  0.00551900  0.28807300  1
  H  532  1  0.72986800  0.76203300  0.36708900  1
  H  535  1  0.84633300  0.77468300  0.41154300  1
  H  536  1  0.86846100  0.77874800  0.39010400  1
  H  537  1  0.89145700  0.79363500  0.41762800  1
  H  546  1  0.72976700  0.52680600  0.16310600  1
  H  549  1  0.84621600  0.55855500  0.15038400  1
  H  550  1  0.86839900  0.53304700  0.14628800  1
  H  551  1  0.89138100  0.54573000  0.13144100  1
  H  560  1  0.72981300  0.55798400  0.39829500  1
  H  563  1  0.84620400  0.51365300  0.36652400  1
  H  564  1  0.86838600  0.53506200  0.39203100  1
  H  565  1  0.89132200  0.50752100  0.37936200  1
  H  574  1  0.72972200  0.13582000  0.58521500  1
  H  577  1  0.84617000  0.12335700  0.54084700  1
  H  578  1  0.86827900  0.11928900  0.56228800  1
  H  579  1  0.89125200  0.10437700  0.53475900  1
  H  588  1  0.72962700  0.37108700  0.78923800  1
  H  591  1  0.84607900  0.33930100  0.80186400  1
  H  592  1  0.86821500  0.36480700  0.80593800  1
  H  593  1  0.89120200  0.35216100  0.82082000  1
  H  602  1  0.72964400  0.33988000  0.55402300  1
  H  605  1  0.84605900  0.38431200  0.58574900  1
  H  606  1  0.86825700  0.36290300  0.56024200  1
  H  607  1  0.89121500  0.39043700  0.57292800  1
  H  615  1  0.84514100  0.92082100  0.24205900  1
  H  616  1  0.85965100  0.94494100  0.26748300  1
  H  617  1  0.87615600  0.91791200  0.26230700  1
  H  626  1  0.71304400  0.25315200  0.95895600  1
  H  629  1  0.84506700  0.24301200  0.00430500  1
  H  630  1  0.85957900  0.24429000  0.98017000  1
  H  631  1  0.87608200  0.26615700  0.00718800  1
  H  640  1  0.71792900  0.63084900  0.67534100  1
  H  643  1  0.84507100  0.68295600  0.68201100  1
  H  644  1  0.85963900  0.65755200  0.68073800  1
  H  645  1  0.87618700  0.66272100  0.65888700  1
  H  651  1  0.71318600  0.93175400  0.65477900  1
  H  652  1  0.85967600  0.95294700  0.68483400  1
  H  661  1  0.71306900  0.64472600  0.99335100  1
  H  664  1  0.84507800  0.65495700  0.94805300  1
  H  665  1  0.85959100  0.65365000  0.97217200  1
  H  666  1  0.87606600  0.63179100  0.94514100  1
  H  675  1  0.71308000  0.27035200  0.28036600  1
  H  678  1  0.84509700  0.21487800  0.27022600  1
  H  679  1  0.85961200  0.24028800  0.27150200  1
  H  680  1  0.87611600  0.23513600  0.29337100  1
  H  731  1  0.59576400  0.86523200  0.23634300  1
  H  732  1  0.58652700  0.82553200  0.21853600  1
  H  733  1  0.40318100  0.85645400  0.22571400  1
  H  734  1  0.39372400  0.81698900  0.20808900  1
  H  735  1  0.65367900  0.79796600  0.16498100  1
  H  736  1  0.65304100  0.76140300  0.12805200  1
  H  737  1  0.64921000  0.74685500  0.17837500  1
  H  738  1  0.65752100  0.72690500  0.19776900  1
  H  739  1  0.65377700  0.82105500  0.25208200  1
  H  740  1  0.65263200  0.79935500  0.27276300  1
  H  741  1  0.57453000  0.76044800  0.26876100  1
  H  742  1  0.56583400  0.76491600  0.30507100  1
  H  743  1  0.38211600  0.75386100  0.27253800  1
  H  744  1  0.37378400  0.75835100  0.30898300  1
  H  745  1  0.64174600  0.71234900  0.24785700  1
  H  746  1  0.64246900  0.67603200  0.21123100  1
  H  747  1  0.64760800  0.67386700  0.10352100  1
  H  748  1  0.64929400  0.65259300  0.12454600  1
  H  749  1  0.38330500  0.65355600  0.17345100  1
  H  750  1  0.37638900  0.61612500  0.16663500  1
  H  751  1  0.57833800  0.65366300  0.15871300  1
  H  752  1  0.57123600  0.61627500  0.15172900  1
  H  753  1  0.57786800  0.72306500  0.10885000  1
  H  754  1  0.56925000  0.70867500  0.06970300  1
  H  755  1  0.37315600  0.68941800  0.05972900  1
  H  756  1  0.38163900  0.70411800  0.09910300  1
  H  761  1  0.60988300  0.58142500  0.14429600  1
  H  762  1  0.59745400  0.76584600  0.33750300  1
  H  763  1  0.70513200  0.89320000  0.25193700  1
  H  764  1  0.60282900  0.69359600  0.03274600  1
  H  813  1  0.59567700  0.29277900  0.05987700  1
  H  814  1  0.58642300  0.31464900  0.09957400  1
  H  815  1  0.40314400  0.29109800  0.06864900  1
  H  816  1  0.39364700  0.31291500  0.10811200  1
  H  817  1  0.65386500  0.28874900  0.12715000  1
  H  818  1  0.65325000  0.28838700  0.16371600  1
  H  819  1  0.64887800  0.35324900  0.17825400  1
  H  820  1  0.65737500  0.39258800  0.19819200  1
  H  821  1  0.65346000  0.35275300  0.10404800  1
  H  822  1  0.65230400  0.39513500  0.12574500  1
  H  823  1  0.57437800  0.43006100  0.16466400  1
  H  824  1  0.56571200  0.46189800  0.16018100  1
  H  825  1  0.38197700  0.44037500  0.17120700  1
  H  826  1  0.37367600  0.47232600  0.16670600  1
  H  827  1  0.64177300  0.45724400  0.21275800  1
  H  828  1  0.64262500  0.45694100  0.24907300  1
  H  829  1  0.64755100  0.35139200  0.25124700  1
  H  830  1  0.64931100  0.39369300  0.27251600  1
  H  831  1  0.38333500  0.44160700  0.27156400  1
  H  832  1  0.37639600  0.47222800  0.30898900  1
  H  833  1  0.57832400  0.42681100  0.27142500  1
  H  834  1  0.57120600  0.45722000  0.30881000  1
  H  835  1  0.57779100  0.30748500  0.20202500  1
  H  836  1  0.56922600  0.28271400  0.21640400  1
  H  837  1  0.37310200  0.29205300  0.23568300  1
  H  838  1  0.38154100  0.31674200  0.22099800  1
  H  843  1  0.60981900  0.48463500  0.34366500  1
  H  844  1  0.59736900  0.49336200  0.15919600  1
  H  845  1  0.70507700  0.28046600  0.03188500  1
  H  846  1  0.60282900  0.26086400  0.23150600  1
  H  895  1  0.59631800  0.68867400  0.63228600  1
  H  896  1  0.58673000  0.70633700  0.61028500  1
  H  897  1  0.40323500  0.69936300  0.63406800  1
  H  898  1  0.39373800  0.71697300  0.61221000  1
  H  899  1  0.65390900  0.76008900  0.63632300  1
  H  900  1  0.65335200  0.79702700  0.63670600  1
  H  901  1  0.64896600  0.74672300  0.57183500  1
  H  902  1  0.65745700  0.72733800  0.53250000  1
  H  903  1  0.65362500  0.67299000  0.57229100  1
  H  904  1  0.65252700  0.65232400  0.52991400  1
  H  905  1  0.57451700  0.65635700  0.49503300  1
  H  906  1  0.56580700  0.62004400  0.46319800  1
  H  907  1  0.38212200  0.65254200  0.48470300  1
  H  908  1  0.37376400  0.61610900  0.45273900  1
  H  909  1  0.64195600  0.67725900  0.46783100  1
  H  910  1  0.64274300  0.71388700  0.46815200  1
  H  911  1  0.64771300  0.82159100  0.57372500  1
  H  912  1  0.64943900  0.80057100  0.53142500  1
  H  913  1  0.38341000  0.75167200  0.48349600  1
  H  914  1  0.37651400  0.75850300  0.45289000  1
  H  915  1  0.57841600  0.76640000  0.49830900  1
  H  916  1  0.57134100  0.77339800  0.46791200  1
  H  917  1  0.57792900  0.81626700  0.61763800  1
  H  918  1  0.56935800  0.85541800  0.64240900  1
  H  919  1  0.37323000  0.86536600  0.63305700  1
  H  920  1  0.38168300  0.82599200  0.60836700  1
  H  925  1  0.61002200  0.78085400  0.44051800  1
  H  926  1  0.59741300  0.58761100  0.43169400  1
  H  927  1  0.70669400  0.67476400  0.64622500  1
  H  928  1  0.60295700  0.89236700  0.66425600  1
  H  977  1  0.59573700  0.03265900  0.71601200  1
  H  978  1  0.58646000  0.07235200  0.73381000  1
  H  979  1  0.40316100  0.04145000  0.72659700  1
  H  980  1  0.39366700  0.08091300  0.74421200  1
  H  981  1  0.65376000  0.09993500  0.78735200  1
  H  982  1  0.65314600  0.13650000  0.82427900  1
  H  983  1  0.64902400  0.15103700  0.77395200  1
  H  984  1  0.65726700  0.17097700  0.75455300  1
  H  985  1  0.65354400  0.07683400  0.70024600  1
  H  986  1  0.65233500  0.09852900  0.67956100  1
  H  987  1  0.57432400  0.13748000  0.68356800  1
  H  988  1  0.56564500  0.13303100  0.64726700  1
  H  989  1  0.38192000  0.14401100  0.67978100  1
  H  990  1  0.37360500  0.13954300  0.64334400  1
  H  991  1  0.64172900  0.18554000  0.70445800  1
  H  992  1  0.64257400  0.22185800  0.74107500  1
  H  993  1  0.64745300  0.22403300  0.84880000  1
  H  994  1  0.64914900  0.24530100  0.82776900  1
  H  995  1  0.38323400  0.24435000  0.77888000  1
  H  996  1  0.37627800  0.28177900  0.78569500  1
  H  997  1  0.57824300  0.24420700  0.79357000  1
  H  998  1  0.57110400  0.28159600  0.80055700  1
  H  999  1  0.57782100  0.17480100  0.84347600  1
  H  1000  1  0.56922300  0.18917700  0.88262500  1
  H  1001  1  0.37308500  0.20848400  0.89258400  1
  H  1002  1  0.38155100  0.19380000  0.85320900  1
  H  1007  1  0.60972800  0.31645700  0.80801000  1
  H  1008  1  0.59726400  0.13216600  0.61486800  1
  H  1009  1  0.70513100  0.00469000  0.70038700  1
  H  1010  1  0.60279900  0.20429300  0.91958500  1
  H  1059  1  0.59566300  0.60504800  0.89246700  1
  H  1060  1  0.58640600  0.58315000  0.85276800  1
  H  1061  1  0.40307300  0.60688000  0.88365700  1
  H  1062  1  0.39359600  0.58504600  0.84419400  1
  H  1063  1  0.65357100  0.60913800  0.82520800  1
  H  1064  1  0.65301400  0.60951200  0.78864800  1
  H  1065  1  0.64916600  0.54463700  0.77408700  1
  H  1066  1  0.65732800  0.50528800  0.75412300  1
  H  1067  1  0.65361200  0.54511100  0.84827700  1
  H  1068  1  0.65242600  0.50272900  0.82656500  1
  H  1069  1  0.57431100  0.46784100  0.78764900  1
  H  1070  1  0.56560800  0.43599900  0.79211500  1
  H  1071  1  0.38189900  0.45747700  0.78106700  1
  H  1072  1  0.37355800  0.42552000  0.78555300  1
  H  1073  1  0.64152000  0.44064500  0.73955500  1
  H  1074  1  0.64225300  0.44096000  0.70324200  1
  H  1075  1  0.64757800  0.54652100  0.70110900  1
  H  1076  1  0.64914900  0.50422400  0.67982600  1
  H  1077  1  0.38312600  0.45626400  0.68076800  1
  H  1078  1  0.37621000  0.42564700  0.64333800  1
  H  1079  1  0.57816200  0.47112600  0.68087400  1
  H  1080  1  0.57106400  0.44072400  0.64348300  1
  H  1081  1  0.57783100  0.59026900  0.75019300  1
  H  1082  1  0.56902700  0.61476100  0.73552100  1
  H  1083  1  0.37311200  0.60584400  0.71663900  1
  H  1084  1  0.38155500  0.58117000  0.73134100  1
  H  1089  1  0.60969100  0.41328900  0.60863900  1
  H  1090  1  0.59721700  0.40449400  0.79304400  1
  H  1091  1  0.70504500  0.61741200  0.92042400  1
  H  1092  1  0.60119000  0.63551100  0.71914200  1
  H  1141  1  0.59570400  0.20906200  0.31998900  1
  H  1142  1  0.58644300  0.19123400  0.34185500  1
  H  1143  1  0.40317100  0.19860800  0.31831900  1
  H  1144  1  0.39366700  0.18096000  0.34013500  1
  H  1145  1  0.65389200  0.13775700  0.31596300  1
  H  1146  1  0.65328400  0.10083100  0.31560200  1
  H  1147  1  0.64890200  0.15115600  0.38046400  1
  H  1148  1  0.65741300  0.17055500  0.41980500  1
  H  1149  1  0.65346300  0.22486300  0.37996600  1
  H  1150  1  0.65230800  0.24554700  0.42234800  1
  H  1151  1  0.57436500  0.24154000  0.45725700  1
  H  1152  1  0.56565500  0.27786000  0.48909200  1
  H  1153  1  0.38195300  0.24534000  0.46760400  1
  H  1154  1  0.37360800  0.28179000  0.49955300  1
  H  1155  1  0.64174000  0.22064400  0.48445500  1
  H  1156  1  0.64259100  0.18402600  0.48415400  1
  H  1157  1  0.64761100  0.07630300  0.37860700  1
  H  1158  1  0.64936500  0.09733500  0.42090700  1
  H  1159  1  0.38333900  0.14622100  0.46883600  1
  H  1160  1  0.37639600  0.13941700  0.49945600  1
  H  1161  1  0.57835500  0.13152300  0.45400900  1
  H  1162  1  0.57123300  0.12454800  0.48441800  1
  H  1163  1  0.57782800  0.08161900  0.33469900  1
  H  1164  1  0.56926700  0.04247100  0.30992600  1
  H  1165  1  0.37315200  0.03252900  0.31926000  1
  H  1166  1  0.38158500  0.07190200  0.34395200  1
  H  1171  1  0.60983300  0.11713200  0.51185200  1
  H  1172  1  0.59727100  0.31031300  0.52056700  1
  H  1173  1  0.70510800  0.22473700  0.30768200  1
  H  1174  1  0.60287300  0.00551900  0.28807200  1
  H  1181  1  0.39653500  0.76203300  0.36709000  1
  H  1184  1  0.51300000  0.77468300  0.41154200  1
  H  1185  1  0.53512600  0.77874700  0.39010200  1
  H  1186  1  0.55812400  0.79363600  0.41762600  1
  H  1195  1  0.39643400  0.52680500  0.16310600  1
  H  1198  1  0.51288200  0.55855500  0.15038500  1
  H  1199  1  0.53506600  0.53304600  0.14628800  1
  H  1200  1  0.55804600  0.54573000  0.13144200  1
  H  1209  1  0.39647400  0.55799400  0.39830800  1
  H  1212  1  0.51286900  0.51364800  0.36652000  1
  H  1213  1  0.53505500  0.53506000  0.39202500  1
  H  1214  1  0.55798600  0.50751800  0.37936000  1
  H  1223  1  0.39639000  0.13581900  0.58521500  1
  H  1226  1  0.51283800  0.12335600  0.54084700  1
  H  1227  1  0.53494700  0.11928900  0.56228900  1
  H  1228  1  0.55791800  0.10437600  0.53475900  1
  H  1237  1  0.39629200  0.37109700  0.78923900  1
  H  1240  1  0.51274400  0.33929700  0.80186400  1
  H  1241  1  0.53488300  0.36480100  0.80593400  1
  H  1242  1  0.55786400  0.35215800  0.82081900  1
  H  1251  1  0.39631200  0.33987600  0.55402000  1
  H  1254  1  0.51272300  0.38431300  0.58574900  1
  H  1255  1  0.53492400  0.36290400  0.56024200  1
  H  1256  1  0.55788100  0.39044000  0.57293000  1
  H  1264  1  0.51180800  0.92082100  0.24205900  1
  H  1265  1  0.52631900  0.94494200  0.26748300  1
  H  1266  1  0.54282300  0.91791300  0.26230700  1
  H  1275  1  0.37971000  0.25315400  0.95895700  1
  H  1278  1  0.51173300  0.24301200  0.00430400  1
  H  1279  1  0.52624800  0.24429000  0.98016900  1
  H  1280  1  0.54274800  0.26615700  0.00718900  1
  H  1289  1  0.37986900  0.62760200  0.67200900  1
  H  1292  1  0.50865200  0.67439200  0.67282900  1
  H  1293  1  0.52732900  0.64960800  0.67179400  1
  H  1294  1  0.54722200  0.65681800  0.65182400  1
  H  1300  1  0.37985200  0.93176200  0.65478100  1
  H  1301  1  0.52634600  0.95294500  0.68482900  1
  H  1310  1  0.37974100  0.64471800  0.99333500  1
  H  1313  1  0.51175000  0.65495900  0.94805800  1
  H  1314  1  0.52625800  0.65364900  0.97217500  1
  H  1315  1  0.54274200  0.63179200  0.94514400  1
  H  1324  1  0.37974700  0.27035200  0.28036600  1
  H  1327  1  0.51176400  0.21487700  0.27022500  1
  H  1328  1  0.52627800  0.24029000  0.27150400  1
  H  1329  1  0.54278200  0.23513500  0.29337000  1
  H  1380  1  0.26243100  0.86523100  0.23634300  1
  H  1381  1  0.25319400  0.82553100  0.21853400  1
  H  1382  1  0.06984700  0.85645400  0.22571400  1
  H  1383  1  0.06039100  0.81698900  0.20808800  1
  H  1384  1  0.32034600  0.79796400  0.16497800  1
  H  1385  1  0.31970700  0.76140200  0.12804800  1
  H  1386  1  0.31587600  0.74685300  0.17837200  1
  H  1387  1  0.32418700  0.72690400  0.19776700  1
  H  1388  1  0.32044700  0.82105500  0.25208000  1
  H  1389  1  0.31929800  0.79935500  0.27276200  1
  H  1390  1  0.24119700  0.76044700  0.26876100  1
  H  1391  1  0.23250400  0.76491600  0.30507000  1
  H  1392  1  0.04878200  0.75386100  0.27253700  1
  H  1393  1  0.04045100  0.75835000  0.30898300  1
  H  1394  1  0.30841300  0.71234900  0.24785600  1
  H  1395  1  0.30913600  0.67603200  0.21123000  1
  H  1396  1  0.31427500  0.67386500  0.10351800  1
  H  1397  1  0.31596000  0.65259200  0.12454400  1
  H  1398  1  0.04997500  0.65355500  0.17345100  1
  H  1399  1  0.04305500  0.61612400  0.16663500  1
  H  1400  1  0.24500400  0.65366300  0.15871200  1
  H  1401  1  0.23790300  0.61627600  0.15172900  1
  H  1402  1  0.24453800  0.72306300  0.10884200  1
  H  1403  1  0.23592300  0.70867000  0.06969500  1
  H  1404  1  0.03982200  0.68941800  0.05973000  1
  H  1405  1  0.04830600  0.70411800  0.09910300  1
  H  1410  1  0.27655000  0.58142500  0.14429600  1
  H  1411  1  0.26412000  0.76584500  0.33750300  1
  H  1412  1  0.37179800  0.89319900  0.25193700  1
  H  1413  1  0.26949900  0.69358700  0.03273700  1
  H  1462  1  0.26234300  0.29278100  0.05987800  1
  H  1463  1  0.25308900  0.31464800  0.09957400  1
  H  1464  1  0.06981000  0.29109800  0.06864800  1
  H  1465  1  0.06031300  0.31291500  0.10811300  1
  H  1466  1  0.32053500  0.28875000  0.12715200  1
  H  1467  1  0.31991700  0.28838800  0.16371800  1
  H  1468  1  0.31554500  0.35325000  0.17825400  1
  H  1469  1  0.32404500  0.39258900  0.19819400  1
  H  1470  1  0.32012600  0.35275300  0.10404900  1
  H  1471  1  0.31897100  0.39513500  0.12574600  1
  H  1472  1  0.24104500  0.43006100  0.16466500  1
  H  1473  1  0.23237900  0.46190000  0.16018200  1
  H  1474  1  0.04864400  0.44037400  0.17120700  1
  H  1475  1  0.04034300  0.47232600  0.16670500  1
  H  1476  1  0.30844000  0.45724500  0.21276000  1
  H  1477  1  0.30929500  0.45694400  0.24907500  1
  H  1478  1  0.31421700  0.35139500  0.25124900  1
  H  1479  1  0.31598100  0.39369500  0.27251800  1
  H  1480  1  0.05000200  0.44160700  0.27156300  1
  H  1481  1  0.04306200  0.47222900  0.30898900  1
  H  1482  1  0.24499400  0.42681300  0.27142900  1
  H  1483  1  0.23787600  0.45722500  0.30881400  1
  H  1484  1  0.24445700  0.30748600  0.20202700  1
  H  1485  1  0.23589200  0.28271500  0.21640400  1
  H  1486  1  0.03976800  0.29205200  0.23568200  1
  H  1487  1  0.04820800  0.31674200  0.22099700  1
  H  1492  1  0.27647900  0.48464500  0.34366700  1
  H  1493  1  0.26403600  0.49336200  0.15919600  1
  H  1494  1  0.37174400  0.28046700  0.03188700  1
  H  1495  1  0.26949500  0.26086500  0.23150600  1
  H  1544  1  0.26246100  0.68885300  0.63234900  1
  H  1545  1  0.25319100  0.70664300  0.61044000  1
  H  1546  1  0.06989100  0.69937000  0.63407600  1
  H  1547  1  0.06040100  0.71697600  0.61221600  1
  H  1548  1  0.32059900  0.76014100  0.63636100  1
  H  1549  1  0.32002100  0.79706800  0.63672100  1
  H  1550  1  0.31572100  0.74674300  0.57185900  1
  H  1551  1  0.32413300  0.72734500  0.53251900  1
  H  1552  1  0.32025100  0.67303400  0.57235700  1
  H  1553  1  0.31915000  0.65235000  0.52997600  1
  H  1554  1  0.24120300  0.65636700  0.49506900  1
  H  1555  1  0.23248300  0.62006400  0.46322000  1
  H  1556  1  0.04878900  0.65254200  0.48470200  1
  H  1557  1  0.04043000  0.61610900  0.45274000  1
  H  1558  1  0.30864300  0.67724800  0.46786100  1
  H  1559  1  0.30941300  0.71386700  0.46816400  1
  H  1560  1  0.31439300  0.82159400  0.57371300  1
  H  1561  1  0.31610200  0.80056200  0.53141400  1
  H  1562  1  0.05007600  0.75167200  0.48349500  1
  H  1563  1  0.04318000  0.75850300  0.45288900  1
  H  1564  1  0.24508200  0.76639000  0.49830800  1
  H  1565  1  0.23800700  0.77339100  0.46791200  1
  H  1566  1  0.24460600  0.81627600  0.61762800  1
  H  1567  1  0.23602400  0.85542600  0.64240300  1
  H  1568  1  0.03989700  0.86536700  0.63305800  1
  H  1569  1  0.04835000  0.82599300  0.60836700  1
  H  1574  1  0.27668800  0.78084900  0.44052000  1
  H  1575  1  0.26407300  0.58763700  0.43170100  1
  H  1576  1  0.37187900  0.67322300  0.64469600  1
  H  1577  1  0.26962400  0.89237700  0.66426100  1
  H  1626  1  0.26240700  0.03266300  0.71601500  1
  H  1627  1  0.25312600  0.07235600  0.73381200  1
  H  1628  1  0.06982700  0.04145000  0.72659600  1
  H  1629  1  0.06033300  0.08091300  0.74421300  1
  H  1630  1  0.32042700  0.09993800  0.78735400  1
  H  1631  1  0.31981200  0.13650400  0.82428000  1
  H  1632  1  0.31569000  0.15104100  0.77395300  1
  H  1633  1  0.32393700  0.17098100  0.75455400  1
  H  1634  1  0.32021100  0.07683500  0.70024600  1
  H  1635  1  0.31900500  0.09853200  0.67956300  1
  H  1636  1  0.24099100  0.13748100  0.68356800  1
  H  1637  1  0.23231100  0.13303100  0.64726600  1
  H  1638  1  0.04858600  0.14401100  0.67978000  1
  H  1639  1  0.04027200  0.13954300  0.64334400  1
  H  1640  1  0.30839600  0.18554300  0.70445800  1
  H  1641  1  0.30924400  0.22186000  0.74107400  1
  H  1642  1  0.31411900  0.22403500  0.84879900  1
  H  1643  1  0.31581500  0.24530300  0.82776800  1
  H  1644  1  0.04990000  0.24435000  0.77888100  1
  H  1645  1  0.04294400  0.28177800  0.78569500  1
  H  1646  1  0.24491300  0.24421200  0.79357200  1
  H  1647  1  0.23777400  0.28159900  0.80055500  1
  H  1648  1  0.24448700  0.17480200  0.84347600  1
  H  1649  1  0.23589200  0.18917700  0.88262400  1
  H  1650  1  0.03975100  0.20848400  0.89258300  1
  H  1651  1  0.04821800  0.19380200  0.85321000  1
  H  1656  1  0.27638800  0.31645900  0.80800400  1
  H  1657  1  0.26393400  0.13216600  0.61486900  1
  H  1658  1  0.37179800  0.00469500  0.70039000  1
  H  1659  1  0.26946500  0.20429300  0.91958400  1
  H  1708  1  0.26232300  0.60505400  0.89244600  1
  H  1709  1  0.25306600  0.58316700  0.85274600  1
  H  1710  1  0.06973900  0.60688000  0.88365800  1
  H  1711  1  0.06026200  0.58504600  0.84419400  1
  H  1712  1  0.32023800  0.60914800  0.82517700  1
  H  1713  1  0.31961300  0.60951600  0.78861400  1
  H  1714  1  0.31573100  0.54464500  0.77406400  1
  H  1715  1  0.32400500  0.50529900  0.75411200  1
  H  1716  1  0.32028200  0.54513300  0.84826300  1
  H  1717  1  0.31910200  0.50275100  0.82655900  1
  H  1718  1  0.24098400  0.46785500  0.78764900  1
  H  1719  1  0.23227700  0.43601300  0.79211400  1
  H  1720  1  0.04856600  0.45747700  0.78106800  1
  H  1721  1  0.04022400  0.42551900  0.78555200  1
  H  1722  1  0.30819000  0.44065700  0.73955300  1
  H  1723  1  0.30892300  0.44096900  0.70323800  1
  H  1724  1  0.31416300  0.54651500  0.70107700  1
  H  1725  1  0.31581500  0.50421700  0.67980300  1
  H  1726  1  0.04979200  0.45626400  0.68076900  1
  H  1727  1  0.04287600  0.42564800  0.64333800  1
  H  1728  1  0.24482900  0.47112400  0.68086600  1
  H  1729  1  0.23773000  0.44071800  0.64347800  1
  H  1730  1  0.24444400  0.59039800  0.75026400  1
  H  1731  1  0.23586900  0.61515200  0.73586900  1
  H  1732  1  0.03977200  0.60584700  0.71664000  1
  H  1733  1  0.04821800  0.58117200  0.73134200  1
  H  1738  1  0.27636100  0.41328600  0.60863400  1
  H  1739  1  0.26388400  0.40450400  0.79303900  1
  H  1740  1  0.37170000  0.61740100  0.92040400  1
  H  1741  1  0.26946500  0.63700700  0.72077400  1
  H  1790  1  0.26237000  0.20906100  0.31998800  1
  H  1791  1  0.25310900  0.19123400  0.34185500  1
  H  1792  1  0.06983700  0.19860800  0.31831900  1
  H  1793  1  0.06033300  0.18096100  0.34013600  1
  H  1794  1  0.32055900  0.13775700  0.31596300  1
  H  1795  1  0.31995100  0.10083000  0.31560100  1
  H  1796  1  0.31557200  0.15115500  0.38046300  1
  H  1797  1  0.32408200  0.17055500  0.41980400  1
  H  1798  1  0.32013000  0.22486300  0.37996600  1
  H  1799  1  0.31897400  0.24554700  0.42234700  1
  H  1800  1  0.24103100  0.24153900  0.45725500  1
  H  1801  1  0.23232100  0.27785800  0.48909100  1
  H  1802  1  0.04862000  0.24534100  0.46760400  1
  H  1803  1  0.04027500  0.28179100  0.49955300  1
  H  1804  1  0.30840900  0.22064300  0.48445500  1
  H  1805  1  0.30925700  0.18402600  0.48415400  1
  H  1806  1  0.31427800  0.07630300  0.37860600  1
  H  1807  1  0.31603100  0.09733400  0.42090700  1
  H  1808  1  0.05000500  0.14622200  0.46883700  1
  H  1809  1  0.04306600  0.13941700  0.49945700  1
  H  1810  1  0.24502100  0.13152200  0.45400800  1
  H  1811  1  0.23789900  0.12455000  0.48442000  1
  H  1812  1  0.24449800  0.08161900  0.33470000  1
  H  1813  1  0.23593600  0.04247100  0.30992700  1
  H  1814  1  0.03981900  0.03252800  0.31925900  1
  H  1815  1  0.04825200  0.07190200  0.34395100  1
  H  1820  1  0.27649900  0.11713100  0.51185200  1
  H  1821  1  0.26393800  0.31031200  0.52056500  1
  H  1822  1  0.37177400  0.22473700  0.30768200  1
  H  1823  1  0.26953900  0.00552000  0.28807300  1
  H  1830  1  0.06320200  0.76203200  0.36709000  1
  H  1833  1  0.17966700  0.77468300  0.41154300  1
  H  1834  1  0.20179600  0.77874800  0.39010400  1
  H  1835  1  0.22479100  0.79363500  0.41762800  1
  H  1844  1  0.06310000  0.52680500  0.16310500  1
  H  1847  1  0.17954900  0.55855600  0.15038500  1
  H  1848  1  0.20173200  0.53304800  0.14628900  1
  H  1849  1  0.22471600  0.54573000  0.13144100  1
  H  1858  1  0.06314100  0.55799300  0.39830700  1
  H  1861  1  0.17953800  0.51365300  0.36652400  1
  H  1862  1  0.20171800  0.53506200  0.39203100  1
  H  1863  1  0.22465500  0.50752100  0.37936200  1
  H  1872  1  0.06305600  0.13582000  0.58521600  1
  H  1875  1  0.17950500  0.12335700  0.54084700  1
  H  1876  1  0.20161400  0.11928800  0.56228900  1
  H  1877  1  0.22458400  0.10437600  0.53475800  1
  H  1886  1  0.06295800  0.37109600  0.78923900  1
  H  1889  1  0.17941300  0.33930200  0.80186500  1
  H  1890  1  0.20155000  0.36480800  0.80593800  1
  H  1891  1  0.22453700  0.35216000  0.82081900  1
  H  1900  1  0.06297900  0.33987800  0.55402100  1
  H  1903  1  0.17939300  0.38431200  0.58574900  1
  H  1904  1  0.20159000  0.36290400  0.56024300  1
  H  1905  1  0.22455100  0.39043800  0.57292900  1
  H  1913  1  0.17847400  0.92082100  0.24205900  1
  H  1914  1  0.19298500  0.94494100  0.26748200  1
  H  1915  1  0.20948900  0.91791200  0.26230600  1
  H  1924  1  0.04637700  0.25315300  0.95895700  1
  H  1927  1  0.17840000  0.24301100  0.00430400  1
  H  1928  1  0.19291400  0.24428900  0.98016900  1
  H  1929  1  0.20941500  0.26615800  0.00718900  1
  H  1938  1  0.04652200  0.62760800  0.67201400  1
  H  1941  1  0.17843400  0.68296200  0.68201000  1
  H  1942  1  0.19299500  0.65755400  0.68073200  1
  H  1943  1  0.20954700  0.66272800  0.65888600  1
  H  1949  1  0.04651800  0.93176300  0.65478300  1
  H  1950  1  0.19300900  0.95294800  0.68483400  1
  H  1959  1  0.04640700  0.64471900  0.99333700  1
  H  1962  1  0.17841000  0.65495800  0.94805400  1
  H  1963  1  0.19292400  0.65365100  0.97217200  1
  H  1964  1  0.20939800  0.63179000  0.94514100  1
  H  1973  1  0.04641400  0.27035300  0.28036700  1
  H  1976  1  0.17843000  0.21487700  0.27022500  1
  H  1977  1  0.19294400  0.24028900  0.27150300  1
  H  1978  1  0.20944900  0.23513700  0.29337200  1
  C  1  1  0.68620200  0.95914800  0.28706000  1
  C  2  1  0.65275700  0.97259400  0.28508800  1
  C  5  1  0.98140800  0.97232600  0.69199100  1
  C  7  1  0.94737300  0.95890500  0.69370100  1
  C  9  1  0.87135900  0.96949100  0.69754300  1
  C  12  1  0.35286800  0.95914800  0.28706100  1
  C  13  1  0.31942700  0.97259300  0.28508800  1
  C  16  1  0.64807400  0.97231800  0.69198700  1
  C  18  1  0.61404200  0.95889500  0.69369500  1
  C  20  1  0.53802900  0.96948700  0.69754000  1
  C  23  1  0.01953400  0.95914700  0.28706100  1
  C  24  1  0.98609200  0.97259300  0.28508800  1
  C  27  1  0.31474100  0.97232500  0.69199100  1
  C  29  1  0.28070900  0.95890400  0.69369900  1
  C  31  1  0.20469200  0.96949200  0.69754400  1
  C  34  1  0.98600900  0.78250700  0.16350400  1
  C  35  1  0.98546600  0.76257300  0.14337400  1
  C  36  1  0.98419300  0.74493700  0.14778600  1
  C  38  1  0.98502600  0.77769300  0.18086100  1
  C  39  1  0.98524400  0.79401700  0.20410800  1
  C  40  1  0.98480100  0.78871100  0.22155000  1
  C  42  1  0.98411500  0.76956500  0.23993700  1
  C  43  1  0.98519300  0.79227700  0.25577300  1
  C  44  1  0.98586800  0.80403500  0.24447800  1
  C  45  1  0.98316500  0.75180400  0.24466800  1
  C  46  1  0.98312200  0.72873600  0.22814100  1
  C  48  1  0.98407100  0.69622700  0.19536800  1
  C  49  1  0.97953600  0.69137300  0.21262500  1
  C  50  1  0.97891300  0.71122500  0.23263600  1
  C  51  1  0.98465800  0.67995800  0.17221300  1
  C  52  1  0.98500200  0.68512600  0.15472500  1
  C  54  1  0.98426300  0.70407400  0.13610100  1
  C  55  1  0.98281400  0.68123000  0.12050200  1
  C  56  1  0.98380400  0.66960100  0.13191800  1
  C  57  1  0.98384800  0.72177100  0.13115700  1
  C  58  1  0.98087500  0.71552600  0.10795600  1
  C  59  1  0.68433100  0.70560600  0.09311000  1
  C  60  1  0.67912700  0.69672800  0.06985500  1
  C  61  1  0.97029300  0.69747100  0.06051500  1
  C  62  1  0.93387700  0.70785200  0.07556700  1
  C  63  1  0.93890300  0.71652300  0.09874900  1
  C  64  1  0.98168900  0.65698300  0.16630400  1
  C  65  1  0.68602500  0.64568500  0.16856100  1
  C  66  1  0.68177700  0.62373400  0.16473300  1
  C  67  1  0.97309800  0.61242100  0.15850200  1
  C  68  1  0.93564800  0.62376800  0.15603700  1
  C  69  1  0.93974600  0.64575600  0.16004100  1
  C  70  1  0.97925400  0.75730700  0.26747100  1
  C  71  1  0.93614100  0.76061500  0.27737300  1
  C  72  1  0.93116100  0.76308400  0.29873800  1
  C  73  1  0.96894300  0.76223500  0.31090400  1
  C  74  1  0.67885500  0.75928500  0.30097000  1
  C  75  1  0.68394100  0.75677300  0.27955400  1
  C  76  1  0.98901700  0.81729600  0.21083200  1
  C  77  1  0.95139700  0.83186500  0.21911000  1
  C  78  1  0.69887900  0.82690700  0.21310700  1
  C  79  1  0.70436200  0.85026800  0.22371500  1
  C  80  1  0.00036100  0.86502600  0.23256000  1
  C  81  1  0.95694400  0.85529000  0.22968400  1
  C  108  1  0.96755700  0.59078800  0.15469600  1
  C  109  1  0.96217900  0.76359400  0.33155700  1
  C  110  1  0.00799300  0.88811900  0.24516500  1
  C  111  1  0.96339100  0.68859500  0.03751400  1
  C  116  1  0.98607700  0.30273200  0.14260700  1
  C  117  1  0.98549200  0.30253900  0.16254200  1
  C  118  1  0.98412200  0.32458600  0.18017600  1
  C  120  1  0.98495500  0.32490300  0.14741900  1
  C  121  1  0.98511800  0.33182400  0.13109300  1
  C  122  1  0.98461100  0.35457200  0.13639700  1
  C  124  1  0.98393300  0.39210300  0.15553800  1
  C  125  1  0.98492100  0.38522700  0.13282700  1
  C  126  1  0.98561000  0.36217200  0.12106900  1
  C  127  1  0.98301300  0.41459800  0.17330000  1
  C  128  1  0.98312700  0.42114300  0.19636900  1
  C  130  1  0.98412500  0.42087900  0.22887900  1
  C  131  1  0.97963000  0.44299300  0.23373400  1
  C  132  1  0.97909600  0.44315800  0.21388500  1
  C  133  1  0.98469500  0.41399300  0.24514700  1
  C  134  1  0.98490200  0.39133600  0.23998000  1
  C  136  1  0.98412000  0.35376600  0.22103700  1
  C  137  1  0.98266200  0.36101300  0.24388000  1
  C  138  1  0.98364300  0.38405900  0.25550900  1
  C  139  1  0.98375000  0.33112400  0.20334200  1
  C  140  1  0.98077200  0.31417100  0.20959100  1
  C  141  1  0.68425000  0.30924500  0.21950500  1
  C  142  1  0.67907100  0.29486300  0.22837800  1
  C  143  1  0.97025100  0.28476600  0.22762400  1
  C  144  1  0.93382600  0.28943000  0.21724100  1
  C  145  1  0.93883700  0.30392500  0.20855100  1
  C  146  1  0.98169900  0.43106000  0.26812300  1
  C  147  1  0.68603600  0.44459700  0.27942000  1
  C  148  1  0.68178100  0.46271900  0.30137200  1
  C  149  1  0.97308700  0.46782400  0.31268300  1
  C  150  1  0.93563700  0.45401800  0.30133200  1
  C  151  1  0.93974000  0.43604100  0.27934000  1
  C  152  1  0.97909800  0.43190100  0.16780200  1
  C  153  1  0.93599000  0.43850900  0.16450700  1
  C  154  1  0.93103000  0.45739900  0.16202600  1
  C  155  1  0.96882700  0.47039100  0.16285000  1
  C  156  1  0.67873900  0.46338100  0.16576800  1
  C  157  1  0.68380900  0.44448200  0.16829300  1
  C  158  1  0.98892700  0.31527000  0.10781800  1
  C  159  1  0.95131900  0.30894100  0.09323900  1
  C  160  1  0.69881000  0.30800900  0.09819100  1
  C  161  1  0.70431400  0.29525800  0.07483100  1
  C  162  1  0.00031400  0.28931100  0.06007400  1
  C  163  1  0.95688000  0.29611200  0.06981300  1
  C  190  1  0.96753900  0.48565700  0.33431200  1
  C  191  1  0.96208300  0.48967900  0.16147600  1
  C  192  1  0.00793200  0.27879500  0.03697700  1
  C  193  1  0.96337200  0.27063900  0.23650000  1
  C  198  1  0.98617400  0.76161400  0.62237700  1
  C  199  1  0.98560700  0.78174200  0.62257100  1
  C  200  1  0.98426200  0.77732900  0.60052400  1
  C  202  1  0.98506500  0.74425600  0.60020800  1
  C  203  1  0.98519900  0.72100800  0.59328600  1
  C  204  1  0.98473500  0.70356500  0.57054100  1
  C  206  1  0.98410900  0.68517400  0.53300600  1
  C  207  1  0.98508600  0.66933800  0.53988400  1
  C  208  1  0.98574600  0.68063600  0.56293900  1
  C  209  1  0.98321100  0.68044000  0.51051100  1
  C  210  1  0.98327800  0.69696400  0.50396700  1
  C  212  1  0.98421700  0.72973700  0.50422900  1
  C  213  1  0.97974000  0.71247700  0.48211700  1
  C  214  1  0.97920000  0.69246400  0.48195400  1
  C  215  1  0.98475600  0.75289200  0.51111500  1
  C  216  1  0.98498600  0.77038100  0.53377100  1
  C  218  1  0.98424800  0.78900900  0.57134200  1
  C  219  1  0.98279700  0.80460600  0.56409400  1
  C  220  1  0.98375800  0.79318600  0.54104800  1
  C  221  1  0.98390500  0.79395600  0.59398500  1
  C  222  1  0.98091700  0.81715800  0.61093800  1
  C  223  1  0.68438000  0.83197900  0.61586000  1
  C  224  1  0.67919700  0.85523600  0.63024000  1
  C  225  1  0.97037800  0.86459600  0.64034600  1
  C  226  1  0.93395600  0.84955100  0.63568000  1
  C  227  1  0.93897200  0.82636700  0.62117600  1
  C  228  1  0.98177100  0.75880000  0.49404800  1
  C  229  1  0.68612800  0.75657000  0.48051100  1
  C  230  1  0.68189600  0.76041200  0.46239700  1
  C  231  1  0.97321400  0.76662700  0.45730300  1
  C  232  1  0.93575200  0.76908600  0.47110600  1
  C  233  1  0.93983600  0.76507600  0.48908700  1
  C  234  1  0.97926000  0.65763900  0.49321500  1
  C  235  1  0.93613900  0.64775700  0.48660700  1
  C  236  1  0.93114600  0.62638500  0.46772500  1
  C  237  1  0.96892000  0.61420800  0.45470800  1
  C  238  1  0.67883400  0.62411200  0.46167600  1
  C  239  1  0.68392300  0.64553600  0.48056800  1
  C  240  1  0.98901900  0.71428200  0.60983800  1
  C  241  1  0.95140500  0.70603600  0.61616300  1
  C  242  1  0.69903000  0.71210600  0.61715400  1
  C  243  1  0.70472800  0.70155000  0.62994200  1
  C  244  1  0.00040800  0.69255600  0.63584400  1
  C  245  1  0.95698100  0.69544300  0.62899400  1
  C  272  1  0.96769400  0.77044600  0.43948400  1
  C  273  1  0.96214200  0.59356300  0.43540700  1
  C  274  1  0.00803400  0.67997200  0.64635600  1
  C  275  1  0.96348800  0.88759700  0.65447400  1
  C  280  1  0.98602200  0.11539400  0.78882500  1
  C  281  1  0.98546300  0.13532900  0.80895300  1
  C  282  1  0.98414300  0.15296300  0.80454000  1
  C  284  1  0.98495800  0.12020400  0.77146600  1
  C  285  1  0.98514800  0.10387700  0.74821900  1
  C  286  1  0.98464100  0.10918200  0.73077600  1
  C  288  1  0.98390000  0.12832400  0.71238500  1
  C  289  1  0.98490400  0.10561100  0.69654900  1
  C  290  1  0.98566100  0.09385600  0.70784800  1
  C  291  1  0.98294600  0.14608400  0.70765100  1
  C  292  1  0.98306300  0.16915400  0.72417400  1
  C  294  1  0.98408800  0.20166600  0.75694500  1
  C  295  1  0.97956400  0.20651800  0.73968500  1
  C  296  1  0.97898700  0.18666700  0.71967400  1
  C  297  1  0.98463200  0.21793300  0.78010100  1
  C  298  1  0.98489000  0.21276900  0.79759100  1
  C  300  1  0.98411700  0.19382400  0.81621700  1
  C  301  1  0.98261000  0.21666800  0.83181400  1
  C  302  1  0.98363400  0.22829600  0.82039700  1
  C  303  1  0.98378100  0.17613000  0.82116700  1
  C  304  1  0.98079700  0.18238300  0.84436900  1
  C  305  1  0.68426400  0.19229600  0.85920900  1
  C  306  1  0.67905900  0.20118200  0.88246700  1
  C  307  1  0.97023700  0.20041400  0.89180300  1
  C  308  1  0.93382400  0.19002800  0.87675200  1
  C  309  1  0.93884700  0.18134700  0.85356900  1
  C  310  1  0.98161000  0.24090700  0.78600800  1
  C  311  1  0.68594300  0.25221300  0.78377200  1
  C  312  1  0.68167200  0.27416000  0.78759400  1
  C  313  1  0.97297500  0.28546900  0.79380700  1
  C  314  1  0.93553000  0.27411300  0.79625700  1
  C  315  1  0.93965100  0.25212600  0.79225500  1
  C  316  1  0.97905300  0.14057800  0.68484700  1
  C  317  1  0.93594100  0.13729600  0.67495300  1
  C  318  1  0.93097100  0.13483400  0.65358900  1
  C  319  1  0.96876000  0.13568000  0.64142600  1
  C  320  1  0.67867200  0.13859800  0.65135300  1
  C  321  1  0.68375600  0.14107700  0.67275500  1
  C  322  1  0.98895300  0.08060100  0.74149500  1
  C  323  1  0.95133800  0.06603100  0.73324700  1
  C  324  1  0.69882900  0.07099000  0.73920400  1
  C  325  1  0.70433300  0.04762800  0.72859800  1
  C  326  1  0.00035100  0.03287100  0.71976200  1
  C  327  1  0.95692600  0.04260700  0.72263100  1
  C  354  1  0.96741500  0.30710100  0.79761300  1
  C  355  1  0.96200400  0.13435400  0.62078800  1
  C  356  1  0.00798600  0.00977700  0.70716000  1
  C  357  1  0.96334500  0.20928800  0.91480400  1
  C  362  1  0.98589400  0.59516600  0.80971900  1
  C  363  1  0.98535800  0.59536100  0.78978500  1
  C  364  1  0.98407200  0.57331500  0.77214800  1
  C  366  1  0.98489400  0.57299400  0.80490300  1
  C  367  1  0.98510200  0.56607000  0.82122800  1
  C  368  1  0.98464000  0.54332200  0.81592000  1
  C  370  1  0.98392700  0.50579000  0.79677300  1
  C  371  1  0.98500600  0.51266200  0.81948300  1
  C  372  1  0.98569900  0.53571600  0.83124300  1
  C  373  1  0.98296200  0.48329700  0.77901000  1
  C  374  1  0.98291900  0.47675700  0.75594200  1
  C  376  1  0.98387800  0.47702400  0.72343300  1
  C  377  1  0.97932800  0.45491300  0.71857800  1
  C  378  1  0.97869800  0.45475300  0.73843000  1
  C  379  1  0.98447900  0.48391100  0.70716500  1
  C  380  1  0.98484200  0.50656700  0.71233500  1
  C  382  1  0.98413100  0.54413800  0.73128500  1
  C  383  1  0.98268500  0.53689600  0.70844200  1
  C  384  1  0.98365700  0.51385000  0.69681100  1
  C  385  1  0.98373000  0.56678000  0.74898300  1
  C  386  1  0.98077900  0.58373600  0.74273900  1
  C  387  1  0.68434000  0.58864900  0.73283900  1
  C  388  1  0.67903500  0.60288700  0.72380400  1
  C  389  1  0.97024100  0.61312400  0.72468200  1
  C  390  1  0.93381100  0.60845900  0.73505900  1
  C  391  1  0.93881600  0.59394700  0.74373000  1
  C  392  1  0.98151200  0.46684500  0.68418800  1
  C  393  1  0.68584200  0.45328500  0.67290300  1
  C  394  1  0.68159500  0.43516400  0.65095100  1
  C  395  1  0.97292200  0.43008400  0.63962700  1
  C  396  1  0.93547400  0.44390000  0.65097200  1
  C  397  1  0.93957100  0.46188500  0.67296100  1
  C  398  1  0.97904300  0.46599700  0.78451100  1
  C  399  1  0.93592600  0.45940800  0.78781800  1
  C  400  1  0.93093900  0.44051000  0.79028400  1
  C  401  1  0.96871600  0.42749000  0.78943500  1
  C  402  1  0.67862800  0.43446100  0.78649200  1
  C  403  1  0.68372200  0.45336600  0.78398200  1
  C  404  1  0.98888700  0.58262300  0.84450700  1
  C  405  1  0.95127300  0.58891900  0.85907700  1
  C  406  1  0.69876100  0.58994100  0.85413200  1
  C  407  1  0.70425500  0.60269700  0.87749200  1
  C  408  1  0.00025600  0.60861900  0.89223600  1
  C  409  1  0.95683100  0.60176700  0.88250100  1
  C  436  1  0.96738000  0.41225500  0.61799700  1
  C  437  1  0.96194500  0.40819600  0.79079200  1
  C  438  1  0.00789500  0.61910300  0.91532800  1
  C  439  1  0.96335900  0.62725000  0.71580400  1
  C  444  1  0.98610200  0.13628500  0.32994600  1
  C  445  1  0.98552200  0.11615600  0.32975200  1
  C  446  1  0.98415200  0.12056800  0.35179700  1
  C  448  1  0.98497700  0.15364300  0.35211500  1
  C  449  1  0.98513400  0.17689000  0.35903600  1
  C  450  1  0.98462100  0.19433300  0.38178400  1
  C  452  1  0.98394100  0.21272400  0.41931700  1
  C  453  1  0.98492400  0.22856000  0.41244000  1
  C  454  1  0.98561400  0.21726200  0.38938600  1
  C  455  1  0.98303100  0.21745700  0.44181000  1
  C  456  1  0.98312500  0.20093100  0.44835400  1
  C  458  1  0.98412400  0.16815900  0.44809200  1
  C  459  1  0.97960500  0.18541700  0.47020300  1
  C  460  1  0.97907100  0.20543100  0.47036900  1
  C  461  1  0.98470900  0.14500400  0.44120500  1
  C  462  1  0.98493000  0.12751400  0.41854900  1
  C  464  1  0.98415700  0.10888800  0.38098000  1
  C  465  1  0.98271300  0.09329100  0.38822500  1
  C  466  1  0.98368900  0.10471000  0.41127100  1
  C  467  1  0.98378700  0.10394100  0.35833600  1
  C  468  1  0.98081300  0.08074000  0.34138400  1
  C  469  1  0.68429300  0.06590000  0.33645900  1
  C  470  1  0.67911800  0.04264500  0.32207200  1
  C  471  1  0.97029800  0.03330200  0.31197500  1
  C  472  1  0.93386900  0.04834800  0.31664000  1
  C  473  1  0.93887700  0.07153200  0.33113600  1
  C  474  1  0.98171400  0.13909500  0.45827200  1
  C  475  1  0.68604400  0.14134700  0.47182500  1
  C  476  1  0.68178700  0.13751900  0.48994700  1
  C  477  1  0.97310000  0.13129900  0.49503600  1
  C  478  1  0.93565700  0.12883200  0.48122000  1
  C  479  1  0.93976100  0.13284700  0.46324300  1
  C  480  1  0.97908500  0.24025800  0.45911300  1
  C  481  1  0.93596500  0.25015000  0.46570800  1
  C  482  1  0.93097900  0.27151900  0.48459700  1
  C  483  1  0.96876000  0.28369600  0.49760000  1
  C  484  1  0.67868400  0.27377800  0.49060200  1
  C  485  1  0.68377900  0.25235600  0.47170600  1
  C  486  1  0.98894600  0.18361000  0.34248300  1
  C  487  1  0.95134100  0.19186100  0.33615100  1
  C  488  1  0.69883200  0.18597500  0.33522600  1
  C  489  1  0.70433900  0.19658600  0.32247700  1
  C  490  1  0.00034100  0.20539600  0.31652600  1
  C  491  1  0.95690500  0.20245700  0.32332100  1
  C  518  1  0.96755100  0.12750100  0.51286600  1
  C  519  1  0.96199100  0.30435700  0.51688600  1
  C  520  1  0.00796300  0.21797800  0.30601100  1
  C  521  1  0.96342200  0.01029900  0.29784400  1
  C  526  1  0.98962600  0.76194900  0.40303800  1
  C  528  1  0.69885800  0.76210500  0.37362400  1
  C  529  1  0.65881800  0.76208500  0.36260500  1
  C  531  1  0.94918300  0.76180700  0.39200500  1
  C  534  1  0.87725800  0.77770500  0.40490400  1
  C  540  1  0.98951000  0.56283100  0.16318400  1
  C  542  1  0.69875400  0.53325900  0.16301400  1
  C  543  1  0.65872000  0.52224700  0.16301300  1
  C  545  1  0.94906700  0.55191600  0.16327300  1
  C  548  1  0.87716300  0.54890600  0.14736000  1
  C  554  1  0.98953100  0.52210200  0.36225600  1
  C  556  1  0.69879600  0.55146900  0.39182400  1
  C  557  1  0.65876700  0.56250500  0.40282400  1
  C  559  1  0.94909500  0.53312700  0.37316700  1
  C  562  1  0.87714600  0.52026500  0.37617700  1
  C  568  1  0.98949300  0.13602400  0.54932500  1
  C  570  1  0.69871300  0.13579700  0.57870200  1
  C  571  1  0.65866900  0.13585700  0.58973900  1
  C  573  1  0.94904500  0.13617200  0.56035600  1
  C  576  1  0.87708500  0.12031700  0.54748200  1
  C  582  1  0.98937500  0.33506600  0.78914300  1
  C  584  1  0.69861500  0.36462600  0.78930700  1
  C  585  1  0.65857800  0.37562800  0.78928400  1
  C  587  1  0.94893400  0.34595900  0.78899800  1
  C  590  1  0.87700600  0.34896100  0.80489100  1
  C  596  1  0.98936100  0.37581200  0.59003700  1
  C  598  1  0.69862600  0.34641900  0.56047300  1
  C  599  1  0.65860200  0.33540100  0.54945900  1
  C  601  1  0.94892600  0.36480200  0.57912000  1
  C  604  1  0.87701000  0.37769200  0.57610100  1
  C  610  1  0.98140100  0.92557100  0.26032600  1
  C  612  1  0.94735400  0.93899200  0.25862000  1
  C  614  1  0.87134900  0.92840000  0.25477200  1
  C  620  1  0.98132400  0.25650500  0.99953200  1
  C  622  1  0.68611600  0.24965600  0.96594800  1
  C  623  1  0.65267600  0.23423700  0.95250800  1
  C  625  1  0.94728400  0.24137600  0.98611700  1
  C  628  1  0.87127500  0.24813500  0.99671500  1
  C  634  1  0.98140600  0.66479300  0.66862200  1
  C  636  1  0.68907300  0.63973500  0.67720300  1
  C  637  1  0.65324400  0.63983900  0.69070400  1
  C  639  1  0.94731900  0.66647800  0.68372200  1
  C  642  1  0.87131900  0.67026400  0.67690700  1
  C  648  1  0.68624200  0.93874000  0.66526000  1
  C  649  1  0.65281100  0.92529300  0.66723400  1
  C  655  1  0.98132800  0.64139800  0.95278400  1
  C  657  1  0.68613900  0.64823100  0.98636600  1
  C  658  1  0.65271000  0.66365900  0.99981600  1
  C  660  1  0.94729600  0.65653200  0.96620800  1
  C  663  1  0.87128100  0.64981500  0.95562900  1
  C  669  1  0.98135700  0.23313400  0.28372000  1
  C  671  1  0.68615100  0.25986500  0.27687000  1
  C  672  1  0.65271000  0.25788700  0.26145100  1
  C  674  1  0.94731500  0.23142100  0.26859000  1
  C  677  1  0.87130700  0.22758700  0.27534800  1
  C  683  1  0.65267600  0.78250900  0.16350600  1
  C  684  1  0.65213500  0.76257400  0.14337800  1
  C  685  1  0.65085800  0.74493800  0.14779000  1
  C  687  1  0.65169300  0.77769500  0.18086400  1
  C  688  1  0.65191200  0.79401900  0.20411100  1
  C  689  1  0.65146600  0.78871200  0.22155100  1
  C  691  1  0.65078400  0.76956600  0.23993900  1
  C  692  1  0.65185800  0.79227700  0.25577600  1
  C  693  1  0.65253400  0.80403600  0.24448000  1
  C  694  1  0.64983100  0.75180400  0.24466900  1
  C  695  1  0.64979100  0.72873600  0.22814200  1
  C  697  1  0.65073700  0.69622700  0.19536900  1
  C  698  1  0.64620300  0.69137400  0.21262700  1
  C  699  1  0.64557800  0.71122500  0.23263700  1
  C  700  1  0.65132500  0.67995800  0.17221400  1
  C  701  1  0.65166900  0.68512600  0.15472600  1
  C  703  1  0.65092900  0.70407500  0.13610400  1
  C  704  1  0.64948000  0.68123200  0.12050500  1
  C  705  1  0.65047000  0.66960100  0.13192100  1
  C  706  1  0.65051400  0.72177300  0.13116200  1
  C  707  1  0.64754100  0.71552900  0.10796200  1
  C  708  1  0.35099900  0.70560200  0.09310500  1
  C  709  1  0.34579600  0.69672200  0.06985000  1
  C  710  1  0.63695600  0.69747800  0.06052200  1
  C  711  1  0.60053800  0.70785700  0.07557500  1
  C  712  1  0.60556600  0.71652600  0.09875600  1
  C  713  1  0.64835500  0.65698200  0.16630500  1
  C  714  1  0.35269200  0.64568500  0.16856000  1
  C  715  1  0.34844500  0.62373400  0.16473200  1
  C  716  1  0.63976700  0.61242000  0.15850100  1
  C  717  1  0.60231500  0.62376800  0.15603800  1
  C  718  1  0.60641400  0.64575600  0.16004100  1
  C  719  1  0.64592200  0.75730700  0.26747200  1
  C  720  1  0.60280900  0.76061500  0.27737400  1
  C  721  1  0.59782500  0.76308500  0.29873800  1
  C  722  1  0.63560800  0.76223500  0.31090300  1
  C  723  1  0.34552300  0.75928500  0.30096900  1
  C  724  1  0.35060700  0.75677300  0.27955300  1
  C  725  1  0.65568300  0.81729800  0.21083500  1
  C  726  1  0.61806300  0.83186600  0.21911200  1
  C  727  1  0.36554700  0.82690600  0.21310500  1
  C  728  1  0.37102700  0.85026700  0.22371400  1
  C  729  1  0.66702800  0.86502800  0.23256100  1
  C  730  1  0.62361000  0.85529100  0.22968500  1
  C  757  1  0.63422600  0.59078800  0.15469500  1
  C  758  1  0.62884400  0.76359400  0.33155800  1
  C  759  1  0.67465900  0.88812000  0.24516600  1
  C  760  1  0.63005300  0.68860200  0.03752100  1
  C  765  1  0.65274300  0.30273100  0.14260600  1
  C  766  1  0.65215900  0.30253700  0.16254000  1
  C  767  1  0.65078700  0.32458500  0.18017400  1
  C  769  1  0.65162200  0.32490100  0.14741700  1
  C  770  1  0.65178400  0.33182200  0.13109100  1
  C  771  1  0.65127700  0.35457000  0.13639600  1
  C  773  1  0.65060100  0.39210300  0.15553900  1
  C  774  1  0.65158800  0.38522600  0.13282500  1
  C  775  1  0.65227700  0.36217200  0.12106800  1
  C  776  1  0.64967900  0.41459700  0.17329800  1
  C  777  1  0.64979400  0.42114100  0.19636800  1
  C  779  1  0.65079100  0.42087800  0.22887700  1
  C  780  1  0.64629700  0.44299100  0.23373100  1
  C  781  1  0.64576300  0.44315700  0.21388300  1
  C  782  1  0.65136200  0.41398900  0.24514400  1
  C  783  1  0.65156800  0.39133400  0.23997900  1
  C  785  1  0.65078700  0.35376400  0.22103600  1
  C  786  1  0.64933100  0.36101100  0.24387900  1
  C  787  1  0.65031100  0.38405600  0.25550500  1
  C  788  1  0.65041600  0.33112100  0.20334000  1
  C  789  1  0.64743900  0.31417000  0.20958900  1
  C  790  1  0.35091500  0.30924700  0.21950600  1
  C  791  1  0.34573900  0.29486300  0.22837700  1
  C  792  1  0.63691800  0.28476600  0.22762300  1
  C  793  1  0.60049400  0.28942900  0.21724100  1
  C  794  1  0.60550500  0.30392300  0.20855000  1
  C  795  1  0.64836500  0.43105700  0.26811900  1
  C  796  1  0.35270200  0.44460200  0.27942400  1
  C  797  1  0.34844800  0.46272600  0.30137600  1
  C  798  1  0.63975300  0.46781600  0.31267900  1
  C  799  1  0.60230200  0.45401300  0.30132800  1
  C  800  1  0.60640300  0.43603700  0.27933600  1
  C  801  1  0.64576700  0.43189900  0.16779900  1
  C  802  1  0.60265700  0.43850900  0.16450600  1
  C  803  1  0.59769700  0.45739800  0.16202500  1
  C  804  1  0.63549300  0.47039200  0.16285200  1
  C  805  1  0.34540800  0.46338000  0.16576800  1
  C  806  1  0.35047600  0.44448300  0.16829400  1
  C  807  1  0.65559500  0.31527000  0.10781900  1
  C  808  1  0.61798500  0.30894100  0.09324000  1
  C  809  1  0.36547600  0.30801000  0.09819300  1
  C  810  1  0.37098000  0.29525900  0.07483100  1
  C  811  1  0.66698000  0.28931000  0.06007300  1
  C  812  1  0.62354600  0.29611100  0.06981200  1
  C  839  1  0.63420900  0.48564700  0.33430800  1
  C  840  1  0.62874900  0.48967800  0.16147600  1
  C  841  1  0.67459800  0.27879500  0.03697600  1
  C  842  1  0.63004000  0.27064000  0.23650000  1
  C  847  1  0.65281100  0.76157000  0.62234500  1
  C  848  1  0.65224700  0.78170400  0.62255100  1
  C  849  1  0.65088900  0.77730300  0.60050900  1
  C  851  1  0.65168300  0.74421900  0.60017200  1
  C  852  1  0.65181400  0.72096800  0.59324000  1
  C  853  1  0.65134500  0.70353000  0.57049100  1
  C  855  1  0.65073300  0.68515500  0.53296300  1
  C  856  1  0.65174700  0.66931100  0.53982800  1
  C  857  1  0.65240600  0.68059900  0.56288100  1
  C  858  1  0.64984800  0.68043300  0.51047300  1
  C  859  1  0.64992200  0.69696400  0.50393800  1
  C  861  1  0.65087900  0.72974300  0.50421700  1
  C  862  1  0.64639900  0.71249000  0.48210000  1
  C  863  1  0.64585100  0.69247300  0.48192800  1
  C  864  1  0.65142200  0.75290000  0.51111300  1
  C  865  1  0.65164900  0.77038400  0.53377100  1
  C  867  1  0.65089900  0.78900100  0.57134100  1
  C  868  1  0.64945600  0.80460400  0.56410200  1
  C  869  1  0.65042200  0.79319100  0.54105600  1
  C  870  1  0.65054700  0.79394000  0.59398300  1
  C  871  1  0.64757400  0.81714100  0.61094200  1
  C  872  1  0.35105700  0.83199600  0.61586000  1
  C  873  1  0.34586700  0.85525200  0.63024400  1
  C  874  1  0.63704300  0.86458200  0.64034500  1
  C  875  1  0.60062300  0.84954000  0.63568500  1
  C  876  1  0.60563300  0.82635500  0.62118500  1
  C  877  1  0.64844300  0.75881600  0.49405100  1
  C  878  1  0.35279000  0.75655300  0.48050600  1
  C  879  1  0.34856000  0.76039900  0.46239400  1
  C  880  1  0.63988100  0.76663700  0.45730500  1
  C  881  1  0.60242000  0.76909600  0.47110600  1
  C  882  1  0.60650500  0.76508900  0.48908900  1
  C  883  1  0.64590200  0.65763600  0.49317300  1
  C  884  1  0.60278500  0.64774800  0.48657200  1
  C  885  1  0.59779800  0.62636900  0.46769800  1
  C  886  1  0.63558100  0.61419400  0.45468600  1
  C  887  1  0.34550900  0.62412100  0.46170200  1
  C  888  1  0.35060700  0.64553900  0.48060200  1
  C  889  1  0.65577100  0.71422800  0.60977400  1
  C  890  1  0.61831600  0.70583600  0.61604200  1
  C  891  1  0.36557100  0.71198600  0.61714600  1
  C  892  1  0.37107800  0.70135300  0.62987600  1
  C  893  1  0.66757600  0.69261200  0.63587200  1
  C  894  1  0.62409700  0.69529800  0.62891300  1
  C  921  1  0.63436100  0.77045200  0.43948300  1
  C  922  1  0.62881000  0.59354400  0.43539400  1
  C  923  1  0.67545600  0.68034200  0.64670900  1
  C  924  1  0.63015800  0.88758600  0.65447000  1
  C  929  1  0.65268900  0.11539100  0.78882500  1
  C  930  1  0.65212900  0.13532600  0.80895200  1
  C  931  1  0.65081100  0.15296000  0.80453800  1
  C  933  1  0.65162500  0.12020100  0.77146500  1
  C  934  1  0.65181400  0.10387400  0.74821900  1
  C  935  1  0.65130800  0.10917900  0.73077600  1
  C  937  1  0.65056800  0.12832100  0.71238400  1
  C  938  1  0.65157100  0.10560800  0.69654900  1
  C  939  1  0.65232800  0.09385300  0.70784700  1
  C  940  1  0.64961200  0.14608200  0.70765000  1
  C  941  1  0.64973000  0.16915100  0.72417300  1
  C  943  1  0.65075400  0.20166300  0.75694400  1
  C  944  1  0.64623000  0.20651500  0.73968500  1
  C  945  1  0.64565500  0.18666400  0.71967300  1
  C  946  1  0.65129700  0.21793000  0.78010100  1
  C  947  1  0.65155800  0.21276600  0.79759100  1
  C  949  1  0.65078400  0.19382100  0.81621600  1
  C  950  1  0.64927700  0.21666500  0.83181300  1
  C  951  1  0.65030100  0.22829300  0.82039600  1
  C  952  1  0.65044900  0.17612500  0.82116400  1
  C  953  1  0.64746600  0.18238000  0.84436800  1
  C  954  1  0.35093200  0.19229900  0.85920900  1
  C  955  1  0.34572500  0.20118300  0.88246700  1
  C  956  1  0.63690500  0.20041400  0.89180200  1
  C  957  1  0.60049100  0.19002800  0.87675100  1
  C  958  1  0.60551500  0.18134600  0.85356900  1
  C  959  1  0.64827700  0.24090400  0.78600700  1
  C  960  1  0.35261100  0.25221600  0.78377100  1
  C  961  1  0.34833700  0.27416400  0.78759100  1
  C  962  1  0.63964200  0.28546500  0.79381100  1
  C  963  1  0.60219700  0.27411000  0.79626000  1
  C  964  1  0.60631600  0.25212100  0.79225400  1
  C  965  1  0.64572000  0.14057800  0.68484800  1
  C  966  1  0.60260900  0.13729300  0.67495100  1
  C  967  1  0.59763900  0.13483300  0.65358900  1
  C  968  1  0.63542800  0.13567900  0.64142600  1
  C  969  1  0.34534000  0.13859800  0.65135200  1
  C  970  1  0.35042200  0.14107700  0.67275400  1
  C  971  1  0.65561900  0.08059600  0.74149200  1
  C  972  1  0.61800500  0.06602700  0.73324300  1
  C  973  1  0.36549700  0.07099500  0.73920700  1
  C  974  1  0.37100000  0.04763400  0.72860100  1
  C  975  1  0.66701400  0.03286500  0.71975800  1
  C  976  1  0.62359300  0.04260200  0.72262900  1
  C  1003  1  0.63408400  0.30709600  0.79761600  1
  C  1004  1  0.62867100  0.13435300  0.62078700  1
  C  1005  1  0.67465200  0.00977100  0.70715600  1
  C  1006  1  0.63000900  0.20928800  0.91480500  1
  C  1011  1  0.65259100  0.59515700  0.80974900  1
  C  1012  1  0.65209500  0.59535700  0.78981800  1
  C  1013  1  0.65084100  0.57330900  0.77218000  1
  C  1015  1  0.65159800  0.57298400  0.80492900  1
  C  1016  1  0.65177700  0.56605600  0.82125000  1
  C  1017  1  0.65131100  0.54330700  0.81593700  1
  C  1019  1  0.65059100  0.50577400  0.79678100  1
  C  1020  1  0.65166600  0.51264300  0.81949200  1
  C  1021  1  0.65236200  0.53569600  0.83125600  1
  C  1022  1  0.64962500  0.48328500  0.77901500  1
  C  1023  1  0.64958100  0.47674600  0.75594800  1
  C  1025  1  0.65054100  0.47701500  0.72344200  1
  C  1026  1  0.64599000  0.45490300  0.71858400  1
  C  1027  1  0.64536100  0.45474200  0.73843300  1
  C  1028  1  0.65114500  0.48390500  0.70717700  1
  C  1029  1  0.65153400  0.50656400  0.71235200  1
  C  1031  1  0.65089500  0.54413300  0.73131100  1
  C  1032  1  0.64942600  0.53689700  0.70847000  1
  C  1033  1  0.65035100  0.51385000  0.69683200  1
  C  1034  1  0.65053700  0.56677500  0.74901600  1
  C  1035  1  0.64756400  0.58372800  0.74277200  1
  C  1036  1  0.35092200  0.58865600  0.73281900  1
  C  1037  1  0.34574200  0.60303300  0.72393900  1
  C  1038  1  0.63676600  0.61282700  0.72438500  1
  C  1039  1  0.60040000  0.60820200  0.73483100  1
  C  1040  1  0.60553200  0.59384000  0.74366900  1
  C  1041  1  0.64817600  0.46684300  0.68419900  1
  C  1042  1  0.35251300  0.45328700  0.67289600  1
  C  1043  1  0.34826600  0.43516400  0.65094500  1
  C  1044  1  0.63958700  0.43008600  0.63963400  1
  C  1045  1  0.60214000  0.44390400  0.65097800  1
  C  1046  1  0.60623800  0.46188600  0.67296700  1
  C  1047  1  0.64570600  0.46598400  0.78451400  1
  C  1048  1  0.60258600  0.45939500  0.78781900  1
  C  1049  1  0.59759900  0.44049700  0.79028600  1
  C  1050  1  0.63537800  0.42748000  0.78943900  1
  C  1051  1  0.34530000  0.43447200  0.78648900  1
  C  1052  1  0.35039100  0.45337600  0.78397800  1
  C  1053  1  0.65556100  0.58260600  0.84452900  1
  C  1054  1  0.61794800  0.58890500  0.85909900  1
  C  1055  1  0.36542200  0.58995100  0.85411200  1
  C  1056  1  0.37091600  0.60270000  0.87747400  1
  C  1057  1  0.66692800  0.60861700  0.89225400  1
  C  1058  1  0.62350600  0.60176000  0.88252300  1
  C  1085  1  0.63404300  0.41225900  0.61800200  1
  C  1086  1  0.62861100  0.40818600  0.79079400  1
  C  1087  1  0.67457000  0.61910700  0.91534600  1
  C  1088  1  0.62956300  0.62658700  0.71510000  1
  C  1093  1  0.65277100  0.13628400  0.32994500  1
  C  1094  1  0.65218900  0.11615500  0.32975100  1
  C  1095  1  0.65081800  0.12056900  0.35179900  1
  C  1097  1  0.65164200  0.15364200  0.35211500  1
  C  1098  1  0.65180100  0.17688900  0.35903600  1
  C  1099  1  0.65128700  0.19433300  0.38178300  1
  C  1101  1  0.65060800  0.21272300  0.41931600  1
  C  1102  1  0.65159100  0.22855900  0.41244000  1
  C  1103  1  0.65228100  0.21726100  0.38938500  1
  C  1104  1  0.64969900  0.21745800  0.44181200  1
  C  1105  1  0.64979100  0.20093200  0.44835400  1
  C  1107  1  0.65079100  0.16815900  0.44809100  1
  C  1108  1  0.64627000  0.18541800  0.47020300  1
  C  1109  1  0.64573600  0.20543100  0.47036800  1
  C  1110  1  0.65137500  0.14500500  0.44120500  1
  C  1111  1  0.65159800  0.12751500  0.41855000  1
  C  1113  1  0.65082400  0.10888800  0.38097900  1
  C  1114  1  0.64938200  0.09329000  0.38822500  1
  C  1115  1  0.65035500  0.10470900  0.41127000  1
  C  1116  1  0.65045300  0.10394100  0.35833600  1
  C  1117  1  0.64748000  0.08074000  0.34138300  1
  C  1118  1  0.35095900  0.06590000  0.33645800  1
  C  1119  1  0.34578600  0.04264500  0.32207300  1
  C  1120  1  0.63696600  0.03330200  0.31197400  1
  C  1121  1  0.60053500  0.04834800  0.31664100  1
  C  1122  1  0.60554200  0.07153300  0.33113800  1
  C  1123  1  0.64838200  0.13909700  0.45827300  1
  C  1124  1  0.35271200  0.14134700  0.47182400  1
  C  1125  1  0.34845500  0.13751900  0.48994700  1
  C  1126  1  0.63976700  0.13129900  0.49503500  1
  C  1127  1  0.60232600  0.12883200  0.48121900  1
  C  1128  1  0.60642700  0.13284700  0.46324300  1
  C  1129  1  0.64575300  0.24025800  0.45911200  1
  C  1130  1  0.60263300  0.25015100  0.46571000  1
  C  1131  1  0.59764600  0.27152200  0.48459900  1
  C  1132  1  0.63542800  0.28369700  0.49760200  1
  C  1133  1  0.34535000  0.27377800  0.49060100  1
  C  1134  1  0.35044500  0.25235500  0.47170400  1
  C  1135  1  0.65561200  0.18361000  0.34248300  1
  C  1136  1  0.61800900  0.19186100  0.33615100  1
  C  1137  1  0.36550000  0.18597700  0.33522800  1
  C  1138  1  0.37100700  0.19658600  0.32247700  1
  C  1139  1  0.66700700  0.20539500  0.31652500  1
  C  1140  1  0.62357300  0.20245800  0.32332200  1
  C  1167  1  0.63421900  0.12750200  0.51286800  1
  C  1168  1  0.62865800  0.30435800  0.51688800  1
  C  1169  1  0.67462800  0.21797700  0.30601000  1
  C  1170  1  0.63009000  0.01030000  0.29784600  1
  C  1175  1  0.65629400  0.76195000  0.40303600  1
  C  1177  1  0.36552400  0.76210600  0.37362600  1
  C  1178  1  0.32548500  0.76208600  0.36260600  1
  C  1180  1  0.61585000  0.76180700  0.39200400  1
  C  1183  1  0.54392400  0.77770500  0.40490200  1
  C  1189  1  0.65617600  0.56283100  0.16318500  1
  C  1191  1  0.36542200  0.53325900  0.16301500  1
  C  1192  1  0.32538700  0.52224600  0.16301200  1
  C  1194  1  0.61573500  0.55191600  0.16327400  1
  C  1197  1  0.54382900  0.54890500  0.14736000  1
  C  1203  1  0.65620000  0.52209300  0.36224700  1
  C  1205  1  0.36545900  0.55148000  0.39183600  1
  C  1206  1  0.32543000  0.56251700  0.40283700  1
  C  1208  1  0.61576500  0.53311700  0.37315700  1
  C  1211  1  0.54381300  0.52026100  0.37617200  1
  C  1217  1  0.65615900  0.13602400  0.54932400  1
  C  1219  1  0.36538200  0.13579700  0.57870300  1
  C  1220  1  0.32533600  0.13585700  0.58974000  1
  C  1222  1  0.61571100  0.13617100  0.56035600  1
  C  1225  1  0.54375200  0.12031900  0.54748300  1
  C  1231  1  0.65604100  0.33505900  0.78914300  1
  C  1233  1  0.36528000  0.36463500  0.78930800  1
  C  1234  1  0.32524100  0.37563600  0.78928400  1
  C  1236  1  0.61560300  0.34595100  0.78899700  1
  C  1239  1  0.54367100  0.34895600  0.80489000  1
  C  1245  1  0.65602700  0.37581500  0.59004000  1
  C  1247  1  0.36529400  0.34641500  0.56047000  1
  C  1248  1  0.32526800  0.33539800  0.54945600  1
  C  1250  1  0.61559300  0.36480500  0.57912200  1
  C  1253  1  0.54367700  0.37769500  0.57610400  1
  C  1259  1  0.64806800  0.92557200  0.26032600  1
  C  1261  1  0.61401900  0.93899300  0.25862000  1
  C  1263  1  0.53801500  0.92839900  0.25477100  1
  C  1269  1  0.64799000  0.25650600  0.99953200  1
  C  1271  1  0.35278300  0.24965700  0.96594900  1
  C  1272  1  0.31934200  0.23423800  0.95251000  1
  C  1274  1  0.61395100  0.24137600  0.98611800  1
  C  1277  1  0.53794100  0.24813400  0.99671500  1
  C  1283  1  0.64826000  0.66415500  0.66799800  1
  C  1285  1  0.35291200  0.63807300  0.67548700  1
  C  1286  1  0.31943000  0.64002900  0.69088100  1
  C  1288  1  0.61186700  0.66390100  0.68112000  1
  C  1291  1  0.53762000  0.66337600  0.66927700  1
  C  1297  1  0.35290800  0.93875000  0.66526400  1
  C  1298  1  0.31947800  0.92530300  0.66723800  1
  C  1304  1  0.64799700  0.64140200  0.95279500  1
  C  1306  1  0.35280700  0.64822600  0.98635400  1
  C  1307  1  0.31938000  0.66365200  0.99980400  1
  C  1309  1  0.61396100  0.65653800  0.96622000  1
  C  1312  1  0.53795100  0.64981600  0.95563200  1
  C  1318  1  0.64802400  0.23313400  0.28372100  1
  C  1320  1  0.35281700  0.25986500  0.27686900  1
  C  1321  1  0.31937600  0.25788700  0.26145000  1
  C  1323  1  0.61398100  0.23142000  0.26858900  1
  C  1326  1  0.53797400  0.22758700  0.27534800  1
  C  1332  1  0.31934200  0.78250700  0.16350300  1
  C  1333  1  0.31879800  0.76257200  0.14337500  1
  C  1334  1  0.31752500  0.74493700  0.14778600  1
  C  1336  1  0.31835900  0.77769300  0.18086100  1
  C  1337  1  0.31857900  0.79401800  0.20410900  1
  C  1338  1  0.31813600  0.78871100  0.22154900  1
  C  1340  1  0.31745000  0.76956500  0.23993700  1
  C  1341  1  0.31852800  0.79227700  0.25577500  1
  C  1342  1  0.31920000  0.80403500  0.24447800  1
  C  1343  1  0.31649800  0.75180400  0.24466800  1
  C  1344  1  0.31645700  0.72873600  0.22814100  1
  C  1346  1  0.31740300  0.69622700  0.19536800  1
  C  1347  1  0.31286900  0.69137300  0.21262500  1
  C  1348  1  0.31224700  0.71122500  0.23263600  1
  C  1349  1  0.31799100  0.67995800  0.17221300  1
  C  1350  1  0.31833600  0.68512600  0.15472500  1
  C  1352  1  0.31759600  0.70407300  0.13610100  1
  C  1353  1  0.31614600  0.68123000  0.12050200  1
  C  1354  1  0.31713600  0.66960000  0.13191900  1
  C  1355  1  0.31718000  0.72177100  0.13115700  1
  C  1356  1  0.31421000  0.71552600  0.10795600  1
  C  1357  1  0.01766600  0.70560200  0.09310600  1
  C  1358  1  0.01246300  0.69672100  0.06984900  1
  C  1359  1  0.30362500  0.69747100  0.06051400  1
  C  1360  1  0.26721100  0.70785200  0.07556700  1
  C  1361  1  0.27223900  0.71652300  0.09874900  1
  C  1362  1  0.31502500  0.65698300  0.16630300  1
  C  1363  1  0.01935800  0.64568500  0.16856100  1
  C  1364  1  0.01511200  0.62373400  0.16473300  1
  C  1365  1  0.30643300  0.61242100  0.15850200  1
  C  1366  1  0.26898200  0.62376800  0.15603700  1
  C  1367  1  0.27308000  0.64575600  0.16004000  1
  C  1368  1  0.31258900  0.75730600  0.26747100  1
  C  1369  1  0.26947500  0.76061500  0.27737300  1
  C  1370  1  0.26449500  0.76308400  0.29873800  1
  C  1371  1  0.30227700  0.76223500  0.31090400  1
  C  1372  1  0.01218900  0.75928500  0.30097000  1
  C  1373  1  0.01727400  0.75677300  0.27955400  1
  C  1374  1  0.32234900  0.81729600  0.21083200  1
  C  1375  1  0.28472900  0.83186500  0.21911000  1
  C  1376  1  0.03221400  0.82690500  0.21310500  1
  C  1377  1  0.03769400  0.85026800  0.22371400  1
  C  1378  1  0.33369400  0.86502700  0.23256100  1
  C  1379  1  0.29027700  0.85528900  0.22968400  1
  C  1406  1  0.30089200  0.59078800  0.15469600  1
  C  1407  1  0.29551400  0.76359400  0.33155700  1
  C  1408  1  0.34132700  0.88811900  0.24516600  1
  C  1409  1  0.29672600  0.68859500  0.03751300  1
  C  1414  1  0.31941000  0.30273200  0.14260700  1
  C  1415  1  0.31882500  0.30254000  0.16254200  1
  C  1416  1  0.31745700  0.32458500  0.18017500  1
  C  1418  1  0.31828800  0.32490200  0.14741900  1
  C  1419  1  0.31845000  0.33182400  0.13109200  1
  C  1420  1  0.31794400  0.35457100  0.13639600  1
  C  1422  1  0.31726800  0.39210300  0.15554000  1
  C  1423  1  0.31825400  0.38522600  0.13282600  1
  C  1424  1  0.31894400  0.36217300  0.12107000  1
  C  1425  1  0.31634600  0.41459900  0.17330100  1
  C  1426  1  0.31646000  0.42114100  0.19636900  1
  C  1428  1  0.31746100  0.42087800  0.22887800  1
  C  1429  1  0.31296400  0.44299300  0.23373300  1
  C  1430  1  0.31243000  0.44315700  0.21388400  1
  C  1431  1  0.31802800  0.41399100  0.24514600  1
  C  1432  1  0.31823400  0.39133700  0.23998100  1
  C  1434  1  0.31745400  0.35376700  0.22103800  1
  C  1435  1  0.31599400  0.36101300  0.24388200  1
  C  1436  1  0.31697700  0.38405800  0.25550800  1
  C  1437  1  0.31708200  0.33112300  0.20334100  1
  C  1438  1  0.31410600  0.31417000  0.20959000  1
  C  1439  1  0.01758500  0.30924800  0.21950800  1
  C  1440  1  0.01240500  0.29486300  0.22837800  1
  C  1441  1  0.30358500  0.28476700  0.22762400  1
  C  1442  1  0.26716100  0.28942900  0.21724000  1
  C  1443  1  0.27217100  0.30392400  0.20855000  1
  C  1444  1  0.31503100  0.43105900  0.26812200  1
  C  1445  1  0.01936900  0.44460300  0.27942400  1
  C  1446  1  0.01511500  0.46272600  0.30137500  1
  C  1447  1  0.30641900  0.46782400  0.31268300  1
  C  1448  1  0.26897200  0.45401900  0.30133300  1
  C  1449  1  0.27307300  0.43604100  0.27934000  1
  C  1450  1  0.31243300  0.43190000  0.16780000  1
  C  1451  1  0.26932300  0.43850800  0.16450600  1
  C  1452  1  0.26436300  0.45739700  0.16202500  1
  C  1453  1  0.30216200  0.47039200  0.16285100  1
  C  1454  1  0.01207400  0.46338000  0.16576700  1
  C  1455  1  0.01714200  0.44448300  0.16829300  1
  C  1456  1  0.32226100  0.31527000  0.10781800  1
  C  1457  1  0.28465500  0.30894100  0.09324000  1
  C  1458  1  0.03214300  0.30800900  0.09819200  1
  C  1459  1  0.03764600  0.29525900  0.07483200  1
  C  1460  1  0.33364700  0.28931200  0.06007400  1
  C  1461  1  0.29021300  0.29611200  0.06981400  1
  C  1488  1  0.30087200  0.48565600  0.33431200  1
  C  1489  1  0.29541600  0.48968000  0.16147700  1
  C  1490  1  0.34126600  0.27879600  0.03697700  1
  C  1491  1  0.29670600  0.27063900  0.23649900  1
  C  1496  1  0.31951100  0.76161400  0.62237800  1
  C  1497  1  0.31894000  0.78174200  0.62257100  1
  C  1498  1  0.31759600  0.77732800  0.60052300  1
  C  1500  1  0.31840000  0.74425500  0.60020700  1
  C  1501  1  0.31853500  0.72100900  0.59328700  1
  C  1502  1  0.31807200  0.70356500  0.57054000  1
  C  1504  1  0.31744400  0.68517300  0.53300700  1
  C  1505  1  0.31842000  0.66933800  0.53988400  1
  C  1506  1  0.31908200  0.68063600  0.56293900  1
  C  1507  1  0.31654500  0.68044000  0.51051100  1
  C  1508  1  0.31661300  0.69696400  0.50396700  1
  C  1510  1  0.31755200  0.72973800  0.50422900  1
  C  1511  1  0.31307200  0.71247700  0.48211600  1
  C  1512  1  0.31253500  0.69246400  0.48195300  1
  C  1513  1  0.31808900  0.75289200  0.51111400  1
  C  1514  1  0.31831900  0.77038100  0.53377100  1
  C  1516  1  0.31758200  0.78900900  0.57134200  1
  C  1517  1  0.31612900  0.80460600  0.56409600  1
  C  1518  1  0.31709200  0.79318700  0.54104900  1
  C  1519  1  0.31723800  0.79395700  0.59398500  1
  C  1520  1  0.31425100  0.81715700  0.61093700  1
  C  1521  1  0.01772300  0.83199600  0.61586100  1
  C  1522  1  0.01253400  0.85525200  0.63024300  1
  C  1523  1  0.30371300  0.86459400  0.64034600  1
  C  1524  1  0.26728900  0.84955000  0.63567900  1
  C  1525  1  0.27230600  0.82636700  0.62117800  1
  C  1526  1  0.31510600  0.75880000  0.49404700  1
  C  1527  1  0.01945600  0.75655400  0.48050600  1
  C  1528  1  0.01522600  0.76039900  0.46239400  1
  C  1529  1  0.30654800  0.76662800  0.45730300  1
  C  1530  1  0.26908700  0.76908600  0.47110600  1
  C  1531  1  0.27317100  0.76507600  0.48908700  1
  C  1532  1  0.31259500  0.65763900  0.49321500  1
  C  1533  1  0.26947200  0.64775700  0.48660700  1
  C  1534  1  0.26447800  0.62638400  0.46772400  1
  C  1535  1  0.30225400  0.61420800  0.45470700  1
  C  1536  1  0.01217900  0.62412100  0.46170100  1
  C  1537  1  0.01727400  0.64554000  0.48060200  1
  C  1538  1  0.32235900  0.71428100  0.60983800  1
  C  1539  1  0.28474600  0.70603500  0.61616300  1
  C  1540  1  0.03223100  0.71198900  0.61715000  1
  C  1541  1  0.03773400  0.70135800  0.62988200  1
  C  1542  1  0.33375200  0.69255200  0.63584000  1
  C  1543  1  0.29032700  0.69544200  0.62899400  1
  C  1570  1  0.30102700  0.77044600  0.43948400  1
  C  1571  1  0.29547600  0.59356200  0.43540700  1
  C  1572  1  0.34138400  0.67996600  0.64635100  1
  C  1573  1  0.29682100  0.88759600  0.65447400  1
  C  1578  1  0.31935600  0.11539400  0.78882700  1
  C  1579  1  0.31879500  0.13532900  0.80895400  1
  C  1580  1  0.31747700  0.15296200  0.80453900  1
  C  1582  1  0.31829200  0.12020500  0.77146600  1
  C  1583  1  0.31848100  0.10387800  0.74822000  1
  C  1584  1  0.31797400  0.10918100  0.73077500  1
  C  1586  1  0.31723400  0.12832400  0.71238600  1
  C  1587  1  0.31823800  0.10561100  0.69654900  1
  C  1588  1  0.31899400  0.09385500  0.70784800  1
  C  1589  1  0.31627800  0.14608500  0.70765200  1
  C  1590  1  0.31639600  0.16915400  0.72417400  1
  C  1592  1  0.31742300  0.20166700  0.75694500  1
  C  1593  1  0.31289900  0.20651700  0.73968400  1
  C  1594  1  0.31232200  0.18666800  0.71967500  1
  C  1595  1  0.31796400  0.21793200  0.78010000  1
  C  1596  1  0.31822400  0.21276800  0.79759000  1
  C  1598  1  0.31745000  0.19382500  0.81621800  1
  C  1599  1  0.31594400  0.21666900  0.83181500  1
  C  1600  1  0.31696700  0.22829500  0.82039600  1
  C  1601  1  0.31711600  0.17612900  0.82116600  1
  C  1602  1  0.31413300  0.18238100  0.84436800  1
  C  1603  1  0.01759800  0.19229900  0.85921000  1
  C  1604  1  0.01239200  0.20118400  0.88246700  1
  C  1605  1  0.30357100  0.20041500  0.89180300  1
  C  1606  1  0.26715700  0.19002900  0.87675300  1
  C  1607  1  0.27218100  0.18134800  0.85357000  1
  C  1608  1  0.31494400  0.24090700  0.78600700  1
  C  1609  1  0.01927700  0.25221600  0.78377000  1
  C  1610  1  0.01500300  0.27416400  0.78759100  1
  C  1611  1  0.30630800  0.28547000  0.79380800  1
  C  1612  1  0.26886400  0.27411300  0.79625900  1
  C  1613  1  0.27298500  0.25212600  0.79225500  1
  C  1614  1  0.31238600  0.14057900  0.68484800  1
  C  1615  1  0.26927600  0.13729500  0.67495200  1
  C  1616  1  0.26430600  0.13483300  0.65358800  1
  C  1617  1  0.30209500  0.13568000  0.64142600  1
  C  1618  1  0.01200700  0.13859800  0.65135100  1
  C  1619  1  0.01708800  0.14107800  0.67275500  1
  C  1620  1  0.32228800  0.08060100  0.74149600  1
  C  1621  1  0.28467200  0.06603200  0.73324700  1
  C  1622  1  0.03216300  0.07099400  0.73920700  1
  C  1623  1  0.03767000  0.04763300  0.72860100  1
  C  1624  1  0.33368400  0.03286900  0.71976100  1
  C  1625  1  0.29026000  0.04260600  0.72263000  1
  C  1652  1  0.30075000  0.30710000  0.79761200  1
  C  1653  1  0.29533800  0.13435300  0.62078600  1
  C  1654  1  0.34132000  0.00977600  0.70715800  1
  C  1655  1  0.29667900  0.20928800  0.91480400  1
  C  1660  1  0.31922700  0.59516600  0.80971900  1
  C  1661  1  0.31869400  0.59536100  0.78978500  1
  C  1662  1  0.31740600  0.57331600  0.77214900  1
  C  1664  1  0.31822700  0.57299400  0.80490500  1
  C  1665  1  0.31843700  0.56607000  0.82122800  1
  C  1666  1  0.31797400  0.54332100  0.81591800  1
  C  1668  1  0.31726100  0.50578900  0.79677200  1
  C  1669  1  0.31833900  0.51266200  0.81948300  1
  C  1670  1  0.31903200  0.53571500  0.83124200  1
  C  1671  1  0.31629500  0.48329600  0.77900900  1
  C  1672  1  0.31625100  0.47675800  0.75594300  1
  C  1674  1  0.31721100  0.47702300  0.72343400  1
  C  1675  1  0.31266300  0.45491200  0.71857900  1
  C  1676  1  0.31203100  0.45475200  0.73842900  1
  C  1677  1  0.31781200  0.48391100  0.70716700  1
  C  1678  1  0.31817300  0.50656700  0.71233400  1
  C  1680  1  0.31746400  0.54413700  0.73128400  1
  C  1681  1  0.31601800  0.53689500  0.70844100  1
  C  1682  1  0.31699100  0.51384900  0.69681000  1
  C  1683  1  0.31706500  0.56677900  0.74898200  1
  C  1684  1  0.31411600  0.58373500  0.74273800  1
  C  1685  1  0.01758500  0.58865800  0.73282100  1
  C  1686  1  0.01240200  0.60303500  0.72394000  1
  C  1687  1  0.30358100  0.61312400  0.72468200  1
  C  1688  1  0.26715100  0.60845800  0.73505700  1
  C  1689  1  0.27215400  0.59394700  0.74372900  1
  C  1690  1  0.31484600  0.46684500  0.68419000  1
  C  1691  1  0.01917900  0.45328700  0.67289500  1
  C  1692  1  0.01493300  0.43516300  0.65094500  1
  C  1693  1  0.30625700  0.43008400  0.63962700  1
  C  1694  1  0.26880600  0.44390000  0.65097200  1
  C  1695  1  0.27290400  0.46188400  0.67295900  1
  C  1696  1  0.31237600  0.46599700  0.78451100  1
  C  1697  1  0.26925900  0.45940700  0.78781700  1
  C  1698  1  0.26427200  0.44051000  0.79028400  1
  C  1699  1  0.30205100  0.42749100  0.78943500  1
  C  1700  1  0.01196600  0.43447200  0.78648800  1
  C  1701  1  0.01705800  0.45337600  0.78397700  1
  C  1702  1  0.32222100  0.58262200  0.84450600  1
  C  1703  1  0.28460800  0.58892000  0.85907800  1
  C  1704  1  0.03208900  0.58995000  0.85411200  1
  C  1705  1  0.03758200  0.60269900  0.87747400  1
  C  1706  1  0.33358600  0.60861900  0.89223700  1
  C  1707  1  0.29016500  0.60176700  0.88250200  1
  C  1734  1  0.30071300  0.41225400  0.61799600  1
  C  1735  1  0.29527700  0.40819700  0.79079300  1
  C  1736  1  0.34122900  0.61910100  0.91532700  1
  C  1737  1  0.29670300  0.62724700  0.71580000  1
  C  1742  1  0.31943700  0.13628300  0.32994500  1
  C  1743  1  0.31885600  0.11615500  0.32975000  1
  C  1744  1  0.31748800  0.12056900  0.35179800  1
  C  1746  1  0.31831200  0.15364200  0.35211400  1
  C  1747  1  0.31846700  0.17688900  0.35903500  1
  C  1748  1  0.31795400  0.19433200  0.38178300  1
  C  1750  1  0.31727500  0.21272200  0.41931600  1
  C  1751  1  0.31825800  0.22855900  0.41243900  1
  C  1752  1  0.31894700  0.21726100  0.38938500  1
  C  1753  1  0.31636600  0.21745600  0.44181100  1
  C  1754  1  0.31645700  0.20093100  0.44835400  1
  C  1756  1  0.31745700  0.16815900  0.44809200  1
  C  1757  1  0.31293700  0.18541800  0.47020400  1
  C  1758  1  0.31240600  0.20543100  0.47036900  1
  C  1759  1  0.31804200  0.14500400  0.44120400  1
  C  1760  1  0.31826500  0.12751500  0.41854900  1
  C  1762  1  0.31749100  0.10888700  0.38097800  1
  C  1763  1  0.31604800  0.09329000  0.38822400  1
  C  1764  1  0.31702500  0.10470900  0.41127100  1
  C  1765  1  0.31711900  0.10394100  0.35833500  1
  C  1766  1  0.31414600  0.08073900  0.34138300  1
  C  1767  1  0.01762500  0.06589900  0.33645700  1
  C  1768  1  0.01245300  0.04264400  0.32207200  1
  C  1769  1  0.30363200  0.03330100  0.31197400  1
  C  1770  1  0.26720500  0.04834800  0.31664000  1
  C  1771  1  0.27221200  0.07153300  0.33113700  1
  C  1772  1  0.31504800  0.13909600  0.45827300  1
  C  1773  1  0.01937900  0.14134600  0.47182300  1
  C  1774  1  0.01512200  0.13751900  0.48994700  1
  C  1775  1  0.30643300  0.13129800  0.49503500  1
  C  1776  1  0.26899200  0.12883100  0.48121900  1
  C  1777  1  0.27309400  0.13284700  0.46324300  1
  C  1778  1  0.31242000  0.24025700  0.45911200  1
  C  1779  1  0.26929900  0.25015000  0.46571000  1
  C  1780  1  0.26431300  0.27152000  0.48459800  1
  C  1781  1  0.30209500  0.28369700  0.49760100  1
  C  1782  1  0.01201700  0.27377700  0.49060100  1
  C  1783  1  0.01711200  0.25235600  0.47170500  1
  C  1784  1  0.32228200  0.18361100  0.34248400  1
  C  1785  1  0.28467500  0.19186100  0.33615100  1
  C  1786  1  0.03216600  0.18597600  0.33522700  1
  C  1787  1  0.03767300  0.19658600  0.32247700  1
  C  1788  1  0.33367400  0.20539600  0.31652500  1
  C  1789  1  0.29024000  0.20245800  0.32332200  1
  C  1816  1  0.30088500  0.12750200  0.51286700  1
  C  1817  1  0.29532400  0.30435700  0.51688600  1
  C  1818  1  0.34129600  0.21797700  0.30601000  1
  C  1819  1  0.29675700  0.01030000  0.29784500  1
  C  1824  1  0.32296100  0.76194900  0.40303800  1
  C  1826  1  0.03219000  0.76210500  0.37362500  1
  C  1827  1  0.99215100  0.76208600  0.36260600  1
  C  1829  1  0.28251600  0.76180700  0.39200500  1
  C  1832  1  0.21059100  0.77770500  0.40490400  1
  C  1838  1  0.32284300  0.56283100  0.16318400  1
  C  1840  1  0.03208900  0.53325900  0.16301400  1
  C  1841  1  0.99205300  0.52224700  0.16301400  1
  C  1843  1  0.28240100  0.55191600  0.16327300  1
  C  1846  1  0.21049600  0.54890500  0.14735900  1
  C  1852  1  0.32286600  0.52210200  0.36225600  1
  C  1854  1  0.03212600  0.55148000  0.39183700  1
  C  1855  1  0.99209500  0.56251700  0.40283700  1
  C  1857  1  0.28242800  0.53312700  0.37316600  1
  C  1860  1  0.21047900  0.52026500  0.37617700  1
  C  1866  1  0.32282600  0.13602500  0.54932600  1
  C  1868  1  0.03204800  0.13579700  0.57870200  1
  C  1869  1  0.99200300  0.13585700  0.58974000  1
  C  1871  1  0.28237800  0.13617100  0.56035500  1
  C  1874  1  0.21041800  0.12031800  0.54748300  1
  C  1880  1  0.32270700  0.33506700  0.78914300  1
  C  1882  1  0.03194700  0.36463500  0.78930700  1
  C  1883  1  0.99190900  0.37563700  0.78928400  1
  C  1885  1  0.28227000  0.34595800  0.78899700  1
  C  1888  1  0.21034100  0.34896000  0.80489000  1
  C  1894  1  0.32269400  0.37581100  0.59003800  1
  C  1896  1  0.03196000  0.34641700  0.56047100  1
  C  1897  1  0.99193300  0.33539800  0.54945500  1
  C  1899  1  0.28226000  0.36480200  0.57912100  1
  C  1902  1  0.21034400  0.37769200  0.57610200  1
  C  1908  1  0.31473400  0.92557100  0.26032500  1
  C  1910  1  0.28068800  0.93899200  0.25862000  1
  C  1912  1  0.20468100  0.92839900  0.25477200  1
  C  1918  1  0.31465600  0.25650600  0.99953300  1
  C  1920  1  0.01945000  0.24965700  0.96594800  1
  C  1921  1  0.98600800  0.23423700  0.95250900  1
  C  1923  1  0.28061800  0.24137600  0.98611700  1
  C  1926  1  0.20461100  0.24813500  0.99671500  1
  C  1932  1  0.31475800  0.66478900  0.66861800  1
  C  1934  1  0.01956400  0.63807800  0.67549200  1
  C  1935  1  0.98608100  0.64003200  0.69088500  1
  C  1937  1  0.28067500  0.66647600  0.68371900  1
  C  1940  1  0.20467800  0.67026800  0.67690400  1
  C  1946  1  0.01957500  0.93874900  0.66526300  1
  C  1947  1  0.98614200  0.92530400  0.66723900  1
  C  1953  1  0.31466300  0.64139700  0.95278200  1
  C  1955  1  0.01947300  0.64822500  0.98635300  1
  C  1956  1  0.98604500  0.66365100  0.99980400  1
  C  1958  1  0.28063100  0.65653300  0.96620900  1
  C  1961  1  0.20461400  0.64981400  0.95562700  1
  C  1967  1  0.31469000  0.23313300  0.28371900  1
  C  1969  1  0.01948300  0.25986400  0.27686800  1
  C  1970  1  0.98604200  0.25788800  0.26145200  1
  C  1972  1  0.28064800  0.23142000  0.26858900  1
  C  1975  1  0.20464100  0.22758800  0.27534900  1
  N  3  1  0.95140800  0.96167100  0.27072900  1
  N  6  1  0.68268600  0.96138400  0.67755500  1
  N  14  1  0.61807600  0.96167200  0.27072900  1
  N  17  1  0.34935100  0.96139300  0.67756000  1
  N  25  1  0.28474300  0.96167100  0.27072900  1
  N  28  1  0.01601700  0.96139300  0.67755900  1
  N  37  1  0.98385400  0.75498400  0.17047600  1
  N  41  1  0.98384500  0.76829400  0.21974700  1
  N  47  1  0.98648600  0.71882600  0.20559400  1
  N  53  1  0.98544300  0.70548300  0.15635300  1
  N  119  1  0.98371700  0.33722700  0.17012600  1
  N  123  1  0.98371800  0.37318600  0.15681300  1
  N  129  1  0.98650500  0.40850500  0.20627900  1
  N  135  1  0.98535000  0.37260500  0.21962400  1
  N  201  1  0.98384500  0.75463900  0.58788200  1
  N  205  1  0.98386200  0.70536700  0.55192500  1
  N  211  1  0.98662500  0.71951000  0.51660200  1
  N  217  1  0.98545300  0.76875600  0.55250200  1
  N  283  1  0.98374000  0.14291300  0.78184900  1
  N  287  1  0.98369300  0.12959800  0.73257700  1
  N  293  1  0.98644300  0.17906500  0.74672000  1
  N  299  1  0.98535700  0.19241200  0.79596500  1
  N  365  1  0.98371800  0.56067100  0.78219500  1
  N  369  1  0.98367100  0.52471000  0.79550200  1
  N  375  1  0.98629400  0.48939300  0.74603200  1
  N  381  1  0.98529100  0.52529600  0.73269400  1
  N  447  1  0.98374200  0.14325900  0.36444100  1
  N  451  1  0.98372900  0.19253100  0.40039800  1
  N  457  1  0.98651400  0.17838600  0.43571800  1
  N  463  1  0.98537500  0.12914000  0.39981900  1
  N  527  1  0.69603700  0.76184900  0.39311800  1
  N  530  1  0.95240500  0.76154300  0.37223300  1
  N  538  1  0.99182800  0.76070200  0.42161100  1
  N  539  1  0.66077800  0.76164600  0.34314100  1
  N  541  1  0.69592600  0.55301700  0.16328800  1
  N  544  1  0.95230300  0.53240900  0.16353700  1
  N  552  1  0.99170500  0.58265000  0.16442600  1
  N  553  1  0.66067600  0.50322200  0.16345300  1
  N  555  1  0.69595700  0.53198200  0.37207200  1
  N  558  1  0.95234100  0.55289900  0.39267500  1
  N  566  1  0.99171900  0.50351200  0.34244700  1
  N  567  1  0.66073700  0.58196000  0.42185800  1
  N  569  1  0.69590100  0.13606300  0.55921400  1
  N  572  1  0.95226100  0.13642400  0.58012300  1
  N  580  1  0.99170300  0.13723700  0.53073200  1
  N  581  1  0.66062200  0.13626400  0.60918900  1
  N  583  1  0.69578900  0.34487500  0.78904800  1
  N  586  1  0.95216100  0.36546700  0.78873600  1
  N  594  1  0.99157900  0.31524500  0.78789400  1
  N  595  1  0.66054100  0.39465300  0.78884800  1
  N  597  1  0.69578300  0.36590300  0.58023100  1
  N  600  1  0.95217600  0.34502900  0.55961200  1
  N  608  1  0.99154600  0.39439200  0.60985700  1
  N  609  1  0.66057500  0.31593500  0.53043500  1
  N  611  1  0.68266300  0.93650400  0.27476300  1
  N  618  1  0.97842800  0.90321500  0.24854000  1
  N  619  1  0.65584200  0.99491200  0.29719300  1
  N  621  1  0.68257900  0.26000700  0.98859200  1
  N  624  1  0.95133000  0.23080500  0.96343800  1
  N  632  1  0.97835100  0.26708700  0.02188900  1
  N  633  1  0.65575700  0.22402200  0.93019100  1
  N  635  1  0.68531300  0.65177000  0.66658900  1
  N  638  1  0.95136200  0.65436800  0.69429200  1
  N  646  1  0.97843700  0.67656900  0.65804300  1
  N  647  1  0.65652100  0.62797600  0.70116400  1
  N  650  1  0.95144600  0.93622500  0.68159300  1
  N  653  1  0.97842600  0.99468100  0.70377900  1
  N  654  1  0.65590200  0.90297500  0.65512400  1
  N  656  1  0.68258900  0.63788800  0.96372200  1
  N  659  1  0.95136400  0.66709900  0.98888700  1
  N  667  1  0.97834200  0.63083100  0.93042800  1
  N  668  1  0.65580400  0.67387100  0.02213300  1
  N  670  1  0.68261400  0.24757100  0.28722000  1
  N  673  1  0.95136300  0.24352800  0.25801700  1
  N  681  1  0.97838300  0.22135900  0.29430100  1
  N  682  1  0.65578800  0.26998900  0.25123500  1
  N  686  1  0.65052000  0.75498500  0.17048000  1
  N  690  1  0.65051400  0.76829500  0.21974800  1
  N  696  1  0.65315200  0.71882600  0.20559500  1
  N  702  1  0.65211200  0.70548500  0.15635600  1
  N  768  1  0.65038500  0.33722700  0.17012700  1
  N  772  1  0.65038500  0.37318500  0.15681300  1
  N  778  1  0.65317300  0.40850400  0.20627700  1
  N  784  1  0.65201700  0.37260300  0.21962200  1
  N  850  1  0.65044600  0.75461300  0.58785700  1
  N  854  1  0.65044900  0.70534300  0.55188500  1
  N  860  1  0.65327700  0.71950900  0.51658200  1
  N  866  1  0.65210800  0.76875100  0.55249800  1
  N  932  1  0.65040900  0.14291000  0.78184800  1
  N  936  1  0.65035800  0.12959500  0.73257600  1
  N  942  1  0.65310800  0.17906200  0.74671900  1
  N  948  1  0.65202400  0.19240900  0.79596500  1
  N  1014  1  0.65046300  0.56066300  0.78222100  1
  N  1018  1  0.65034100  0.52469700  0.79551700  1
  N  1024  1  0.65295600  0.48938400  0.74604100  1
  N  1030  1  0.65202400  0.52528800  0.73271300  1
  N  1096  1  0.65040900  0.14326000  0.36444100  1
  N  1100  1  0.65039500  0.19253100  0.40039900  1
  N  1106  1  0.65318300  0.17838500  0.43571800  1
  N  1112  1  0.65204100  0.12914100  0.39981900  1
  N  1176  1  0.36270300  0.76184800  0.39311900  1
  N  1179  1  0.61907300  0.76154200  0.37223200  1
  N  1187  1  0.65849400  0.76070500  0.42161100  1
  N  1188  1  0.32744400  0.76164700  0.34314200  1
  N  1190  1  0.36259100  0.55301700  0.16328900  1
  N  1193  1  0.61896800  0.53240800  0.16353700  1
  N  1201  1  0.65837200  0.58265000  0.16442500  1
  N  1202  1  0.32734600  0.50322200  0.16345400  1
  N  1204  1  0.36261800  0.53199200  0.37208200  1
  N  1207  1  0.61901200  0.55288800  0.39266500  1
  N  1215  1  0.65838600  0.50350300  0.34243900  1
  N  1216  1  0.32740400  0.58197000  0.42187400  1
  N  1218  1  0.36256700  0.13606500  0.55921500  1
  N  1221  1  0.61892800  0.13642400  0.58012200  1
  N  1229  1  0.65836900  0.13723800  0.53073300  1
  N  1230  1  0.32728900  0.13626500  0.60918900  1
  N  1232  1  0.36245600  0.34488300  0.78904800  1
  N  1235  1  0.61883000  0.36546000  0.78873700  1
  N  1243  1  0.65824700  0.31523700  0.78789300  1
  N  1244  1  0.32720800  0.39466200  0.78884600  1
  N  1246  1  0.36244900  0.36590100  0.58022800  1
  N  1249  1  0.61884300  0.34503200  0.55961600  1
  N  1257  1  0.65821000  0.39439400  0.60986000  1
  N  1258  1  0.32724100  0.31593300  0.53043200  1
  N  1260  1  0.34933000  0.93650300  0.27476300  1
  N  1267  1  0.64509400  0.90321600  0.24854000  1
  N  1268  1  0.32250800  0.99491100  0.29719300  1
  N  1270  1  0.34924600  0.26000700  0.98859300  1
  N  1273  1  0.61799900  0.23080400  0.96343800  1
  N  1281  1  0.64501700  0.26708600  0.02188900  1
  N  1282  1  0.32242400  0.22402300  0.93019100  1
  N  1284  1  0.34938100  0.65036900  0.66513800  1
  N  1287  1  0.61609000  0.65210400  0.69200300  1
  N  1295  1  0.64517900  0.67577200  0.65726000  1
  N  1296  1  0.32249800  0.62792000  0.70109100  1
  N  1299  1  0.61811700  0.93621700  0.68158900  1
  N  1302  1  0.64509400  0.99467500  0.70377500  1
  N  1303  1  0.32256500  0.90298500  0.65512800  1
  N  1305  1  0.34925600  0.63788300  0.96371000  1
  N  1308  1  0.61802900  0.66710600  0.98889800  1
  N  1316  1  0.64501000  0.63083200  0.93044000  1
  N  1317  1  0.32247800  0.67386400  0.02212200  1
  N  1319  1  0.34928000  0.24757200  0.28722100  1
  N  1322  1  0.61802900  0.24352800  0.25801700  1
  N  1330  1  0.64505100  0.22135800  0.29430100  1
  N  1331  1  0.32245400  0.26999000  0.25123500  1
  N  1335  1  0.31718700  0.75498300  0.17047700  1
  N  1339  1  0.31718000  0.76829400  0.21974600  1
  N  1345  1  0.31981900  0.71882600  0.20559400  1
  N  1351  1  0.31877800  0.70548300  0.15635300  1
  N  1417  1  0.31705200  0.33722800  0.17012700  1
  N  1421  1  0.31705200  0.37318600  0.15681500  1
  N  1427  1  0.31983900  0.40850600  0.20628000  1
  N  1433  1  0.31868400  0.37260600  0.21962500  1
  N  1499  1  0.31718000  0.75463900  0.58788400  1
  N  1503  1  0.31719700  0.70536600  0.55192500  1
  N  1509  1  0.31996100  0.71951100  0.51660300  1
  N  1515  1  0.31878800  0.76875500  0.55250100  1
  N  1581  1  0.31707500  0.14291400  0.78185000  1
  N  1585  1  0.31702500  0.12959800  0.73257800  1
  N  1591  1  0.31977500  0.17906500  0.74672000  1
  N  1597  1  0.31869000  0.19241300  0.79596600  1
  N  1663  1  0.31705200  0.56067000  0.78219400  1
  N  1667  1  0.31700400  0.52470900  0.79550100  1
  N  1673  1  0.31962600  0.48939400  0.74603300  1
  N  1679  1  0.31862300  0.52529500  0.73269200  1
  N  1745  1  0.31707500  0.14325900  0.36444000  1
  N  1749  1  0.31706200  0.19253000  0.40039800  1
  N  1755  1  0.31984900  0.17838500  0.43571700  1
  N  1761  1  0.31870700  0.12914000  0.39981900  1
  N  1825  1  0.02936900  0.76184900  0.39311900  1
  N  1828  1  0.28573900  0.76154300  0.37223300  1
  N  1836  1  0.32516400  0.76070200  0.42161100  1
  N  1837  1  0.99411100  0.76164700  0.34314200  1
  N  1839  1  0.02926100  0.55301800  0.16328900  1
  N  1842  1  0.28563800  0.53240800  0.16353800  1
  N  1850  1  0.32503900  0.58265000  0.16442600  1
  N  1851  1  0.99401300  0.50322300  0.16345400  1
  N  1853  1  0.02928500  0.53199300  0.37208300  1
  N  1856  1  0.28567500  0.55289900  0.39267500  1
  N  1864  1  0.32505200  0.50351200  0.34244700  1
  N  1865  1  0.99407000  0.58197000  0.42187300  1
  N  1867  1  0.02923400  0.13606400  0.55921400  1
  N  1870  1  0.28559400  0.13642300  0.58012200  1
  N  1878  1  0.32503900  0.13723800  0.53073300  1
  N  1879  1  0.99395500  0.13626400  0.60918900  1
  N  1881  1  0.02912200  0.34488400  0.78904800  1
  N  1884  1  0.28549600  0.36546700  0.78873600  1
  N  1892  1  0.32491400  0.31524400  0.78789400  1
  N  1893  1  0.99387400  0.39466300  0.78884800  1
  N  1895  1  0.02911900  0.36590100  0.58022900  1
  N  1898  1  0.28551000  0.34502800  0.55961300  1
  N  1906  1  0.32488000  0.39439100  0.60985600  1
  N  1907  1  0.99390800  0.31593300  0.53043300  1
  N  1909  1  0.01599700  0.93650300  0.27476200  1
  N  1916  1  0.31176100  0.90321500  0.24854000  1
  N  1917  1  0.98917500  0.99491200  0.29719400  1
  N  1919  1  0.01591200  0.26000800  0.98859300  1
  N  1922  1  0.28466500  0.23080400  0.96343700  1
  N  1930  1  0.31168700  0.26708800  0.02189000  1
  N  1931  1  0.98909000  0.22402200  0.93019100  1
  N  1933  1  0.01603100  0.65037500  0.66514400  1
  N  1936  1  0.28471600  0.65436600  0.69428900  1
  N  1944  1  0.31179100  0.67656700  0.65804100  1
  N  1945  1  0.98915200  0.62792400  0.70109500  1
  N  1948  1  0.28478000  0.93622400  0.68159300  1
  N  1951  1  0.31176100  0.99468200  0.70377900  1
  N  1952  1  0.98923100  0.90298500  0.65512800  1
  N  1954  1  0.01592200  0.63788200  0.96371000  1
  N  1957  1  0.28469900  0.66710000  0.98888800  1
  N  1965  1  0.31167600  0.63083000  0.93042700  1
  N  1966  1  0.98914300  0.67386300  0.02212100  1
  N  1968  1  0.01594600  0.24757200  0.28722100  1
  N  1971  1  0.28469500  0.24352800  0.25801700  1
  N  1979  1  0.31171700  0.22135800  0.29430100  1
  N  1980  1  0.98912200  0.26999000  0.25123500  1
  O  8  1  0.91197300  0.96811700  0.70818900  1
  O  19  1  0.57864200  0.96810900  0.70818500  1
  O  30  1  0.24530800  0.96811700  0.70818900  1
  O  533  1  0.90780500  0.75951100  0.39947500  1
  O  547  1  0.90766900  0.56166600  0.16556900  1
  O  561  1  0.90769700  0.52569300  0.36341500  1
  O  575  1  0.90767200  0.13849000  0.55289600  1
  O  589  1  0.90755400  0.33619800  0.78669800  1
  O  603  1  0.90752400  0.37224900  0.58886700  1
  O  613  1  0.91196200  0.92977900  0.24412900  1
  O  627  1  0.91189000  0.23611300  0.99534400  1
  O  641  1  0.91188000  0.68094100  0.68896000  1
  O  662  1  0.91190900  0.66182300  0.95700100  1
  O  676  1  0.91192000  0.21693500  0.26332700  1
  O  1182  1  0.57447300  0.75951100  0.39947400  1
  O  1196  1  0.57433800  0.56166500  0.16556900  1
  O  1210  1  0.57436500  0.52568200  0.36340600  1
  O  1224  1  0.57433800  0.13849000  0.55289700  1
  O  1238  1  0.57421900  0.33618900  0.78669800  1
  O  1252  1  0.57418900  0.37225000  0.58886700  1
  O  1262  1  0.57862800  0.92977900  0.24412900  1
  O  1276  1  0.57855700  0.23611300  0.99534300  1
  O  1290  1  0.57359800  0.67617900  0.68416600  1
  O  1311  1  0.57857800  0.66182800  0.95701000  1
  O  1325  1  0.57858800  0.21693500  0.26332700  1
  O  1831  1  0.24113900  0.75951200  0.39947600  1
  O  1845  1  0.24100400  0.56166600  0.16556900  1
  O  1859  1  0.24103100  0.52569200  0.36341500  1
  O  1873  1  0.24100800  0.13849000  0.55289600  1
  O  1887  1  0.24088600  0.33619700  0.78669700  1
  O  1901  1  0.24085900  0.37224800  0.58886600  1
  O  1911  1  0.24529500  0.92977900  0.24412800  1
  O  1925  1  0.24522400  0.23611300  0.99534300  1
  O  1939  1  0.24523700  0.68094200  0.68895900  1
  O  1960  1  0.24524400  0.66182300  0.95700000  1
  O  1974  1  0.24525400  0.21693500  0.26332700  1
