# generated using pymatgen
data_H28C41N8
_symmetry_space_group_name_H-M   'P 1'
_cell_length_a   34.80520000
_cell_length_b   34.80520000
_cell_length_c   34.80520000
_cell_angle_alpha   90.00000000
_cell_angle_beta   90.00000000
_cell_angle_gamma   90.00000000
_symmetry_Int_Tables_number   1
_chemical_formula_structural   H28C41N8
_chemical_formula_sum   'H336 C492 N96'
_cell_volume   42163.08704712
_cell_formula_units_Z   12
loop_
 _symmetry_equiv_pos_site_id
 _symmetry_equiv_pos_as_xyz
  1  'x, y, z'
loop_
 _atom_site_type_symbol
 _atom_site_label
 _atom_site_symmetry_multiplicity
 _atom_site_fract_x
 _atom_site_fract_y
 _atom_site_fract_z
 _atom_site_occupancy
  H  25  1  0.09657500  0.64330300  0.51022500  1
  H  26  1  0.12755200  0.58274300  0.51075100  1
  H  27  1  0.12832600  0.44364300  0.51193200  1
  H  28  1  0.09798700  0.38261800  0.51263300  1
  H  29  1  0.98936600  0.43581700  0.51536200  1
  H  30  1  0.98864500  0.58909000  0.51437700  1
  H  31  1  0.03664500  0.51106100  0.59076800  1
  H  32  1  0.92809100  0.51367000  0.64410500  1
  H  33  1  0.89767900  0.51456400  0.58312200  1
  H  34  1  0.03716300  0.51213300  0.43749200  1
  H  35  1  0.89825900  0.51583400  0.44402500  1
  H  36  1  0.92915400  0.51627000  0.38341400  1
  H  39  1  0.11668000  0.51308400  0.48680100  1
  H  40  1  0.11783600  0.51319300  0.53778400  1
  H  42  1  0.90804200  0.48885800  0.51354100  1
  H  43  1  0.90926600  0.53984200  0.51368700  1
  H  72  1  0.52044800  0.09855100  0.64506400  1
  H  73  1  0.52125000  0.12827600  0.58383200  1
  H  74  1  0.52345600  0.12679600  0.44499100  1
  H  75  1  0.52388100  0.09582300  0.38454600  1
  H  76  1  0.51312400  0.98827200  0.43867300  1
  H  77  1  0.51273400  0.98974300  0.59280800  1
  H  78  1  0.59129400  0.03538400  0.51348900  1
  H  79  1  0.64322000  0.92626100  0.51760400  1
  H  80  1  0.58182400  0.89663300  0.51910300  1
  H  81  1  0.43807200  0.03810300  0.51444600  1
  H  82  1  0.44275000  0.89918100  0.52055400  1
  H  83  1  0.38258100  0.93083800  0.52037900  1
  H  86  1  0.49469600  0.11839000  0.51429900  1
  H  87  1  0.54558500  0.11522100  0.51468200  1
  H  89  1  0.51230000  0.90750800  0.49343500  1
  H  90  1  0.51253000  0.90963400  0.54439000  1
  H  119  1  0.64477100  0.52054900  0.09824000  1
  H  120  1  0.58354800  0.52147700  0.12796900  1
  H  121  1  0.44471800  0.52366000  0.12654700  1
  H  122  1  0.38425000  0.52395300  0.09561200  1
  H  123  1  0.43833400  0.51330800  0.98802400  1
  H  124  1  0.59248900  0.51292000  0.98943800  1
  H  125  1  0.51292000  0.59158100  0.03520600  1
  H  126  1  0.51719800  0.64367100  0.92616600  1
  H  127  1  0.51896800  0.58232700  0.89645800  1
  H  128  1  0.51388000  0.43835100  0.03767800  1
  H  129  1  0.52047700  0.44325500  0.89878200  1
  H  130  1  0.52004300  0.38302600  0.93033800  1
  H  133  1  0.51402600  0.49501800  0.11813300  1
  H  134  1  0.51439400  0.54590400  0.11490000  1
  H  136  1  0.49342900  0.51278000  0.90711400  1
  H  137  1  0.54437300  0.51303200  0.90946700  1
  H  166  1  0.59668900  0.14340400  0.00878000  1
  H  167  1  0.62733700  0.08268100  0.00975400  1
  H  168  1  0.62718500  0.94349700  0.01649600  1
  H  169  1  0.59628400  0.88285900  0.01894200  1
  H  170  1  0.48822900  0.93677400  0.01417200  1
  H  171  1  0.48844400  0.08973500  0.01235100  1
  H  172  1  0.53646300  0.01313300  0.08964500  1
  H  173  1  0.42808000  0.01541600  0.14325800  1
  H  174  1  0.39753200  0.01491100  0.08237600  1
  H  175  1  0.53612700  0.01303800  0.93545800  1
  H  176  1  0.39730300  0.00923100  0.94345100  1
  H  177  1  0.42750200  0.00791200  0.88246800  1
  H  180  1  0.61655100  0.01236900  0.98710500  1
  H  181  1  0.61677300  0.01381300  0.03807600  1
  H  183  1  0.40838700  0.98708800  0.01360400  1
  H  184  1  0.40808000  0.03805000  0.01208100  1
  H  213  1  0.00829400  0.59605400  0.14325700  1
  H  214  1  0.00941500  0.62670500  0.08253000  1
  H  215  1  0.01629600  0.62649200  0.94331600  1
  H  216  1  0.01897900  0.59555500  0.88270700  1
  H  217  1  0.01419800  0.48753300  0.93668200  1
  H  218  1  0.01193800  0.48780900  0.08959300  1
  H  219  1  0.08938400  0.53580500  0.01306100  1
  H  220  1  0.14297900  0.42742200  0.01553000  1
  H  221  1  0.08209000  0.39688000  0.01500500  1
  H  222  1  0.93521300  0.53552000  0.01285400  1
  H  223  1  0.94314300  0.39669100  0.00913600  1
  H  224  1  0.88217500  0.42691900  0.00778300  1
  H  227  1  0.98681200  0.61588200  0.01217000  1
  H  228  1  0.03778200  0.61613800  0.01367900  1
  H  230  1  0.01335100  0.40772300  0.98706500  1
  H  231  1  0.01174800  0.40746500  0.03802300  1
  H  260  1  0.14300900  0.01033400  0.59824400  1
  H  261  1  0.08231200  0.01125100  0.62892300  1
  H  262  1  0.94307400  0.01697500  0.62887400  1
  H  263  1  0.88240500  0.01903900  0.59801100  1
  H  264  1  0.93627100  0.01442800  0.48992400  1
  H  265  1  0.08927300  0.01392300  0.49003300  1
  H  266  1  0.01163000  0.09014200  0.53809800  1
  H  267  1  0.00703300  0.14399000  0.43000700  1
  H  268  1  0.00936600  0.08332600  0.39914700  1
  H  269  1  0.01265900  0.93716700  0.53800900  1
  H  270  1  0.01540900  0.94408300  0.39912100  1
  H  271  1  0.01642100  0.88339600  0.42982900  1
  H  274  1  0.01222500  0.98819100  0.61821500  1
  H  275  1  0.01317900  0.03917300  0.61838400  1
  H  277  1  0.98735200  0.01316400  0.40960500  1
  H  278  1  0.03833100  0.01424200  0.40985200  1
  H  289  1  0.05757200  0.56199300  0.25432300  1
  H  291  1  0.95045800  0.43840600  0.24376700  1
  H  292  1  0.93265100  0.45963500  0.28631500  1
  H  293  1  0.97048400  0.42529800  0.28856900  1
  H  295  1  0.04829200  0.55486800  0.18493600  1
  H  297  1  0.97184900  0.47359000  0.34388000  1
  H  304  1  0.95218200  0.54668000  0.77803300  1
  H  306  1  0.09774500  0.47097500  0.76971800  1
  H  307  1  0.10104100  0.49740500  0.72642000  1
  H  308  1  0.07750600  0.45203900  0.72710400  1
  H  310  1  0.97547200  0.55085100  0.84366400  1
  H  312  1  0.05140900  0.49980700  0.67194300  1
  H  319  1  0.25407400  0.05954400  0.56418600  1
  H  321  1  0.24382700  0.95189200  0.44105800  1
  H  322  1  0.28625500  0.93410700  0.46254300  1
  H  323  1  0.28872100  0.97177100  0.42803600  1
  H  325  1  0.18476100  0.05014500  0.55709800  1
  H  327  1  0.34381300  0.97313300  0.47669600  1
  H  334  1  0.77823100  0.95145500  0.54957900  1
  H  336  1  0.76879000  0.09637400  0.47274000  1
  H  337  1  0.72545700  0.09952300  0.49912600  1
  H  338  1  0.72635100  0.07563900  0.45394600  1
  H  340  1  0.84369800  0.97514100  0.55343400  1
  H  342  1  0.67138200  0.04939400  0.50178400  1
  H  349  1  0.56285300  0.25409000  0.05879500  1
  H  351  1  0.43989100  0.24467800  0.95087200  1
  H  352  1  0.46158900  0.28706800  0.93325400  1
  H  353  1  0.42701700  0.28956600  0.97085500  1
  H  355  1  0.55545100  0.18482900  0.04918800  1
  H  357  1  0.47590300  0.34445100  0.97248400  1
  H  364  1  0.54774300  0.77880900  0.95105300  1
  H  366  1  0.47207300  0.76898300  0.09655000  1
  H  367  1  0.49867200  0.72576200  0.09947700  1
  H  368  1  0.45330000  0.72646600  0.07595400  1
  H  370  1  0.55158700  0.84425900  0.97483100  1
  H  372  1  0.50102300  0.67171800  0.04928900  1
  H  379  1  0.56669100  0.05020200  0.78661800  1
  H  381  1  0.44072400  0.94757900  0.76308700  1
  H  382  1  0.46759100  0.93436000  0.72203000  1
  H  383  1  0.43601500  0.97450400  0.72022300  1
  H  385  1  0.54904100  0.02813400  0.85515100  1
  H  387  1  0.50014400  0.97632200  0.67150000  1
  H  394  1  0.57422200  0.99856900  0.24332600  1
  H  396  1  0.41721100  0.04402000  0.25562000  1
  H  397  1  0.43546400  0.07200900  0.29380100  1
  H  398  1  0.42111800  0.02363400  0.30200400  1
  H  400  1  0.55145800  0.00402800  0.17272800  1
  H  402  1  0.48049700  0.05687200  0.34427000  1
  H  409  1  0.07358400  0.24879800  0.47851700  1
  H  411  1  0.92872600  0.25679500  0.55561800  1
  H  412  1  0.92514000  0.30016500  0.52934900  1
  H  413  1  0.94913100  0.29936600  0.57447400  1
  H  415  1  0.05048400  0.18307700  0.47465300  1
  H  417  1  0.97469000  0.35468500  0.52645600  1
  H  424  1  0.96744100  0.77205700  0.46436400  1
  H  426  1  0.07555100  0.78330200  0.58701800  1
  H  427  1  0.09324100  0.74068500  0.56582900  1
  H  428  1  0.05570000  0.73853000  0.60048800  1
  H  430  1  0.97683900  0.84144300  0.47094400  1
  H  432  1  0.05383900  0.68298100  0.55265300  1
  H  439  1  0.24287300  0.57370700  0.99826100  1
  H  441  1  0.25555200  0.41689400  0.04431600  1
  H  442  1  0.29373200  0.43534000  0.07218200  1
  H  443  1  0.30189700  0.42082800  0.02385000  1
  H  445  1  0.17232300  0.55082000  0.00393600  1
  H  447  1  0.34415000  0.48033300  0.05665700  1
  H  454  1  0.78648000  0.56635200  0.04996600  1
  H  456  1  0.76265300  0.44037400  0.94743300  1
  H  457  1  0.72169100  0.46735800  0.93415900  1
  H  458  1  0.71975100  0.43581400  0.97432300  1
  H  460  1  0.85498700  0.54856200  0.02780000  1
  H  462  1  0.67122400  0.50014900  0.97602300  1
  H  487  1  0.35515700  0.87315400  0.76880700  1
  H  488  1  0.38613400  0.81259400  0.76933300  1
  H  489  1  0.38690800  0.67349400  0.77051400  1
  H  490  1  0.35656900  0.61246900  0.77121500  1
  H  491  1  0.24794800  0.66566800  0.77394400  1
  H  492  1  0.24722700  0.81894100  0.77295900  1
  H  493  1  0.29522700  0.74091200  0.84935000  1
  H  494  1  0.18667300  0.74352100  0.90268700  1
  H  495  1  0.15626100  0.74441500  0.84170400  1
  H  496  1  0.29574500  0.74198400  0.69607400  1
  H  497  1  0.15684100  0.74568500  0.70260700  1
  H  498  1  0.18773600  0.74612100  0.64199600  1
  H  501  1  0.37526200  0.74293500  0.74538300  1
  H  502  1  0.37641800  0.74304400  0.79636600  1
  H  504  1  0.16662400  0.71870900  0.77212300  1
  H  505  1  0.16784800  0.76969300  0.77226900  1
  H  534  1  0.77903000  0.32840200  0.90364600  1
  H  535  1  0.77983200  0.35812700  0.84241400  1
  H  536  1  0.78203800  0.35664700  0.70357300  1
  H  537  1  0.78246300  0.32567400  0.64312800  1
  H  538  1  0.77170600  0.21812300  0.69725500  1
  H  539  1  0.77131600  0.21959400  0.85139000  1
  H  540  1  0.84987600  0.26523500  0.77207100  1
  H  541  1  0.90180200  0.15611200  0.77618600  1
  H  542  1  0.84040600  0.12648400  0.77768500  1
  H  543  1  0.69665400  0.26795400  0.77302800  1
  H  544  1  0.70133200  0.12903200  0.77913600  1
  H  545  1  0.64116300  0.16068900  0.77896100  1
  H  548  1  0.75327800  0.34824100  0.77288100  1
  H  549  1  0.80416700  0.34507200  0.77326400  1
  H  551  1  0.77088200  0.13735900  0.75201700  1
  H  552  1  0.77111200  0.13948500  0.80297200  1
  H  581  1  0.90335300  0.75040000  0.35682200  1
  H  582  1  0.84213000  0.75132800  0.38655100  1
  H  583  1  0.70330000  0.75351100  0.38512900  1
  H  584  1  0.64283200  0.75380400  0.35419400  1
  H  585  1  0.69691600  0.74315900  0.24660600  1
  H  586  1  0.85107100  0.74277100  0.24802000  1
  H  587  1  0.77150200  0.82143200  0.29378800  1
  H  588  1  0.77578000  0.87352200  0.18474800  1
  H  589  1  0.77755000  0.81217800  0.15504000  1
  H  590  1  0.77246200  0.66820200  0.29626000  1
  H  591  1  0.77905900  0.67310600  0.15736400  1
  H  592  1  0.77862500  0.61287700  0.18892000  1
  H  595  1  0.77260800  0.72486900  0.37671500  1
  H  596  1  0.77297600  0.77575500  0.37348200  1
  H  598  1  0.75201100  0.74263100  0.16569600  1
  H  599  1  0.80295500  0.74288300  0.16804900  1
  H  628  1  0.85527100  0.37325500  0.26736200  1
  H  629  1  0.88591900  0.31253200  0.26833600  1
  H  630  1  0.88576700  0.17334800  0.27507800  1
  H  631  1  0.85486600  0.11271000  0.27752400  1
  H  632  1  0.74681100  0.16662500  0.27275400  1
  H  633  1  0.74702600  0.31958600  0.27093300  1
  H  634  1  0.79504500  0.24298400  0.34822700  1
  H  635  1  0.68666200  0.24526700  0.40184000  1
  H  636  1  0.65611400  0.24476200  0.34095800  1
  H  637  1  0.79470900  0.24288900  0.19404000  1
  H  638  1  0.65588500  0.23908200  0.20203300  1
  H  639  1  0.68608400  0.23776300  0.14105000  1
  H  642  1  0.87513300  0.24222000  0.24568700  1
  H  643  1  0.87535500  0.24366400  0.29665800  1
  H  645  1  0.66696900  0.21693900  0.27218600  1
  H  646  1  0.66666667  0.26790100  0.27066300  1
  H  675  1  0.26687600  0.82590500  0.40183900  1
  H  676  1  0.26799700  0.85655600  0.34111200  1
  H  677  1  0.27487800  0.85634300  0.20189800  1
  H  678  1  0.27756100  0.82540600  0.14128900  1
  H  679  1  0.27278000  0.71738400  0.19526400  1
  H  680  1  0.27052000  0.71766000  0.34817500  1
  H  681  1  0.34796600  0.76565600  0.27164300  1
  H  682  1  0.40156100  0.65727300  0.27411200  1
  H  683  1  0.34067200  0.62673100  0.27358700  1
  H  684  1  0.19379500  0.76537100  0.27143600  1
  H  685  1  0.20172500  0.62654200  0.26771800  1
  H  686  1  0.14075700  0.65677000  0.26636500  1
  H  689  1  0.24539400  0.84573300  0.27075200  1
  H  690  1  0.29636400  0.84598900  0.27226100  1
  H  692  1  0.27193300  0.63757400  0.24564700  1
  H  693  1  0.27033000  0.63731600  0.29660500  1
  H  722  1  0.40159100  0.24018500  0.85682600  1
  H  723  1  0.34089400  0.24110200  0.88750500  1
  H  724  1  0.20165600  0.24682600  0.88745600  1
  H  725  1  0.14098700  0.24889000  0.85659300  1
  H  726  1  0.19485300  0.24427900  0.74850600  1
  H  727  1  0.34785500  0.24377400  0.74861500  1
  H  728  1  0.27021200  0.31999300  0.79668000  1
  H  729  1  0.26561500  0.37384100  0.68858900  1
  H  730  1  0.26794800  0.31317700  0.65772900  1
  H  731  1  0.27124100  0.16701800  0.79659100  1
  H  732  1  0.27399100  0.17393400  0.65770300  1
  H  733  1  0.27500300  0.11324700  0.68841100  1
  H  736  1  0.27080700  0.21804200  0.87679700  1
  H  737  1  0.27176100  0.26902400  0.87696600  1
  H  739  1  0.24593400  0.24301500  0.66818700  1
  H  740  1  0.29691300  0.24409300  0.66843400  1
  H  751  1  0.31615400  0.79184400  0.51290500  1
  H  753  1  0.20904000  0.66825700  0.50234900  1
  H  754  1  0.19123300  0.68948600  0.54489700  1
  H  755  1  0.22906600  0.65514900  0.54715100  1
  H  757  1  0.30687400  0.78471900  0.44351800  1
  H  759  1  0.23043100  0.70344100  0.60246200  1
  H  766  1  0.21076400  0.77653100  0.03661510  1
  H  768  1  0.35632700  0.70082600  0.02830010  1
  H  769  1  0.35962300  0.72725600  0.98500200  1
  H  770  1  0.33608800  0.68189000  0.98568600  1
  H  772  1  0.23405400  0.78070200  0.10224600  1
  H  774  1  0.30999100  0.72965800  0.93052500  1
  H  781  1  0.51265600  0.28939500  0.82276800  1
  H  783  1  0.50240900  0.18174300  0.69964000  1
  H  784  1  0.54483700  0.16395800  0.72112500  1
  H  785  1  0.54730300  0.20162200  0.68661800  1
  H  787  1  0.44334300  0.27999600  0.81568000  1
  H  789  1  0.60239500  0.20298400  0.73527800  1
  H  796  1  0.03681310  0.18130600  0.80816100  1
  H  798  1  0.02737210  0.32622500  0.73132200  1
  H  799  1  0.98403900  0.32937400  0.75770800  1
  H  800  1  0.98493300  0.30549000  0.71252800  1
  H  802  1  0.10228000  0.20499200  0.81201600  1
  H  804  1  0.92996400  0.27924500  0.76036600  1
  H  811  1  0.82143500  0.48394100  0.31737700  1
  H  813  1  0.69847300  0.47452900  0.20945400  1
  H  814  1  0.72017100  0.51691900  0.19183600  1
  H  815  1  0.68559900  0.51941700  0.22943700  1
  H  817  1  0.81403300  0.41468000  0.30777000  1
  H  819  1  0.73448500  0.57430200  0.23106600  1
  H  826  1  0.80632500  0.00865971  0.20963500  1
  H  828  1  0.73065500  0.99883400  0.35513200  1
  H  829  1  0.75725400  0.95561300  0.35805900  1
  H  830  1  0.71188200  0.95631700  0.33453600  1
  H  832  1  0.81016900  0.07410970  0.23341300  1
  H  834  1  0.75960500  0.90156900  0.30787100  1
  H  841  1  0.82527300  0.28005300  0.04520010  1
  H  843  1  0.69930600  0.17743000  0.02166910  1
  H  844  1  0.72617300  0.16421100  0.98061200  1
  H  845  1  0.69459700  0.20435500  0.97880500  1
  H  847  1  0.80762300  0.25798500  0.11373300  1
  H  849  1  0.75872600  0.20617300  0.93008200  1
  H  856  1  0.83280400  0.22842000  0.50190800  1
  H  858  1  0.67579300  0.27387100  0.51420200  1
  H  859  1  0.69404600  0.30186000  0.55238300  1
  H  860  1  0.67970000  0.25348500  0.56058600  1
  H  862  1  0.81004000  0.23387900  0.43131000  1
  H  864  1  0.73907900  0.28672300  0.60285200  1
  H  871  1  0.33216600  0.47864900  0.73709900  1
  H  873  1  0.18730800  0.48664600  0.81420000  1
  H  874  1  0.18372200  0.53001600  0.78793100  1
  H  875  1  0.20771300  0.52921700  0.83305600  1
  H  877  1  0.30906600  0.41292800  0.73323500  1
  H  879  1  0.23327200  0.58453600  0.78503800  1
  H  886  1  0.22602300  0.00190771  0.72294600  1
  H  888  1  0.33413300  0.01315270  0.84560000  1
  H  889  1  0.35182300  0.97053600  0.82441100  1
  H  890  1  0.31428200  0.96838100  0.85907000  1
  H  892  1  0.23542100  0.07129370  0.72952600  1
  H  894  1  0.31242100  0.91283200  0.81123500  1
  H  901  1  0.50145500  0.80355800  0.25684300  1
  H  903  1  0.51413400  0.64674500  0.30289800  1
  H  904  1  0.55231400  0.66519100  0.33076400  1
  H  905  1  0.56047900  0.65067900  0.28243200  1
  H  907  1  0.43090500  0.78067100  0.26251800  1
  H  909  1  0.60273200  0.71018400  0.31523900  1
  H  916  1  0.04506210  0.79620300  0.30854800  1
  H  918  1  0.02123510  0.67022500  0.20601500  1
  H  919  1  0.98027300  0.69720900  0.19274100  1
  H  920  1  0.97833300  0.66566500  0.23290500  1
  H  922  1  0.11356900  0.77841300  0.28638200  1
  H  924  1  0.92980600  0.73000000  0.23460500  1
  C  1  1  0.99003300  0.51258700  0.47652100  1
  C  2  1  0.94924600  0.51342900  0.47755800  1
  C  3  1  0.94897900  0.51330800  0.54997200  1
  C  4  1  0.98978300  0.51249500  0.55131100  1
  C  5  1  0.00736100  0.51166800  0.58857900  1
  C  6  1  0.98526100  0.51191500  0.62293800  1
  C  7  1  0.94501700  0.51330500  0.61998500  1
  C  8  1  0.92709700  0.51379700  0.58409900  1
  C  9  1  0.92766600  0.51454700  0.44327300  1
  C  10  1  0.94589600  0.51454100  0.40754500  1
  C  11  1  0.98627800  0.51240900  0.40460300  1
  C  12  1  0.00784300  0.51242600  0.43934200  1
  C  13  1  0.03582300  0.55012200  0.51400900  1
  C  14  1  0.07661300  0.54914200  0.51317900  1
  C  15  1  0.07698400  0.47672500  0.51324800  1
  C  16  1  0.03618100  0.47533100  0.51404900  1
  C  17  1  0.09890900  0.44262600  0.51269000  1
  C  18  1  0.08103300  0.40671800  0.51307300  1
  C  19  1  0.04079100  0.40371300  0.51442300  1
  C  20  1  0.01864900  0.43804100  0.51477900  1
  C  21  1  0.01796700  0.58728000  0.51412100  1
  C  22  1  0.03947600  0.62205600  0.51415600  1
  C  23  1  0.07986400  0.61915700  0.51200700  1
  C  24  1  0.09814500  0.58345300  0.51205600  1
  C  37  1  0.01295500  0.51259900  0.51400900  1
  C  38  1  0.09883300  0.51304400  0.51271100  1
  C  41  1  0.92707700  0.51390900  0.51368200  1
  C  48  1  0.47644600  0.99047200  0.51575900  1
  C  49  1  0.47694300  0.94968000  0.51729600  1
  C  50  1  0.54933400  0.94832600  0.51710900  1
  C  51  1  0.55120200  0.98907900  0.51564400  1
  C  52  1  0.58869600  0.00614800  0.51451800  1
  C  53  1  0.62276300  0.98364600  0.51502100  1
  C  54  1  0.61930400  0.94346800  0.51702600  1
  C  55  1  0.58318600  0.92601700  0.51787400  1
  C  56  1  0.44239100  0.92857100  0.51876100  1
  C  57  1  0.40691300  0.94725800  0.51838200  1
  C  58  1  0.40447400  0.98763100  0.51550900  1
  C  59  1  0.43950600  0.00876900  0.51524200  1
  C  60  1  0.51506100  0.03611200  0.55279900  1
  C  61  1  0.51748900  0.07682400  0.55113900  1
  C  62  1  0.51787600  0.07611800  0.47859200  1
  C  63  1  0.51512400  0.03541900  0.47764700  1
  C  64  1  0.52070900  0.09748700  0.44428100  1
  C  65  1  0.52073800  0.07917300  0.40859400  1
  C  66  1  0.51663000  0.03893200  0.40550800  1
  C  67  1  0.51476200  0.01755400  0.44041700  1
  C  68  1  0.51428200  0.01896500  0.59038300  1
  C  69  1  0.51625300  0.04122500  0.62473400  1
  C  70  1  0.51892800  0.08136400  0.62117100  1
  C  71  1  0.51928700  0.09892300  0.58509100  1
  C  84  1  0.51427100  0.01281400  0.51542300  1
  C  85  1  0.51898600  0.09840600  0.51466100  1
  C  88  1  0.51274200  0.92698200  0.51814100  1
  C  95  1  0.51543400  0.47680200  0.99011600  1
  C  96  1  0.51711200  0.47736500  0.94933200  1
  C  97  1  0.51689400  0.54975700  0.94809900  1
  C  98  1  0.51530800  0.55155500  0.98885200  1
  C  99  1  0.51404900  0.58903000  0.00597000  1
  C  100  1  0.51450900  0.62313100  0.98351700  1
  C  101  1  0.51664700  0.61973200  0.94334200  1
  C  102  1  0.51765500  0.58364000  0.92584400  1
  C  103  1  0.51860100  0.44284700  0.92816600  1
  C  104  1  0.51806300  0.40734100  0.94678900  1
  C  105  1  0.51503200  0.40484500  0.98714800  1
  C  106  1  0.51479100  0.43983400  0.00834900  1
  C  107  1  0.55248600  0.51533400  0.03581100  1
  C  108  1  0.55084000  0.51775900  0.07652300  1
  C  109  1  0.47829300  0.51812600  0.07584900  1
  C  110  1  0.47733100  0.51538500  0.03514800  1
  C  111  1  0.44399100  0.52091600  0.09723800  1
  C  112  1  0.40829500  0.52086500  0.07894800  1
  C  113  1  0.40519500  0.51674400  0.03870900  1
  C  114  1  0.44009200  0.51495500  0.01730500  1
  C  115  1  0.59007000  0.51447500  0.01866100  1
  C  116  1  0.62443200  0.51638000  0.04091500  1
  C  117  1  0.62087800  0.51907200  0.08105400  1
  C  118  1  0.58479800  0.51951400  0.09861600  1
  C  131  1  0.51509800  0.51458700  0.01252700  1
  C  132  1  0.51437100  0.51928400  0.09811800  1
  C  135  1  0.51804900  0.51320200  0.92669700  1
  C  142  1  0.48938900  0.01260100  0.97511300  1
  C  143  1  0.44860000  0.01176500  0.97650000  1
  C  144  1  0.44869700  0.01379900  0.04904100  1
  C  145  1  0.48949600  0.01359200  0.05024100  1
  C  146  1  0.50717100  0.01351800  0.08756000  1
  C  147  1  0.48525200  0.01401700  0.12211400  1
  C  148  1  0.44498800  0.01497100  0.11912400  1
  C  149  1  0.42696200  0.01467800  0.08326400  1
  C  150  1  0.42671800  0.01001000  0.94240500  1
  C  151  1  0.44455700  0.00917100  0.90647100  1
  C  152  1  0.48478400  0.01073700  0.90317800  1
  C  153  1  0.50685200  0.01240000  0.93767000  1
  C  154  1  0.53543400  0.05057300  0.01227900  1
  C  155  1  0.57621800  0.04935100  0.01190000  1
  C  156  1  0.57614900  0.97692800  0.01372500  1
  C  157  1  0.53536200  0.97580500  0.01329500  1
  C  158  1  0.59776700  0.94269500  0.01559700  1
  C  159  1  0.57954800  0.90697100  0.01684500  1
  C  160  1  0.53914900  0.90398500  0.01514500  1
  C  161  1  0.51754900  0.93865500  0.01426200  1
  C  162  1  0.51776700  0.08781200  0.01219300  1
  C  163  1  0.53943600  0.12249300  0.01246000  1
  C  164  1  0.57982400  0.11936400  0.01046100  1
  C  165  1  0.59792200  0.08355300  0.01067300  1
  C  178  1  0.51238600  0.01319900  0.01266200  1
  C  179  1  0.59823200  0.01311300  0.01266700  1
  C  182  1  0.42666900  0.01268200  0.01280800  1
  C  189  1  0.97484500  0.48876300  0.01244000  1
  C  190  1  0.97621900  0.44797300  0.01164500  1
  C  191  1  0.04876400  0.44804500  0.01379700  1
  C  192  1  0.04997600  0.48884300  0.01355000  1
  C  193  1  0.08729500  0.50651600  0.01349200  1
  C  194  1  0.12184600  0.48459400  0.01404700  1
  C  195  1  0.11884600  0.44433000  0.01506900  1
  C  196  1  0.08298300  0.42630700  0.01475000  1
  C  197  1  0.94211500  0.42610900  0.00988000  1
  C  198  1  0.90618600  0.44396500  0.00901800  1
  C  199  1  0.90290800  0.48419200  0.01057000  1
  C  200  1  0.93740900  0.50624300  0.01222200  1
  C  201  1  0.01196600  0.53479900  0.05043600  1
  C  202  1  0.01159000  0.57558300  0.04920500  1
  C  203  1  0.01350300  0.57548300  0.97677600  1
  C  204  1  0.01311000  0.53469600  0.97567300  1
  C  205  1  0.01543700  0.59707400  0.94253100  1
  C  206  1  0.01680300  0.57883300  0.90681800  1
  C  207  1  0.01519500  0.53842800  0.90385300  1
  C  208  1  0.01421900  0.51685700  0.93853800  1
  C  209  1  0.01179700  0.51712900  0.08767000  1
  C  210  1  0.01195500  0.53880200  0.12234500  1
  C  211  1  0.01002700  0.57919200  0.11922100  1
  C  212  1  0.01032000  0.59728700  0.08340700  1
  C  225  1  0.01240600  0.51173900  0.01307500  1
  C  226  1  0.01238600  0.59758000  0.01295500  1
  C  229  1  0.01252100  0.42603100  0.01263900  1
  C  236  1  0.01275400  0.97628800  0.49099000  1
  C  237  1  0.01323300  0.97746900  0.45020300  1
  C  238  1  0.01197200  0.04992000  0.45020300  1
  C  239  1  0.01244000  0.05108300  0.49099300  1
  C  240  1  0.01160700  0.08824600  0.50877700  1
  C  241  1  0.01075400  0.12290000  0.48716000  1
  C  242  1  0.00912500  0.11989200  0.44675800  1
  C  243  1  0.01028600  0.08414800  0.42856500  1
  C  244  1  0.01439800  0.94323800  0.42853600  1
  C  245  1  0.01463600  0.90744200  0.44666900  1
  C  246  1  0.01266700  0.90435000  0.48705900  1
  C  247  1  0.01278200  0.93906100  0.50868800  1
  C  248  1  0.05013200  0.01376900  0.53704000  1
  C  249  1  0.04894000  0.01331400  0.57782700  1
  C  250  1  0.97648900  0.01439700  0.57782200  1
  C  251  1  0.97533100  0.01386800  0.53703500  1
  C  252  1  0.94225800  0.01602200  0.59945900  1
  C  253  1  0.90651400  0.01702500  0.58126400  1
  C  254  1  0.90351400  0.01530600  0.54086400  1
  C  255  1  0.93816700  0.01452800  0.51924700  1
  C  256  1  0.08736900  0.01381300  0.51935600  1
  C  257  1  0.12207300  0.01399700  0.54099700  1
  C  258  1  0.11896600  0.01205500  0.58139000  1
  C  259  1  0.08316400  0.01223100  0.59950500  1
  C  272  1  0.01271900  0.01369900  0.51401500  1
  C  273  1  0.01270800  0.01374000  0.59986700  1
  C  276  1  0.01275600  0.01370000  0.42816000  1
  C  283  1  0.02273500  0.52066900  0.22533300  1
  C  285  1  0.98723700  0.48048600  0.26933000  1
  C  286  1  0.00359100  0.49981000  0.30166200  1
  C  288  1  0.03908300  0.53939100  0.25754200  1
  C  290  1  0.95856900  0.44917700  0.27211900  1
  C  294  1  0.02951300  0.53346000  0.18791400  1
  C  296  1  0.99212400  0.49326500  0.33971100  1
  C  298  1  0.00294200  0.52107700  0.80114700  1
  C  300  1  0.04565800  0.49766400  0.75143900  1
  C  301  1  0.01983700  0.51006400  0.72218500  1
  C  303  1  0.97731100  0.53274200  0.77187900  1
  C  305  1  0.08262000  0.47842300  0.74324200  1
  C  309  1  0.99635400  0.53170200  0.83928500  1
  C  311  1  0.02582700  0.50667100  0.68245000  1
  C  313  1  0.22516500  0.02454300  0.52294200  1
  C  315  1  0.26928800  0.98882600  0.48306300  1
  C  316  1  0.30157600  0.00524000  0.50242200  1
  C  318  1  0.25734400  0.04090300  0.54171800  1
  C  320  1  0.27215000  0.96000300  0.45190400  1
  C  324  1  0.18772000  0.03137400  0.53567800  1
  C  326  1  0.33965000  0.99366700  0.49610700  1
  C  328  1  0.80094900  0.00220100  0.52358800  1
  C  330  1  0.75093100  0.04435000  0.49983000  1
  C  331  1  0.72188600  0.01839200  0.51243500  1
  C  333  1  0.77188700  0.97645400  0.53549700  1
  C  335  1  0.74243800  0.08109100  0.48029600  1
  C  339  1  0.83912100  0.99594300  0.53424500  1
  C  341  1  0.68211300  0.02399700  0.50899300  1
  C  343  1  0.52156000  0.22547100  0.02361700  1
  C  345  1  0.48192800  0.26985800  0.98796400  1
  C  346  1  0.50138800  0.30201200  0.00451300  1
  C  348  1  0.54041900  0.25751600  0.04013800  1
  C  350  1  0.45084100  0.27293200  0.95908600  1
  C  354  1  0.53411800  0.18795300  0.03034900  1
  C  356  1  0.49527100  0.34013600  0.99302900  1
  C  358  1  0.52204800  0.80140000  0.00199900  1
  C  360  1  0.49882500  0.75125000  0.04430600  1
  C  361  1  0.51136300  0.72226500  0.01824900  1
  C  363  1  0.53386300  0.77239300  0.97614700  1
  C  365  1  0.47962100  0.74266500  0.08120000  1
  C  369  1  0.53249200  0.83963300  0.99571300  1
  C  371  1  0.50815700  0.68247000  0.02388000  1
  C  373  1  0.52145600  0.01289400  0.80415000  1
  C  375  1  0.48809900  0.98428400  0.74998300  1
  C  376  1  0.51241800  0.00373500  0.72344600  1
  C  378  1  0.54537800  0.03213700  0.77756700  1
  C  380  1  0.45627400  0.95871000  0.73819700  1
  C  384  1  0.52514800  0.01714200  0.84407800  1
  C  386  1  0.50953600  0.00051400  0.68330900  1
  C  388  1  0.51871000  0.01322200  0.22220600  1
  C  390  1  0.47433700  0.02986900  0.27323400  1
  C  391  1  0.50311700  0.02359400  0.30173100  1
  C  393  1  0.54694100  0.00655900  0.25068100  1
  C  395  1  0.43478300  0.04314300  0.28162000  1
  C  399  1  0.52534700  0.00995200  0.18256800  1
  C  401  1  0.49839400  0.03498200  0.34010700  1
  C  403  1  0.02304600  0.22559000  0.50446500  1
  C  405  1  0.98053100  0.27517700  0.52845800  1
  C  406  1  0.00622000  0.30448300  0.51590600  1
  C  408  1  0.04857100  0.25489600  0.49268500  1
  C  410  1  0.94376100  0.28330000  0.54809600  1
  C  414  1  0.02963000  0.18745700  0.49383400  1
  C  416  1  0.00025000  0.34419800  0.51948500  1
  C  418  1  0.00249900  0.80128500  0.50533200  1
  C  420  1  0.03846100  0.75750400  0.54535800  1
  C  421  1  0.02204800  0.72506700  0.52625700  1
  C  423  1  0.98612500  0.76896200  0.48682400  1
  C  425  1  0.06739000  0.75489300  0.57644000  1
  C  429  1  0.99554300  0.83864700  0.49244100  1
  C  431  1  0.03357600  0.68705500  0.53294600  1
  C  433  1  0.22188400  0.51821300  0.01316700  1
  C  435  1  0.27302000  0.47400700  0.02992700  1
  C  436  1  0.30143800  0.50283000  0.02353000  1
  C  438  1  0.25029000  0.54648100  0.00638700  1
  C  440  1  0.28151200  0.43452100  0.04333600  1
  C  444  1  0.18223000  0.52474000  0.00988600  1
  C  446  1  0.33986600  0.49825000  0.03480400  1
  C  448  1  0.80390800  0.52103400  0.01271300  1
  C  450  1  0.74966100  0.48781200  0.98409400  1
  C  451  1  0.72317900  0.51223100  0.00349900  1
  C  453  1  0.77737800  0.54505100  0.03191500  1
  C  455  1  0.73780000  0.45600900  0.95853200  1
  C  459  1  0.84384200  0.52461400  0.01699600  1
  C  461  1  0.68303300  0.50945800  0.00024700  1
  C  463  1  0.24861500  0.74243800  0.73510300  1
  C  464  1  0.20782800  0.74328000  0.73614000  1
  C  465  1  0.20756100  0.74315900  0.80855400  1
  C  466  1  0.24836500  0.74234600  0.80989300  1
  C  467  1  0.26594300  0.74151900  0.84716100  1
  C  468  1  0.24384300  0.74176600  0.88152000  1
  C  469  1  0.20359900  0.74315600  0.87856700  1
  C  470  1  0.18567900  0.74364800  0.84268100  1
  C  471  1  0.18624800  0.74439800  0.70185500  1
  C  472  1  0.20447800  0.74439200  0.66612700  1
  C  473  1  0.24486000  0.74226000  0.66318500  1
  C  474  1  0.26642500  0.74227700  0.69792400  1
  C  475  1  0.29440500  0.77997300  0.77259100  1
  C  476  1  0.33519500  0.77899300  0.77176100  1
  C  477  1  0.33556600  0.70657600  0.77183000  1
  C  478  1  0.29476300  0.70518200  0.77263100  1
  C  479  1  0.35749100  0.67247700  0.77127200  1
  C  480  1  0.33961500  0.63656900  0.77165500  1
  C  481  1  0.29937300  0.63356400  0.77300500  1
  C  482  1  0.27723100  0.66789200  0.77336100  1
  C  483  1  0.27654900  0.81713100  0.77270300  1
  C  484  1  0.29805800  0.85190700  0.77273800  1
  C  485  1  0.33844600  0.84900800  0.77058900  1
  C  486  1  0.35672700  0.81330400  0.77063800  1
  C  499  1  0.27153700  0.74245000  0.77259100  1
  C  500  1  0.35741500  0.74289500  0.77129300  1
  C  503  1  0.18565900  0.74376000  0.77226400  1
  C  510  1  0.73502800  0.22032300  0.77434100  1
  C  511  1  0.73552500  0.17953100  0.77587800  1
  C  512  1  0.80791600  0.17817700  0.77569100  1
  C  513  1  0.80978400  0.21893000  0.77422600  1
  C  514  1  0.84727800  0.23599900  0.77310000  1
  C  515  1  0.88134500  0.21349700  0.77360300  1
  C  516  1  0.87788600  0.17331900  0.77560800  1
  C  517  1  0.84176800  0.15586800  0.77645600  1
  C  518  1  0.70097300  0.15842200  0.77734300  1
  C  519  1  0.66549500  0.17710900  0.77696400  1
  C  520  1  0.66305600  0.21748200  0.77409100  1
  C  521  1  0.69808800  0.23862000  0.77382400  1
  C  522  1  0.77364300  0.26596300  0.81138100  1
  C  523  1  0.77607100  0.30667500  0.80972100  1
  C  524  1  0.77645800  0.30596900  0.73717400  1
  C  525  1  0.77370600  0.26527000  0.73622900  1
  C  526  1  0.77929100  0.32733800  0.70286300  1
  C  527  1  0.77932000  0.30902400  0.66717600  1
  C  528  1  0.77521200  0.26878300  0.66409000  1
  C  529  1  0.77334400  0.24740500  0.69899900  1
  C  530  1  0.77286400  0.24881600  0.84896500  1
  C  531  1  0.77483500  0.27107600  0.88331600  1
  C  532  1  0.77751000  0.31121500  0.87975300  1
  C  533  1  0.77786900  0.32877400  0.84367300  1
  C  546  1  0.77285300  0.24266500  0.77400500  1
  C  547  1  0.77756800  0.32825700  0.77324300  1
  C  550  1  0.77132400  0.15683300  0.77672300  1
  C  557  1  0.77401600  0.70665300  0.24869800  1
  C  558  1  0.77569400  0.70721600  0.20791400  1
  C  559  1  0.77547600  0.77960800  0.20668100  1
  C  560  1  0.77389000  0.78140600  0.24743400  1
  C  561  1  0.77263100  0.81888100  0.26455200  1
  C  562  1  0.77309100  0.85298200  0.24209900  1
  C  563  1  0.77522900  0.84958300  0.20192400  1
  C  564  1  0.77623700  0.81349100  0.18442600  1
  C  565  1  0.77718300  0.67269800  0.18674800  1
  C  566  1  0.77664500  0.63719200  0.20537100  1
  C  567  1  0.77361400  0.63469600  0.24573000  1
  C  568  1  0.77337300  0.66968500  0.26693100  1
  C  569  1  0.81106800  0.74518500  0.29439300  1
  C  570  1  0.80942200  0.74761000  0.33510500  1
  C  571  1  0.73687500  0.74797700  0.33443100  1
  C  572  1  0.73591300  0.74523600  0.29373000  1
  C  573  1  0.70257300  0.75076700  0.35582000  1
  C  574  1  0.66687700  0.75071600  0.33753000  1
  C  575  1  0.66377700  0.74659500  0.29729100  1
  C  576  1  0.69867400  0.74480600  0.27588700  1
  C  577  1  0.84865200  0.74432600  0.27724300  1
  C  578  1  0.88301400  0.74623100  0.29949700  1
  C  579  1  0.87946000  0.74892300  0.33963600  1
  C  580  1  0.84338000  0.74936500  0.35719800  1
  C  593  1  0.77368000  0.74443800  0.27110900  1
  C  594  1  0.77295300  0.74913500  0.35670000  1
  C  597  1  0.77663100  0.74305300  0.18527900  1
  C  604  1  0.74797100  0.24245200  0.23369500  1
  C  605  1  0.70718200  0.24161600  0.23508200  1
  C  606  1  0.70727900  0.24365000  0.30762300  1
  C  607  1  0.74807800  0.24344300  0.30882300  1
  C  608  1  0.76575300  0.24336900  0.34614200  1
  C  609  1  0.74383400  0.24386800  0.38069600  1
  C  610  1  0.70357000  0.24482200  0.37770600  1
  C  611  1  0.68554400  0.24452900  0.34184600  1
  C  612  1  0.68530000  0.23986100  0.20098700  1
  C  613  1  0.70313900  0.23902200  0.16505300  1
  C  614  1  0.74336600  0.24058800  0.16176000  1
  C  615  1  0.76543400  0.24225100  0.19625200  1
  C  616  1  0.79401600  0.28042400  0.27086100  1
  C  617  1  0.83480000  0.27920200  0.27048200  1
  C  618  1  0.83473100  0.20677900  0.27230700  1
  C  619  1  0.79394400  0.20565600  0.27187700  1
  C  620  1  0.85634900  0.17254600  0.27417900  1
  C  621  1  0.83813000  0.13682200  0.27542700  1
  C  622  1  0.79773100  0.13383600  0.27372700  1
  C  623  1  0.77613100  0.16850600  0.27284400  1
  C  624  1  0.77634900  0.31766300  0.27077500  1
  C  625  1  0.79801800  0.35234400  0.27104200  1
  C  626  1  0.83840600  0.34921500  0.26904300  1
  C  627  1  0.85650400  0.31340400  0.26925500  1
  C  640  1  0.77096800  0.24305000  0.27124400  1
  C  641  1  0.85681400  0.24296400  0.27124900  1
  C  644  1  0.68525100  0.24253300  0.27139000  1
  C  651  1  0.23342700  0.71861400  0.27102200  1
  C  652  1  0.23480100  0.67782400  0.27022700  1
  C  653  1  0.30734600  0.67789600  0.27237900  1
  C  654  1  0.30855800  0.71869400  0.27213200  1
  C  655  1  0.34587700  0.73636700  0.27207400  1
  C  656  1  0.38042800  0.71444500  0.27262900  1
  C  657  1  0.37742800  0.67418100  0.27365100  1
  C  658  1  0.34156500  0.65615800  0.27333200  1
  C  659  1  0.20069700  0.65596000  0.26846200  1
  C  660  1  0.16476800  0.67381600  0.26760000  1
  C  661  1  0.16149000  0.71404300  0.26915200  1
  C  662  1  0.19599100  0.73609400  0.27080400  1
  C  663  1  0.27054800  0.76465000  0.30901800  1
  C  664  1  0.27017200  0.80543400  0.30778700  1
  C  665  1  0.27208500  0.80533400  0.23535800  1
  C  666  1  0.27169200  0.76454700  0.23425500  1
  C  667  1  0.27401900  0.82692500  0.20111300  1
  C  668  1  0.27538500  0.80868400  0.16540000  1
  C  669  1  0.27377700  0.76827900  0.16243500  1
  C  670  1  0.27280100  0.74670800  0.19712000  1
  C  671  1  0.27037900  0.74698000  0.34625200  1
  C  672  1  0.27053700  0.76865300  0.38092700  1
  C  673  1  0.26860900  0.80904300  0.37780300  1
  C  674  1  0.26890200  0.82713800  0.34198900  1
  C  687  1  0.27098800  0.74159000  0.27165700  1
  C  688  1  0.27096800  0.82743100  0.27153700  1
  C  691  1  0.27110300  0.65588200  0.27122100  1
  C  698  1  0.27133600  0.20613900  0.74957200  1
  C  699  1  0.27181500  0.20732000  0.70878500  1
  C  700  1  0.27055400  0.27977100  0.70878500  1
  C  701  1  0.27102200  0.28093400  0.74957500  1
  C  702  1  0.27018900  0.31809700  0.76735900  1
  C  703  1  0.26933600  0.35275100  0.74574200  1
  C  704  1  0.26770700  0.34974300  0.70534000  1
  C  705  1  0.26886800  0.31399900  0.68714700  1
  C  706  1  0.27298000  0.17308900  0.68711800  1
  C  707  1  0.27321800  0.13729300  0.70525100  1
  C  708  1  0.27124900  0.13420100  0.74564100  1
  C  709  1  0.27136400  0.16891200  0.76727000  1
  C  710  1  0.30871400  0.24362000  0.79562200  1
  C  711  1  0.30752200  0.24316500  0.83640900  1
  C  712  1  0.23507100  0.24424800  0.83640400  1
  C  713  1  0.23391300  0.24371900  0.79561700  1
  C  714  1  0.20084000  0.24587300  0.85804100  1
  C  715  1  0.16509600  0.24687600  0.83984600  1
  C  716  1  0.16209600  0.24515700  0.79944600  1
  C  717  1  0.19674900  0.24437900  0.77782900  1
  C  718  1  0.34595100  0.24366400  0.77793800  1
  C  719  1  0.38065500  0.24384800  0.79957900  1
  C  720  1  0.37754800  0.24190600  0.83997200  1
  C  721  1  0.34174600  0.24208200  0.85808700  1
  C  734  1  0.27130100  0.24355000  0.77259700  1
  C  735  1  0.27129000  0.24359100  0.85844900  1
  C  738  1  0.27133800  0.24355100  0.68674200  1
  C  745  1  0.28131700  0.75052000  0.48391500  1
  C  747  1  0.24581900  0.71033700  0.52791200  1
  C  748  1  0.26217300  0.72966100  0.56024400  1
  C  750  1  0.29766500  0.76924200  0.51612400  1
  C  752  1  0.21715100  0.67902800  0.53070100  1
  C  756  1  0.28809500  0.76331100  0.44649600  1
  C  758  1  0.25070600  0.72311600  0.59829300  1
  C  760  1  0.26152400  0.75092800  0.05972910  1
  C  762  1  0.30424000  0.72751500  0.01002110  1
  C  763  1  0.27841900  0.73991500  0.98076700  1
  C  765  1  0.23589300  0.76259300  0.03046110  1
  C  767  1  0.34120200  0.70827400  0.00182405  1
  C  771  1  0.25493600  0.76155300  0.09786710  1
  C  773  1  0.28440900  0.73652200  0.94103200  1
  C  775  1  0.48374700  0.25439400  0.78152400  1
  C  777  1  0.52787000  0.21867700  0.74164500  1
  C  778  1  0.56015800  0.23509100  0.76100400  1
  C  780  1  0.51592600  0.27075400  0.80030000  1
  C  782  1  0.53073200  0.18985400  0.71048600  1
  C  786  1  0.44630200  0.26122500  0.79426000  1
  C  788  1  0.59823200  0.22351800  0.75468900  1
  C  790  1  0.05953110  0.23205200  0.78217000  1
  C  792  1  0.00951305  0.27420100  0.75841200  1
  C  793  1  0.98046800  0.24824300  0.77101700  1
  C  795  1  0.03046910  0.20630500  0.79407900  1
  C  797  1  0.00102005  0.31094200  0.73887800  1
  C  801  1  0.09770310  0.22579400  0.79282700  1
  C  803  1  0.94069500  0.25384800  0.76757500  1
  C  805  1  0.78014200  0.45532200  0.28219900  1
  C  807  1  0.74051000  0.49970900  0.24654600  1
  C  808  1  0.75997000  0.53186300  0.26309500  1
  C  810  1  0.79900100  0.48736700  0.29872000  1
  C  812  1  0.70942300  0.50278300  0.21766800  1
  C  816  1  0.79270000  0.41780400  0.28893100  1
  C  818  1  0.75385300  0.56998700  0.25161100  1
  C  820  1  0.78063000  0.03125070  0.26058100  1
  C  822  1  0.75740700  0.98110100  0.30288800  1
  C  823  1  0.76994500  0.95211600  0.27683100  1
  C  825  1  0.79244500  0.00224371  0.23472900  1
  C  827  1  0.73820300  0.97251600  0.33978200  1
  C  831  1  0.79107400  0.06948370  0.25429500  1
  C  833  1  0.76673900  0.91232100  0.28246200  1
  C  835  1  0.78003800  0.24274500  0.06273210  1
  C  837  1  0.74668100  0.21413500  0.00856505  1
  C  838  1  0.77100000  0.23358600  0.98202800  1
  C  840  1  0.80396000  0.26198800  0.03614910  1
  C  842  1  0.71485600  0.18856100  0.99677900  1
  C  846  1  0.78373000  0.24699300  0.10266000  1
  C  848  1  0.76811800  0.23036500  0.94189100  1
  C  850  1  0.77729200  0.24307300  0.48078800  1
  C  852  1  0.73291900  0.25972000  0.53181600  1
  C  853  1  0.76169900  0.25344500  0.56031300  1
  C  855  1  0.80552300  0.23641000  0.50926300  1
  C  857  1  0.69336500  0.27299400  0.54020200  1
  C  861  1  0.78392900  0.23980300  0.44115000  1
  C  863  1  0.75697600  0.26483300  0.59868900  1
  C  865  1  0.28162800  0.45544100  0.76304700  1
  C  867  1  0.23911300  0.50502800  0.78704000  1
  C  868  1  0.26480200  0.53433400  0.77448800  1
  C  870  1  0.30715300  0.48474700  0.75126700  1
  C  872  1  0.20234300  0.51315100  0.80667800  1
  C  876  1  0.28821200  0.41730800  0.75241600  1
  C  878  1  0.25883200  0.57404900  0.77806700  1
  C  880  1  0.26108100  0.03113570  0.76391400  1
  C  882  1  0.29704300  0.98735500  0.80394000  1
  C  883  1  0.28063000  0.95491800  0.78483900  1
  C  885  1  0.24470700  0.99881300  0.74540600  1
  C  887  1  0.32597200  0.98474400  0.83502200  1
  C  891  1  0.25412500  0.06849770  0.75102300  1
  C  893  1  0.29215800  0.91690600  0.79152800  1
  C  895  1  0.48046600  0.74806400  0.27174900  1
  C  897  1  0.53160200  0.70385800  0.28850900  1
  C  898  1  0.56002000  0.73268100  0.28211200  1
  C  900  1  0.50887200  0.77633200  0.26496900  1
  C  902  1  0.54009400  0.66437200  0.30191800  1
  C  906  1  0.44081200  0.75459100  0.26846800  1
  C  908  1  0.59844800  0.72810100  0.29338600  1
  C  910  1  0.06249010  0.75088500  0.27129500  1
  C  912  1  0.00824305  0.71766300  0.24267600  1
  C  913  1  0.98176100  0.74208200  0.26208100  1
  C  915  1  0.03596010  0.77490200  0.29049700  1
  C  917  1  0.99638200  0.68586000  0.21711400  1
  C  921  1  0.10242400  0.75446500  0.27557800  1
  C  923  1  0.94161500  0.73930900  0.25882900  1
  N  44  1  0.02843800  0.36754300  0.51471300  1
  N  45  1  0.00195600  0.51391200  0.36912900  1
  N  46  1  0.99764700  0.51148100  0.65910200  1
  N  47  1  0.02376600  0.65751400  0.51246100  1
  N  91  1  0.51766700  0.02324100  0.36981000  1
  N  92  1  0.36909100  0.00360500  0.51669600  1
  N  93  1  0.65902500  0.99570400  0.51438600  1
  N  94  1  0.51623300  0.02948300  0.66139200  1
  N  138  1  0.36947300  0.51766700  0.02306100  1
  N  139  1  0.51601800  0.36943300  0.00305700  1
  N  140  1  0.51366700  0.65938400  0.99561000  1
  N  141  1  0.66109900  0.51622700  0.02918500  1
  N  185  1  0.52362900  0.86851900  0.01742500  1
  N  186  1  0.49671900  0.01008400  0.86659700  1
  N  187  1  0.49759500  0.01384400  0.15847000  1
  N  188  1  0.52362300  0.15792400  0.01094900  1
  N  232  1  0.01774100  0.52285000  0.86842200  1
  N  233  1  0.86632400  0.49614700  0.00996100  1
  N  234  1  0.15820200  0.49693700  0.01385000  1
  N  235  1  0.01036000  0.52293000  0.15774300  1
  N  279  1  0.86807100  0.01753400  0.52530100  1
  N  280  1  0.01443300  0.86897900  0.50298800  1
  N  281  1  0.00824800  0.15833200  0.50272100  1
  N  282  1  0.15748600  0.01232300  0.52512500  1
  N  284  1  0.99733100  0.49210700  0.23323500  1
  N  287  1  0.02866200  0.52875700  0.29366900  1
  N  299  1  0.03616900  0.50424600  0.78907200  1
  N  302  1  0.98678600  0.52703900  0.73453400  1
  N  314  1  0.23315600  0.99899400  0.49453200  1
  N  317  1  0.29350500  0.03044200  0.53122800  1
  N  329  1  0.78863200  0.03520200  0.50648700  1
  N  332  1  0.73448200  0.98558200  0.52968500  1
  N  344  1  0.49323100  0.23365200  0.99804000  1
  N  347  1  0.53010700  0.29374900  0.02975400  1
  N  359  1  0.50525200  0.78898500  0.03512400  1
  N  362  1  0.52830000  0.73495600  0.98531200  1
  N  374  1  0.49381100  0.99000700  0.78843900  1
  N  377  1  0.53987900  0.02694000  0.73913400  1
  N  389  1  0.48370900  0.02441200  0.23558700  1
  N  392  1  0.53834200  0.01254700  0.28850000  1
  N  404  1  0.98998400  0.23757200  0.52168600  1
  N  407  1  0.03912200  0.29221500  0.49858900  1
  N  419  1  0.02816900  0.79353300  0.53369900  1
  N  422  1  0.99671600  0.73289300  0.49749700  1
  N  434  1  0.23534900  0.48327800  0.02447000  1
  N  437  1  0.28813800  0.53798800  0.01234800  1
  N  449  1  0.78813500  0.49341500  0.98984000  1
  N  452  1  0.73893200  0.53966300  0.02669200  1
  N  506  1  0.28702000  0.59739400  0.77329500  1
  N  507  1  0.26053800  0.74376300  0.62771100  1
  N  508  1  0.25622900  0.74133200  0.91768400  1
  N  509  1  0.28234800  0.88736500  0.77104300  1
  N  553  1  0.77624900  0.25309200  0.62839200  1
  N  554  1  0.62767300  0.23345600  0.77527800  1
  N  555  1  0.91760700  0.22555500  0.77296800  1
  N  556  1  0.77481500  0.25933400  0.91997400  1
  N  600  1  0.62805500  0.74751800  0.28164300  1
  N  601  1  0.77460000  0.59928400  0.26163900  1
  N  602  1  0.77224900  0.88923500  0.25419200  1
  N  603  1  0.91968100  0.74607800  0.28776700  1
  N  647  1  0.78221100  0.09836970  0.27600700  1
  N  648  1  0.75530100  0.23993500  0.12517900  1
  N  649  1  0.75617700  0.24369500  0.41705200  1
  N  650  1  0.78220500  0.38777500  0.26953100  1
  N  694  1  0.27632300  0.75270100  0.12700400  1
  N  695  1  0.12490600  0.72599800  0.26854300  1
  N  696  1  0.41678400  0.72678800  0.27243200  1
  N  697  1  0.26894200  0.75278100  0.41632500  1
  N  741  1  0.12665300  0.24738500  0.78388300  1
  N  742  1  0.27301500  0.09882970  0.76157000  1
  N  743  1  0.26683000  0.38818300  0.76130300  1
  N  744  1  0.41606800  0.24217400  0.78370700  1
  N  746  1  0.25591300  0.72195800  0.49181700  1
  N  749  1  0.28724400  0.75860800  0.55225100  1
  N  761  1  0.29475100  0.73409700  0.04765410  1
  N  764  1  0.24536800  0.75689000  0.99311600  1
  N  776  1  0.49173800  0.22884500  0.75311400  1
  N  779  1  0.55208700  0.26029300  0.78981000  1
  N  791  1  0.04721410  0.26505300  0.76506900  1
  N  794  1  0.99306400  0.21543300  0.78826700  1
  N  806  1  0.75181300  0.46350300  0.25662200  1
  N  809  1  0.78868900  0.52360000  0.28833600  1
  N  821  1  0.76383400  0.01883570  0.29370600  1
  N  824  1  0.78688200  0.96480700  0.24389400  1
  N  836  1  0.75239300  0.21985800  0.04702110  1
  N  839  1  0.79846100  0.25679100  0.99771600  1
  N  851  1  0.74229100  0.25426300  0.49416900  1
  N  854  1  0.79692400  0.24239800  0.54708200  1
  N  866  1  0.24856600  0.46742300  0.78026800  1
  N  869  1  0.29770400  0.52206600  0.75717100  1
  N  881  1  0.28675100  0.02338370  0.79228100  1
  N  884  1  0.25529800  0.96274400  0.75607900  1
  N  896  1  0.49393100  0.71312900  0.28305200  1
  N  899  1  0.54672000  0.76783900  0.27093000  1
  N  911  1  0.04671710  0.72326600  0.24842200  1
  N  914  1  0.99751400  0.76951400  0.28527400  1
