# generated using pymatgen
data_SiH32(C11N2)4
_symmetry_space_group_name_H-M   'P 1'
_cell_length_a   28.72020000
_cell_length_b   58.57825000
_cell_length_c   58.57830000
_cell_angle_alpha   120.00008471
_cell_angle_beta   89.97390000
_cell_angle_gamma   90.00000004
_symmetry_Int_Tables_number   1
_chemical_formula_structural   SiH32(C11N2)4
_chemical_formula_sum   'Si12 H384 C528 N96'
_cell_volume   85347.50267066
_cell_formula_units_Z   12
loop_
 _symmetry_equiv_pos_site_id
 _symmetry_equiv_pos_as_xyz
  1  'x, y, z'
loop_
 _atom_site_type_symbol
 _atom_site_label
 _atom_site_symmetry_multiplicity
 _atom_site_fract_x
 _atom_site_fract_y
 _atom_site_fract_z
 _atom_site_occupancy
  Si  9  1  0.75847300  0.56299200  0.44026400  1
  Si  50  1  0.75591100  0.87866300  0.43696000  1
  Si  91  1  0.75958200  0.55906600  0.12038200  1
  Si  132  1  0.25839700  0.44012600  0.56025200  1
  Si  173  1  0.25568900  0.12167600  0.55979400  1
  Si  214  1  0.25973800  0.43955300  0.87786100  1
  Si  519  1  0.75847300  0.39228000  0.76461600  1
  Si  560  1  0.75591100  0.70795100  0.76131190  1
  Si  601  1  0.75958200  0.38835400  0.44473390  1
  Si  642  1  0.25839700  0.26941400  0.88460400  1
  Si  683  1  0.25568900  0.95096400  0.88414600  1
  Si  724  1  0.25973800  0.26884100  0.20221300  1
  H  28  1  0.82916800  0.64041000  0.44937300  1
  H  29  1  0.82907000  0.59579100  0.43880700  1
  H  30  1  0.69078600  0.64882400  0.47674700  1
  H  31  1  0.69063100  0.60445700  0.46683900  1
  H  32  1  0.68489400  0.56667000  0.41039100  1
  H  33  1  0.67976000  0.55748500  0.36639100  1
  H  34  1  0.81921000  0.53112600  0.35320900  1
  H  35  1  0.82416300  0.53931000  0.39703000  1
  H  36  1  0.78956300  0.51065900  0.42046700  1
  H  37  1  0.85149000  0.49232600  0.43284000  1
  H  38  1  0.89277500  0.56862700  0.49145700  1
  H  39  1  0.83004400  0.58704300  0.47999300  1
  H  40  1  0.72991700  0.57844100  0.49225000  1
  H  41  1  0.68723100  0.52318800  0.41461200  1
  H  42  1  0.62363800  0.51079900  0.43182000  1
  H  43  1  0.66659000  0.56530800  0.50926200  1
  H  69  1  0.83411300  0.81572000  0.35884100  1
  H  70  1  0.83126600  0.84975800  0.40349400  1
  H  71  1  0.68885100  0.82197000  0.35252800  1
  H  72  1  0.68578000  0.85627900  0.39691400  1
  H  73  1  0.67928700  0.85028900  0.44085800  1
  H  74  1  0.67441500  0.81568800  0.45048800  1
  H  75  1  0.81960000  0.81983000  0.46316700  1
  H  76  1  0.82472200  0.85496700  0.45415600  1
  H  77  1  0.79307800  0.90737700  0.48866300  1
  H  78  1  0.85403500  0.93860800  0.50692200  1
  H  79  1  0.88123800  0.92987900  0.43209600  1
  H  80  1  0.81873500  0.89972600  0.41398500  1
  H  81  1  0.71279100  0.90641800  0.41409500  1
  H  82  1  0.69974800  0.90142600  0.48344300  1
  H  83  1  0.63744700  0.93185300  0.49748700  1
  H  84  1  0.64895800  0.93608100  0.42781400  1
  H  110  1  0.83194000  0.54894400  0.18767500  1
  H  111  1  0.83116800  0.55956700  0.15369300  1
  H  112  1  0.69219800  0.52368700  0.17072500  1
  H  113  1  0.69151100  0.53342100  0.13618800  1
  H  114  1  0.68719400  0.58956600  0.15468000  1
  H  115  1  0.68368800  0.63355400  0.18971500  1
  H  116  1  0.82289200  0.64554200  0.17497000  1
  H  117  1  0.82632100  0.60171500  0.13926000  1
  H  118  1  0.79005200  0.57879500  0.08769400  1
  H  119  1  0.85180300  0.56648100  0.05685700  1
  H  120  1  0.89303500  0.50742500  0.07393700  1
  H  121  1  0.83049800  0.51885300  0.10396900  1
  H  122  1  0.72995000  0.50728600  0.08416100  1
  H  123  1  0.68808700  0.58516100  0.10691200  1
  H  124  1  0.62392400  0.56827800  0.07769900  1
  H  125  1  0.66606900  0.49061300  0.05444100  1
  H  151  1  0.33021800  0.36258900  0.55020200  1
  H  152  1  0.32957000  0.40726200  0.56106600  1
  H  153  1  0.19095400  0.35433200  0.52423200  1
  H  154  1  0.19039300  0.39870500  0.53423600  1
  H  155  1  0.18460600  0.43661900  0.59016400  1
  H  156  1  0.17952600  0.44549000  0.63405800  1
  H  157  1  0.31935500  0.47117000  0.64706200  1
  H  158  1  0.32424700  0.46332500  0.60336300  1
  H  159  1  0.28991200  0.49246300  0.58042800  1
  H  160  1  0.35200700  0.51081900  0.56816600  1
  H  161  1  0.39230300  0.43461200  0.50881500  1
  H  162  1  0.32938900  0.41620500  0.52014600  1
  H  163  1  0.22936200  0.42447800  0.50830300  1
  H  164  1  0.18750000  0.48012500  0.58600300  1
  H  165  1  0.12376400  0.49253000  0.56891500  1
  H  166  1  0.16589500  0.43761700  0.49140600  1
  H  192  1  0.32947300  0.18804000  0.63719900  1
  H  193  1  0.32749500  0.15478700  0.59239100  1
  H  194  1  0.18956100  0.17175000  0.64606100  1
  H  195  1  0.18782000  0.13764600  0.60151000  1
  H  196  1  0.18228400  0.15523800  0.56328400  1
  H  197  1  0.17780300  0.19050200  0.55477000  1
  H  198  1  0.31781200  0.17771400  0.52935100  1
  H  199  1  0.32210500  0.14159800  0.53683600  1
  H  200  1  0.28941400  0.08966600  0.50763300  1
  H  201  1  0.35382100  0.06018200  0.49024300  1
  H  202  1  0.38844500  0.07611100  0.56685800  1
  H  203  1  0.32425300  0.10500200  0.58428600  1
  H  204  1  0.22598100  0.08551800  0.57549500  1
  H  205  1  0.18493000  0.10769100  0.51982100  1
  H  206  1  0.12073500  0.07846100  0.50748400  1
  H  207  1  0.16226700  0.05559900  0.56226600  1
  H  233  1  0.33196600  0.45005600  0.81074100  1
  H  234  1  0.33102600  0.43882100  0.84428800  1
  H  235  1  0.19274000  0.47617200  0.82851200  1
  H  236  1  0.19191500  0.46584300  0.86266000  1
  H  237  1  0.18633700  0.40981300  0.84408300  1
  H  238  1  0.18123600  0.36588900  0.80915100  1
  H  239  1  0.32044100  0.35250300  0.82251700  1
  H  240  1  0.32535000  0.39627200  0.85829600  1
  H  241  1  0.29047900  0.41944500  0.91020100  1
  H  242  1  0.35194100  0.43184300  0.94118800  1
  H  243  1  0.39319800  0.49100600  0.92426400  1
  H  244  1  0.33088600  0.47955900  0.89417100  1
  H  245  1  0.23099200  0.49147100  0.91439800  1
  H  246  1  0.18818900  0.41374700  0.89165600  1
  H  247  1  0.12422000  0.43085800  0.92101200  1
  H  248  1  0.16731900  0.50837600  0.94430900  1
  H  255  1  0.04872700  0.46634900  0.54068200  1
  H  262  1  0.93848100  0.48991600  0.43239600  1
  H  263  1  0.90576200  0.54101400  0.51230200  1
  H  264  1  0.13640000  0.48193800  0.49247900  1
  H  266  1  0.02684600  0.45489800  0.44467700  1
  H  267  1  0.99772900  0.45776300  0.42184500  1
  H  269  1  0.96675200  0.47041700  0.53777400  1
  H  270  1  0.94287800  0.47879600  0.51728400  1
  H  277  1  0.04545700  0.07703100  0.53584000  1
  H  283  1  0.93894900  0.94218100  0.50693000  1
  H  284  1  0.89753300  0.97667600  0.46201300  1
  H  285  1  0.13324500  0.01213600  0.51573400  1
  H  287  1  0.02793300  0.98876300  0.54211600  1
  H  288  1  0.00029900  0.96210700  0.53782500  1
  H  290  1  0.96340500  0.07047500  0.53330700  1
  H  291  1  0.93946200  0.04148900  0.52432400  1
  H  298  1  0.04969400  0.45968200  0.92301700  1
  H  305  1  0.93913800  0.56699500  0.05533800  1
  H  306  1  0.90572500  0.48698400  0.02532200  1
  H  307  1  0.13718300  0.50672300  0.98731600  1
  H  309  1  0.02833300  0.55520400  0.00855800  1
  H  310  1  0.99915200  0.57786300  0.03436400  1
  H  312  1  0.96762800  0.46303800  0.92976600  1
  H  313  1  0.94366300  0.48334700  0.95868500  1
  H  320  1  0.54897700  0.53727000  0.46048300  1
  H  327  1  0.43901900  0.51288900  0.56835300  1
  H  328  1  0.40561800  0.46254500  0.48841900  1
  H  329  1  0.63686600  0.52079900  0.50793900  1
  H  331  1  0.52800200  0.54776800  0.55629100  1
  H  332  1  0.49887900  0.54474500  0.57904000  1
  H  334  1  0.46700300  0.53345800  0.46365300  1
  H  335  1  0.44318000  0.52495500  0.48406900  1
  H  341  1  0.55573100  0.93445000  0.48623800  1
  H  348  1  0.46653600  0.07529100  0.54298500  1
  H  349  1  0.37951100  0.01496100  0.48801800  1
  H  350  1  0.62622200  0.98153000  0.46165000  1
  H  352  1  0.56744400  0.03505400  0.52838800  1
  H  353  1  0.54556400  0.06505100  0.54650400  1
  H  355  1  0.48361500  0.94981600  0.50888700  1
  H  356  1  0.45951000  0.97789200  0.51463300  1
  H  363  1  0.54893100  0.53994500  0.07555800  1
  H  370  1  0.43888000  0.43170700  0.94354200  1
  H  371  1  0.40550300  0.51158900  0.97268400  1
  H  372  1  0.63635700  0.49203300  0.01149900  1
  H  374  1  0.52724600  0.44399500  0.99083400  1
  H  375  1  0.49832200  0.42116400  0.96504200  1
  H  377  1  0.46689200  0.53701400  0.06872100  1
  H  378  1  0.44289800  0.51653300  0.03988800  1
  H  385  1  0.72477900  0.49632500  0.18915400  1
  H  392  1  0.71247900  0.57669200  0.34155100  1
  H  393  1  0.78214700  0.50373500  0.30840200  1
  H  394  1  0.79307100  0.56953600  0.23121500  1
  H  396  1  0.69729700  0.57626900  0.28124600  1
  H  397  1  0.68743400  0.59248500  0.31339900  1
  H  399  1  0.69580000  0.47626300  0.21322000  1
  H  400  1  0.70174100  0.49007400  0.24560100  1
  H  407  1  0.72564500  0.69466700  0.50430600  1
  H  414  1  0.70229800  0.76921300  0.42718800  1
  H  415  1  0.78625900  0.80562700  0.49515900  1
  H  416  1  0.78693200  0.66336300  0.42919200  1
  H  418  1  0.68756400  0.70914600  0.42750600  1
  H  419  1  0.67457700  0.72578600  0.41234800  1
  H  421  1  0.69886200  0.73937100  0.52578500  1
  H  422  1  0.70373000  0.75818300  0.51216400  1
  H  429  1  0.71994200  0.80831100  0.30658200  1
  H  436  1  0.71970400  0.65743400  0.23347100  1
  H  437  1  0.78534600  0.69084000  0.19274200  1
  H  438  1  0.80311900  0.76911400  0.33551100  1
  H  440  1  0.70744100  0.71757500  0.29392400  1
  H  441  1  0.69714800  0.68546200  0.27797800  1
  H  443  1  0.69048400  0.78354100  0.26259500  1
  H  444  1  0.70146100  0.75168800  0.24333900  1
  H  451  1  0.22564700  0.50386100  0.81065500  1
  H  458  1  0.21201200  0.42564000  0.65832700  1
  H  459  1  0.28276000  0.49828400  0.69207300  1
  H  460  1  0.29306300  0.43049000  0.76738600  1
  H  462  1  0.19705700  0.42518800  0.71820600  1
  H  463  1  0.18683500  0.40941900  0.68609900  1
  H  465  1  0.19707100  0.52477200  0.78732300  1
  H  466  1  0.20292400  0.51147100  0.75498700  1
  H  473  1  0.22399300  0.30863500  0.49666500  1
  H  480  1  0.21057800  0.23458600  0.57501300  1
  H  481  1  0.28162500  0.19598800  0.50242100  1
  H  482  1  0.29089000  0.33918800  0.57019700  1
  H  484  1  0.19545600  0.29501800  0.57569600  1
  H  485  1  0.18529200  0.27858200  0.59137500  1
  H  487  1  0.19556000  0.26437700  0.47592700  1
  H  488  1  0.20138900  0.24547400  0.48937400  1
  H  495  1  0.22226600  0.18933900  0.69146100  1
  H  502  1  0.21466900  0.34157800  0.76521300  1
  H  503  1  0.28280900  0.30753800  0.80460500  1
  H  504  1  0.29305900  0.23168100  0.66139600  1
  H  506  1  0.19885100  0.28169700  0.70505100  1
  H  507  1  0.18967600  0.31390500  0.72121700  1
  H  509  1  0.19422300  0.21303000  0.73582400  1
  H  510  1  0.20176100  0.24523400  0.75494000  1
  H  538  1  0.82916800  0.46969800  0.77372500  1
  H  539  1  0.82907000  0.42507900  0.76315900  1
  H  540  1  0.69078600  0.47811200  0.80109900  1
  H  541  1  0.69063100  0.43374500  0.79119100  1
  H  542  1  0.68489400  0.39595800  0.73474300  1
  H  543  1  0.67976000  0.38677300  0.69074300  1
  H  544  1  0.81921000  0.36041400  0.67756100  1
  H  545  1  0.82416300  0.36859800  0.72138200  1
  H  546  1  0.78956300  0.33994700  0.74481900  1
  H  547  1  0.85149000  0.32161400  0.75719200  1
  H  548  1  0.89277500  0.39791500  0.81580900  1
  H  549  1  0.83004400  0.41633100  0.80434500  1
  H  550  1  0.72991700  0.40772900  0.81660200  1
  H  551  1  0.68723100  0.35247600  0.73896400  1
  H  552  1  0.62363800  0.34008700  0.75617200  1
  H  553  1  0.66659000  0.39459600  0.83361400  1
  H  579  1  0.83411300  0.64500800  0.68319290  1
  H  580  1  0.83126600  0.67904600  0.72784590  1
  H  581  1  0.68885100  0.65125800  0.67687990  1
  H  582  1  0.68578000  0.68556700  0.72126590  1
  H  583  1  0.67928700  0.67957700  0.76520990  1
  H  584  1  0.67441500  0.64497600  0.77484000  1
  H  585  1  0.81960000  0.64911800  0.78751900  1
  H  586  1  0.82472200  0.68425500  0.77850790  1
  H  587  1  0.79307800  0.73666500  0.81301490  1
  H  588  1  0.85403500  0.76789600  0.83127390  1
  H  589  1  0.88123800  0.75916700  0.75644800  1
  H  590  1  0.81873500  0.72901400  0.73833687  1
  H  591  1  0.71279100  0.73570600  0.73844687  1
  H  592  1  0.69974800  0.73071400  0.80779490  1
  H  593  1  0.63744700  0.76114100  0.82183890  1
  H  594  1  0.64895800  0.76536900  0.75216600  1
  H  620  1  0.83194000  0.37823200  0.51202700  1
  H  621  1  0.83116800  0.38885500  0.47804490  1
  H  622  1  0.69219800  0.35297500  0.49507700  1
  H  623  1  0.69151100  0.36270900  0.46053990  1
  H  624  1  0.68719400  0.41885400  0.47903190  1
  H  625  1  0.68368800  0.46284200  0.51406690  1
  H  626  1  0.82289200  0.47483000  0.49932190  1
  H  627  1  0.82632100  0.43100300  0.46361190  1
  H  628  1  0.79005200  0.40808300  0.41204587  1
  H  629  1  0.85180300  0.39576900  0.38120900  1
  H  630  1  0.89303500  0.33671300  0.39828890  1
  H  631  1  0.83049800  0.34814100  0.42832090  1
  H  632  1  0.72995000  0.33657400  0.40851290  1
  H  633  1  0.68808700  0.41444900  0.43126390  1
  H  634  1  0.62392400  0.39756600  0.40205087  1
  H  635  1  0.66606900  0.31990100  0.37879290  1
  H  661  1  0.33021800  0.19187700  0.87455400  1
  H  662  1  0.32957000  0.23655000  0.88541800  1
  H  663  1  0.19095400  0.18362000  0.84858400  1
  H  664  1  0.19039300  0.22799300  0.85858800  1
  H  665  1  0.18460600  0.26590700  0.91451600  1
  H  666  1  0.17952600  0.27477800  0.95841000  1
  H  667  1  0.31935500  0.30045800  0.97141400  1
  H  668  1  0.32424700  0.29261300  0.92771500  1
  H  669  1  0.28991200  0.32175100  0.90478000  1
  H  670  1  0.35200700  0.34010700  0.89251800  1
  H  671  1  0.39230300  0.26390000  0.83316700  1
  H  672  1  0.32938900  0.24549300  0.84449800  1
  H  673  1  0.22936200  0.25376600  0.83265500  1
  H  674  1  0.18750000  0.30941300  0.91035500  1
  H  675  1  0.12376400  0.32181800  0.89326700  1
  H  676  1  0.16589500  0.26690500  0.81575800  1
  H  702  1  0.32947300  0.01732800  0.96155100  1
  H  703  1  0.32749500  0.98407500  0.91674300  1
  H  704  1  0.18956100  0.00103800  0.97041300  1
  H  705  1  0.18782000  0.96693400  0.92586200  1
  H  706  1  0.18228400  0.98452600  0.88763600  1
  H  707  1  0.17780300  0.01979000  0.87912200  1
  H  708  1  0.31781200  0.00700200  0.85370300  1
  H  709  1  0.32210500  0.97088600  0.86118800  1
  H  710  1  0.28941400  0.91895400  0.83198500  1
  H  711  1  0.35382100  0.88947000  0.81459500  1
  H  712  1  0.38844500  0.90539900  0.89121000  1
  H  713  1  0.32425300  0.93429000  0.90863800  1
  H  714  1  0.22598100  0.91480600  0.89984700  1
  H  715  1  0.18493000  0.93697900  0.84417300  1
  H  716  1  0.12073500  0.90774900  0.83183600  1
  H  717  1  0.16226700  0.88488700  0.88661787  1
  H  743  1  0.33196600  0.27934400  0.13509300  1
  H  744  1  0.33102600  0.26810900  0.16864000  1
  H  745  1  0.19274000  0.30546000  0.15286400  1
  H  746  1  0.19191500  0.29513100  0.18701200  1
  H  747  1  0.18633700  0.23910100  0.16843500  1
  H  748  1  0.18123600  0.19517700  0.13350300  1
  H  749  1  0.32044100  0.18179100  0.14686900  1
  H  750  1  0.32535000  0.22556000  0.18264800  1
  H  751  1  0.29047900  0.24873300  0.23455300  1
  H  752  1  0.35194100  0.26113100  0.26553987  1
  H  753  1  0.39319800  0.32029400  0.24861600  1
  H  754  1  0.33088600  0.30884700  0.21852300  1
  H  755  1  0.23099200  0.32075900  0.23875000  1
  H  756  1  0.18818900  0.24303500  0.21600800  1
  H  757  1  0.12422000  0.26014600  0.24536400  1
  H  758  1  0.16731900  0.33766400  0.26866100  1
  H  765  1  0.04872700  0.29563700  0.86503400  1
  H  772  1  0.93848100  0.31920400  0.75674800  1
  H  773  1  0.90576200  0.37030200  0.83665400  1
  H  774  1  0.13640000  0.31122600  0.81683100  1
  H  776  1  0.02684600  0.28418600  0.76902900  1
  H  777  1  0.99772900  0.28705100  0.74619700  1
  H  779  1  0.96675200  0.29970500  0.86212600  1
  H  780  1  0.94287800  0.30808400  0.84163600  1
  H  787  1  0.04545700  0.90631900  0.86019200  1
  H  793  1  0.93894900  0.77146900  0.83128190  1
  H  794  1  0.89753300  0.80596400  0.78636500  1
  H  795  1  0.13324500  0.84142400  0.84008600  1
  H  797  1  0.02793300  0.81805100  0.86646790  1
  H  798  1  0.00029900  0.79139500  0.86217690  1
  H  800  1  0.96340500  0.89976300  0.85765900  1
  H  801  1  0.93946200  0.87077700  0.84867600  1
  H  808  1  0.04969400  0.28897000  0.24736900  1
  H  815  1  0.93913800  0.39628300  0.37969000  1
  H  816  1  0.90572500  0.31627200  0.34967390  1
  H  817  1  0.13718300  0.33601100  0.31166800  1
  H  819  1  0.02833300  0.38449200  0.33291000  1
  H  820  1  0.99915200  0.40715100  0.35871600  1
  H  822  1  0.96762800  0.29232600  0.25411800  1
  H  823  1  0.94366300  0.31263500  0.28303700  1
  H  830  1  0.54897700  0.36655800  0.78483500  1
  H  837  1  0.43901900  0.34217700  0.89270500  1
  H  838  1  0.40561800  0.29183300  0.81277100  1
  H  839  1  0.63686600  0.35008700  0.83229100  1
  H  841  1  0.52800200  0.37705600  0.88064300  1
  H  842  1  0.49887900  0.37403300  0.90339200  1
  H  844  1  0.46700300  0.36274600  0.78800500  1
  H  845  1  0.44318000  0.35424300  0.80842100  1
  H  851  1  0.55573100  0.76373800  0.81058990  1
  H  858  1  0.46653600  0.90457900  0.86733700  1
  H  859  1  0.37951100  0.84424900  0.81237000  1
  H  860  1  0.62622200  0.81081800  0.78600200  1
  H  862  1  0.56744400  0.86434200  0.85274000  1
  H  863  1  0.54556400  0.89433900  0.87085600  1
  H  865  1  0.48361500  0.77910400  0.83323890  1
  H  866  1  0.45951000  0.80718000  0.83898490  1
  H  873  1  0.54893100  0.36923300  0.39990990  1
  H  880  1  0.43888000  0.26099500  0.26789387  1
  H  881  1  0.40550300  0.34087700  0.29703600  1
  H  882  1  0.63635700  0.32132100  0.33585090  1
  H  884  1  0.52724600  0.27328300  0.31518590  1
  H  885  1  0.49832200  0.25045200  0.28939390  1
  H  887  1  0.46689200  0.36630200  0.39307290  1
  H  888  1  0.44289800  0.34582100  0.36423990  1
  H  895  1  0.72477900  0.32561300  0.51350600  1
  H  902  1  0.71247900  0.40598000  0.66590300  1
  H  903  1  0.78214700  0.33302300  0.63275400  1
  H  904  1  0.79307100  0.39882400  0.55556700  1
  H  906  1  0.69729700  0.40555700  0.60559800  1
  H  907  1  0.68743400  0.42177300  0.63775100  1
  H  909  1  0.69580000  0.30555100  0.53757200  1
  H  910  1  0.70174100  0.31936200  0.56995300  1
  H  917  1  0.72564500  0.52395500  0.82865800  1
  H  924  1  0.70229800  0.59850100  0.75154000  1
  H  925  1  0.78625900  0.63491500  0.81951100  1
  H  926  1  0.78693200  0.49265100  0.75354400  1
  H  928  1  0.68756400  0.53843400  0.75185800  1
  H  929  1  0.67457700  0.55507400  0.73670000  1
  H  931  1  0.69886200  0.56865900  0.85013700  1
  H  932  1  0.70373000  0.58747100  0.83651600  1
  H  939  1  0.71994200  0.63759900  0.63093400  1
  H  946  1  0.71970400  0.48672200  0.55782290  1
  H  947  1  0.78534600  0.52012800  0.51709400  1
  H  948  1  0.80311900  0.59840200  0.65986290  1
  H  950  1  0.70744100  0.54686300  0.61827590  1
  H  951  1  0.69714800  0.51475000  0.60232990  1
  H  953  1  0.69048400  0.61282900  0.58694700  1
  H  954  1  0.70146100  0.58097600  0.56769100  1
  H  961  1  0.22564700  0.33314900  0.13500700  1
  H  968  1  0.21201200  0.25492800  0.98267900  1
  H  969  1  0.28276000  0.32757200  0.01642500  1
  H  970  1  0.29306300  0.25977800  0.09173800  1
  H  972  1  0.19705700  0.25447600  0.04255800  1
  H  973  1  0.18683500  0.23870700  0.01045100  1
  H  975  1  0.19707100  0.35406000  0.11167500  1
  H  976  1  0.20292400  0.34075900  0.07933900  1
  H  983  1  0.22399300  0.13792300  0.82101700  1
  H  990  1  0.21057800  0.06387400  0.89936500  1
  H  991  1  0.28162500  0.02527600  0.82677300  1
  H  992  1  0.29089000  0.16847600  0.89454900  1
  H  994  1  0.19545600  0.12430600  0.90004800  1
  H  995  1  0.18529200  0.10787000  0.91572700  1
  H  997  1  0.19556000  0.09366500  0.80027900  1
  H  998  1  0.20138900  0.07476200  0.81372600  1
  H  1005  1  0.22226600  0.01862700  0.01581300  1
  H  1012  1  0.21466900  0.17086600  0.08956500  1
  H  1013  1  0.28280900  0.13682600  0.12895700  1
  H  1014  1  0.29305900  0.06096900  0.98574800  1
  H  1016  1  0.19885100  0.11098500  0.02940300  1
  H  1017  1  0.18967600  0.14319300  0.04556900  1
  H  1019  1  0.19422300  0.04231800  0.06017590  1
  H  1020  1  0.20176100  0.07452200  0.07929187  1
  C  3  1  0.63848800  0.53711600  0.47219400  1
  C  4  1  0.64551800  0.52533200  0.44473600  1
  C  5  1  0.68306200  0.53292500  0.43461400  1
  C  6  1  0.71391400  0.55325000  0.45156300  1
  C  7  1  0.70789000  0.56415800  0.47909700  1
  C  8  1  0.67068500  0.55631600  0.48925000  1
  C  10  1  0.80451600  0.55094800  0.44801400  1
  C  11  1  0.83471100  0.56709800  0.46909700  1
  C  12  1  0.87148200  0.55614900  0.47631300  1
  C  13  1  0.87909300  0.52861000  0.46306100  1
  C  14  1  0.84830900  0.51241100  0.44238200  1
  C  15  1  0.81142100  0.52332800  0.43520400  1
  C  16  1  0.75432100  0.55264700  0.40813600  1
  C  17  1  0.76065800  0.59559000  0.45295600  1
  C  18  1  0.80015900  0.60689700  0.44791000  1
  C  19  1  0.80017100  0.63330900  0.45391200  1
  C  20  1  0.76028000  0.64935400  0.46459400  1
  C  21  1  0.72111000  0.63832900  0.47018400  1
  C  22  1  0.72113400  0.61189800  0.46427900  1
  C  23  1  0.71325900  0.55827000  0.39846000  1
  C  24  1  0.71028800  0.55313100  0.37239300  1
  C  25  1  0.74883300  0.54311000  0.35511100  1
  C  26  1  0.78990500  0.53742800  0.36467200  1
  C  27  1  0.79273500  0.54226400  0.39072500  1
  C  44  1  0.63574800  0.93650800  0.46374100  1
  C  45  1  0.65196400  0.92605000  0.47943800  1
  C  46  1  0.68907300  0.90801900  0.47107800  1
  C  47  1  0.71090400  0.89931000  0.44640700  1
  C  48  1  0.69669400  0.91104200  0.43148300  1
  C  49  1  0.65925700  0.92891500  0.43975600  1
  C  51  1  0.80116900  0.89900000  0.44901100  1
  C  52  1  0.82651500  0.90697100  0.43345000  1
  C  53  1  0.86307600  0.92529900  0.44430200  1
  C  54  1  0.87483300  0.93703500  0.47131100  1
  C  55  1  0.84810900  0.92990100  0.48708400  1
  C  56  1  0.81171800  0.91147500  0.47623300  1
  C  57  1  0.75216600  0.85746300  0.44800200  1
  C  58  1  0.75874200  0.85816900  0.40453000  1
  C  59  1  0.80107800  0.84513300  0.39279600  1
  C  60  1  0.80282200  0.82472300  0.36638600  1
  C  61  1  0.76202000  0.81593900  0.35086200  1
  C  62  1  0.71956400  0.82861900  0.36258500  1
  C  63  1  0.71786400  0.84906200  0.38899300  1
  C  64  1  0.70915600  0.84496300  0.44655100  1
  C  65  1  0.70623100  0.82418700  0.45194500  1
  C  66  1  0.74639200  0.81450200  0.45825000  1
  C  67  1  0.78942400  0.82691400  0.45973100  1
  C  68  1  0.79235700  0.84777800  0.45438000  1
  C  85  1  0.63835300  0.52783000  0.06350500  1
  C  86  1  0.64573400  0.55525300  0.07918100  1
  C  87  1  0.68361600  0.56518100  0.09665700  1
  C  88  1  0.71447700  0.54805700  0.09975700  1
  C  89  1  0.70796900  0.52055700  0.08320200  1
  C  90  1  0.67045500  0.51060400  0.06543800  1
  C  92  1  0.80506400  0.55103900  0.10016800  1
  C  93  1  0.83510700  0.52981700  0.09499000  1
  C  94  1  0.87174800  0.52262500  0.07674100  1
  C  95  1  0.87933500  0.53606100  0.06263700  1
  C  96  1  0.84858300  0.55680500  0.06726900  1
  C  97  1  0.81180900  0.56393800  0.08543000  1
  C  98  1  0.75636700  0.59121100  0.14220100  1
  C  99  1  0.76203700  0.54633100  0.14023500  1
  C  100  1  0.80207800  0.55083900  0.15606600  1
  C  101  1  0.80250600  0.54478300  0.17643600  1
  C  102  1  0.76242100  0.53475900  0.18243400  1
  C  103  1  0.72265000  0.52976200  0.16636600  1
  C  104  1  0.72234800  0.53556800  0.14577600  1
  C  105  1  0.71581900  0.60124100  0.15792900  1
  C  106  1  0.71379400  0.62729100  0.17895900  1
  C  107  1  0.75279400  0.64418800  0.18580500  1
  C  108  1  0.79331100  0.63433200  0.17011000  1
  C  109  1  0.79520500  0.60827800  0.14884000  1
  C  126  1  0.13817600  0.46601200  0.52852200  1
  C  127  1  0.14548800  0.47790600  0.55596300  1
  C  128  1  0.18311600  0.47030800  0.56601600  1
  C  129  1  0.21377700  0.44987300  0.54901600  1
  C  130  1  0.20746800  0.43884100  0.52149200  1
  C  131  1  0.17019100  0.44669300  0.51140700  1
  C  133  1  0.30438200  0.45221600  0.55250300  1
  C  134  1  0.33432700  0.43611500  0.53123900  1
  C  135  1  0.37118900  0.44706900  0.52408900  1
  C  136  1  0.37913800  0.47457800  0.53759100  1
  C  137  1  0.34855300  0.49074500  0.55842400  1
  C  138  1  0.31158600  0.47981800  0.56554700  1
  C  139  1  0.25423700  0.45033800  0.59234900  1
  C  140  1  0.26072300  0.40753100  0.54749900  1
  C  141  1  0.30055600  0.39617500  0.55216900  1
  C  142  1  0.30088300  0.36971600  0.54600100  1
  C  143  1  0.26092500  0.35366600  0.53564200  1
  C  144  1  0.22135000  0.36478100  0.53051000  1
  C  145  1  0.22113800  0.39122200  0.53644300  1
  C  146  1  0.21306400  0.44483700  0.60204900  1
  C  147  1  0.21013500  0.44976300  0.62804500  1
  C  148  1  0.24880800  0.45946600  0.64523500  1
  C  149  1  0.28996800  0.46508200  0.63567500  1
  C  150  1  0.29276300  0.46045300  0.60968800  1
  C  167  1  0.13494800  0.06449900  0.53393600  1
  C  168  1  0.14244800  0.08004200  0.52206600  1
  C  169  1  0.18032000  0.09753200  0.52963300  1
  C  170  1  0.21087000  0.10085100  0.55005900  1
  C  171  1  0.20419900  0.08441500  0.56113100  1
  C  172  1  0.16677600  0.06657200  0.55325200  1
  C  174  1  0.30166700  0.10177800  0.54803000  1
  C  175  1  0.33054900  0.09662400  0.56452700  1
  C  176  1  0.36854600  0.07932000  0.55422700  1
  C  177  1  0.37826100  0.06589000  0.52693400  1
  C  178  1  0.34808700  0.06980400  0.51015300  1
  C  179  1  0.31028400  0.08738400  0.52053200  1
  C  180  1  0.25193200  0.14359900  0.54962000  1
  C  181  1  0.25820300  0.14157200  0.59238200  1
  C  182  1  0.29852900  0.15717700  0.60359300  1
  C  183  1  0.29967800  0.17713200  0.63016300  1
  C  184  1  0.25995700  0.18310100  0.64644800  1
  C  185  1  0.21975900  0.16739200  0.63540500  1
  C  186  1  0.21881900  0.14706100  0.60888200  1
  C  187  1  0.21089100  0.15891100  0.55516100  1
  C  188  1  0.20832800  0.18013900  0.55046800  1
  C  189  1  0.24725200  0.18768600  0.54098200  1
  C  190  1  0.28827200  0.17238600  0.53529900  1
  C  191  1  0.29070200  0.15086700  0.53969500  1
  C  208  1  0.13914400  0.47125300  0.93521700  1
  C  209  1  0.14622600  0.44380500  0.91952200  1
  C  210  1  0.18398000  0.43374600  0.90195100  1
  C  211  1  0.21497500  0.45075700  0.89875700  1
  C  212  1  0.20886400  0.47828100  0.91540200  1
  C  213  1  0.17146900  0.48837100  0.93326400  1
  C  215  1  0.30550700  0.44726800  0.89781900  1
  C  216  1  0.33553500  0.46851100  0.90305700  1
  C  217  1  0.37201400  0.47574200  0.92138000  1
  C  218  1  0.37946200  0.46234900  0.93554000  1
  C  219  1  0.34883900  0.44150800  0.93076300  1
  C  220  1  0.31225500  0.43430200  0.91248800  1
  C  221  1  0.25565400  0.40747400  0.85592500  1
  C  222  1  0.26219300  0.45246300  0.85815900  1
  C  223  1  0.30209800  0.44784000  0.84218200  1
  C  224  1  0.30260700  0.45424300  0.82205400  1
  C  225  1  0.26272500  0.46473100  0.81644200  1
  C  226  1  0.22305000  0.46974600  0.83260400  1
  C  227  1  0.22267400  0.46360700  0.85296200  1
  C  228  1  0.21466200  0.39786100  0.84056000  1
  C  229  1  0.21170200  0.37183400  0.81957400  1
  C  230  1  0.25021200  0.35453900  0.81230700  1
  C  231  1  0.29118600  0.36400000  0.82764600  1
  C  232  1  0.29398900  0.39002100  0.84894500  1
  C  249  1  0.09913000  0.47307200  0.51848500  1
  C  250  1  0.10426600  0.48066600  0.49927200  1
  C  252  1  0.02196800  0.48641800  0.49770200  1
  C  253  1  0.01409200  0.47868900  0.51687900  1
  C  254  1  0.05350000  0.47236000  0.52715500  1
  C  256  1  0.98658100  0.49504300  0.48695600  1
  C  257  1  0.97954000  0.48503900  0.45952800  1
  C  258  1  0.94388700  0.49668600  0.45203400  1
  C  259  1  0.91572700  0.51743400  0.47079900  1
  C  260  1  0.92504400  0.52636300  0.49762500  1
  C  271  1  0.09582600  0.04751900  0.52686900  1
  C  272  1  0.10104200  0.02043800  0.51799500  1
  C  274  1  0.01849300  0.01355600  0.51368800  1
  C  275  1  0.01063500  0.04077000  0.52273600  1
  C  276  1  0.05013300  0.05729800  0.52891400  1
  C  278  1  0.98297700  0.99422700  0.50501500  1
  C  279  1  0.97825300  0.97523600  0.51324800  1
  C  280  1  0.94247700  0.95620300  0.50149000  1
  C  281  1  0.91165700  0.95588900  0.48247900  1
  C  282  1  0.91869700  0.97534000  0.47531000  1
  C  292  1  0.09999000  0.48131000  0.95221400  1
  C  293  1  0.10504900  0.50021200  0.97912300  1
  C  295  1  0.02265800  0.50210200  0.98617800  1
  C  296  1  0.01486200  0.48327700  0.95916000  1
  C  297  1  0.05436700  0.47297000  0.94262900  1
  C  299  1  0.98714400  0.51270900  0.00547000  1
  C  300  1  0.98030800  0.54008600  0.02322700  1
  C  301  1  0.94446400  0.54740200  0.04224300  1
  C  302  1  0.91603900  0.52849800  0.04380500  1
  C  303  1  0.92522100  0.50172900  0.02563300  1
  C  314  1  0.59947400  0.53010200  0.48230200  1
  C  315  1  0.60469300  0.52229300  0.50134600  1
  C  317  1  0.52236100  0.51682500  0.50319300  1
  C  318  1  0.51441200  0.52480100  0.48421200  1
  C  319  1  0.55379200  0.53110200  0.47388400  1
  C  321  1  0.48696500  0.50816000  0.51390800  1
  C  322  1  0.48011900  0.51791800  0.54131200  1
  C  323  1  0.44432900  0.50627900  0.54873700  1
  C  324  1  0.41589600  0.48575400  0.52992700  1
  C  325  1  0.42508500  0.47702900  0.50312500  1
  C  336  1  0.59760100  0.95456800  0.47227800  1
  C  337  1  0.59831800  0.97728800  0.46971100  1
  C  338  1  0.52442900  0.99174800  0.49097100  1
  C  339  1  0.52074600  0.96925500  0.49407800  1
  C  340  1  0.55780300  0.95087300  0.48434000  1
  C  342  1  0.49071100  0.01194000  0.50011900  1
  C  343  1  0.49933900  0.03837600  0.52019500  1
  C  344  1  0.46151900  0.05622100  0.52825000  1
  C  345  1  0.41676000  0.04835100  0.51694500  1
  C  346  1  0.41119200  0.02199200  0.49663700  1
  C  357  1  0.59920900  0.51787700  0.04649300  1
  C  358  1  0.60425100  0.49874900  0.01965300  1
  C  360  1  0.52189800  0.49703700  0.01253800  1
  C  361  1  0.51412300  0.51617800  0.03946700  1
  C  362  1  0.55361100  0.52647400  0.05599600  1
  C  364  1  0.48647000  0.48627500  0.99321700  1
  C  365  1  0.47966300  0.45884800  0.97568400  1
  C  366  1  0.44409200  0.45134000  0.95650600  1
  C  367  1  0.41583700  0.47009900  0.95458500  1
  C  368  1  0.42487900  0.49692500  0.97261400  1
  C  379  1  0.76026300  0.53271600  0.20570900  1
  C  380  1  0.77767300  0.55318200  0.22987200  1
  C  382  1  0.74932700  0.53266400  0.25364000  1
  C  383  1  0.73179900  0.51095900  0.23006700  1
  C  384  1  0.73774200  0.51153200  0.20632600  1
  C  386  1  0.74489700  0.53583500  0.27910200  1
  C  387  1  0.72419900  0.55835700  0.30067500  1
  C  388  1  0.72615600  0.56027400  0.32569600  1
  C  389  1  0.74706700  0.54058000  0.32956100  1
  C  390  1  0.76663900  0.51876600  0.30714500  1
  C  401  1  0.75772600  0.67475400  0.46688000  1
  C  402  1  0.77296800  0.67847100  0.44604100  1
  C  404  1  0.74656900  0.72315300  0.46788000  1
  C  405  1  0.73116800  0.72123400  0.48992600  1
  C  406  1  0.73704500  0.69667500  0.48883700  1
  C  408  1  0.74187300  0.74573800  0.46526600  1
  C  409  1  0.71718300  0.74578400  0.44425200  1
  C  410  1  0.71897900  0.76900600  0.44253200  1
  C  411  1  0.74401800  0.79159900  0.46088700  1
  C  412  1  0.76755000  0.79003500  0.48121700  1
  C  423  1  0.76240600  0.79309300  0.32526800  1
  C  424  1  0.78518100  0.76987000  0.32084000  1
  C  426  1  0.75551500  0.74538200  0.27692600  1
  C  427  1  0.73280700  0.76810400  0.27948400  1
  C  428  1  0.73683100  0.79178500  0.30399800  1
  C  430  1  0.75171400  0.71985700  0.25478000  1
  C  431  1  0.73185900  0.69827000  0.25602200  1
  C  432  1  0.73289500  0.67333000  0.23280300  1
  C  433  1  0.75212100  0.66962500  0.20893200  1
  C  434  1  0.77109200  0.69204500  0.20929700  1
  C  445  1  0.26067800  0.46729100  0.79345700  1
  C  446  1  0.27789600  0.44705000  0.76909000  1
  C  448  1  0.24984600  0.46837500  0.74604900  1
  C  449  1  0.23256200  0.48989200  0.76985700  1
  C  450  1  0.23844600  0.48879800  0.79332500  1
  C  452  1  0.24525700  0.46564700  0.72077900  1
  C  453  1  0.22412900  0.44341200  0.69911300  1
  C  454  1  0.22595700  0.44186900  0.67425600  1
  C  455  1  0.24710600  0.46167200  0.67064800  1
  C  456  1  0.26705300  0.48320100  0.69315100  1
  C  467  1  0.25873900  0.32821700  0.53329800  1
  C  468  1  0.27581400  0.32425300  0.55366000  1
  C  470  1  0.24811600  0.27982000  0.53244200  1
  C  471  1  0.23090100  0.28196900  0.51083700  1
  C  472  1  0.23668500  0.30648300  0.51181300  1
  C  474  1  0.24381900  0.25726900  0.53518800  1
  C  475  1  0.22271200  0.25774100  0.55739000  1
  C  476  1  0.22461300  0.23437900  0.55884100  1
  C  477  1  0.24581800  0.21101500  0.53898500  1
  C  478  1  0.26588700  0.21211200  0.51754200  1
  C  489  1  0.25874200  0.20604700  0.67206100  1
  C  490  1  0.27749200  0.23013900  0.67625700  1
  C  492  1  0.24988800  0.25351400  0.72070000  1
  C  493  1  0.23117300  0.22997600  0.71838100  1
  C  494  1  0.23609600  0.20646900  0.69374600  1
  C  496  1  0.24586600  0.27888000  0.74316700  1
  C  497  1  0.22574500  0.30067500  0.74240300  1
  C  498  1  0.22796900  0.32557300  0.76563100  1
  C  499  1  0.24848800  0.32910400  0.78914900  1
  C  500  1  0.26757200  0.30650000  0.78835300  1
  C  513  1  0.63848800  0.36640400  0.79654600  1
  C  514  1  0.64551800  0.35462000  0.76908800  1
  C  515  1  0.68306200  0.36221300  0.75896600  1
  C  516  1  0.71391400  0.38253800  0.77591500  1
  C  517  1  0.70789000  0.39344600  0.80344900  1
  C  518  1  0.67068500  0.38560400  0.81360200  1
  C  520  1  0.80451600  0.38023600  0.77236600  1
  C  521  1  0.83471100  0.39638600  0.79344900  1
  C  522  1  0.87148200  0.38543700  0.80066500  1
  C  523  1  0.87909300  0.35789800  0.78741300  1
  C  524  1  0.84830900  0.34169900  0.76673400  1
  C  525  1  0.81142100  0.35261600  0.75955600  1
  C  526  1  0.75432100  0.38193500  0.73248800  1
  C  527  1  0.76065800  0.42487800  0.77730800  1
  C  528  1  0.80015900  0.43618500  0.77226200  1
  C  529  1  0.80017100  0.46259700  0.77826400  1
  C  530  1  0.76028000  0.47864200  0.78894600  1
  C  531  1  0.72111000  0.46761700  0.79453600  1
  C  532  1  0.72113400  0.44118600  0.78863100  1
  C  533  1  0.71325900  0.38755800  0.72281200  1
  C  534  1  0.71028800  0.38241900  0.69674500  1
  C  535  1  0.74883300  0.37239800  0.67946300  1
  C  536  1  0.78990500  0.36671600  0.68902400  1
  C  537  1  0.79273500  0.37155200  0.71507700  1
  C  554  1  0.63574800  0.76579600  0.78809290  1
  C  555  1  0.65196400  0.75533800  0.80378990  1
  C  556  1  0.68907300  0.73730700  0.79542990  1
  C  557  1  0.71090400  0.72859800  0.77075890  1
  C  558  1  0.69669400  0.74033000  0.75583490  1
  C  559  1  0.65925700  0.75820300  0.76410787  1
  C  561  1  0.80116900  0.72828800  0.77336290  1
  C  562  1  0.82651500  0.73625900  0.75780190  1
  C  563  1  0.86307600  0.75458700  0.76865390  1
  C  564  1  0.87483300  0.76632300  0.79566290  1
  C  565  1  0.84810900  0.75918900  0.81143590  1
  C  566  1  0.81171800  0.74076300  0.80058490  1
  C  567  1  0.75216600  0.68675100  0.77235390  1
  C  568  1  0.75874200  0.68745700  0.72888190  1
  C  569  1  0.80107800  0.67442100  0.71714790  1
  C  570  1  0.80282200  0.65401100  0.69073790  1
  C  571  1  0.76202000  0.64522700  0.67521390  1
  C  572  1  0.71956400  0.65790700  0.68693690  1
  C  573  1  0.71786400  0.67835000  0.71334490  1
  C  574  1  0.70915600  0.67425100  0.77090290  1
  C  575  1  0.70623100  0.65347500  0.77629700  1
  C  576  1  0.74639200  0.64379000  0.78260200  1
  C  577  1  0.78942400  0.65620200  0.78408300  1
  C  578  1  0.79235700  0.67706600  0.77873200  1
  C  595  1  0.63835300  0.35711800  0.38785690  1
  C  596  1  0.64573400  0.38454100  0.40353290  1
  C  597  1  0.68361600  0.39446900  0.42100890  1
  C  598  1  0.71447700  0.37734500  0.42410890  1
  C  599  1  0.70796900  0.34984500  0.40755390  1
  C  600  1  0.67045500  0.33989200  0.38978990  1
  C  602  1  0.80506400  0.38032700  0.42451990  1
  C  603  1  0.83510700  0.35910500  0.41934190  1
  C  604  1  0.87174800  0.35191300  0.40109290  1
  C  605  1  0.87933500  0.36534900  0.38698890  1
  C  606  1  0.84858300  0.38609300  0.39162087  1
  C  607  1  0.81180900  0.39322600  0.40978190  1
  C  608  1  0.75636700  0.42049900  0.46655290  1
  C  609  1  0.76203700  0.37561900  0.46458690  1
  C  610  1  0.80207800  0.38012700  0.48041800  1
  C  611  1  0.80250600  0.37407100  0.50078800  1
  C  612  1  0.76242100  0.36404700  0.50678600  1
  C  613  1  0.72265000  0.35905000  0.49071800  1
  C  614  1  0.72234800  0.36485600  0.47012800  1
  C  615  1  0.71581900  0.43052900  0.48228090  1
  C  616  1  0.71379400  0.45657900  0.50331090  1
  C  617  1  0.75279400  0.47347600  0.51015690  1
  C  618  1  0.79331100  0.46362000  0.49446190  1
  C  619  1  0.79520500  0.43756600  0.47319190  1
  C  636  1  0.13817600  0.29530000  0.85287400  1
  C  637  1  0.14548800  0.30719400  0.88031500  1
  C  638  1  0.18311600  0.29959600  0.89036800  1
  C  639  1  0.21377700  0.27916100  0.87336800  1
  C  640  1  0.20746800  0.26812900  0.84584400  1
  C  641  1  0.17019100  0.27598100  0.83575900  1
  C  643  1  0.30438200  0.28150400  0.87685500  1
  C  644  1  0.33432700  0.26540300  0.85559100  1
  C  645  1  0.37118900  0.27635700  0.84844100  1
  C  646  1  0.37913800  0.30386600  0.86194300  1
  C  647  1  0.34855300  0.32003300  0.88277600  1
  C  648  1  0.31158600  0.30910600  0.88989900  1
  C  649  1  0.25423700  0.27962600  0.91670100  1
  C  650  1  0.26072300  0.23681900  0.87185100  1
  C  651  1  0.30055600  0.22546300  0.87652100  1
  C  652  1  0.30088300  0.19900400  0.87035300  1
  C  653  1  0.26092500  0.18295400  0.85999400  1
  C  654  1  0.22135000  0.19406900  0.85486200  1
  C  655  1  0.22113800  0.22051000  0.86079500  1
  C  656  1  0.21306400  0.27412500  0.92640100  1
  C  657  1  0.21013500  0.27905100  0.95239700  1
  C  658  1  0.24880800  0.28875400  0.96958700  1
  C  659  1  0.28996800  0.29437000  0.96002700  1
  C  660  1  0.29276300  0.28974100  0.93404000  1
  C  677  1  0.13494800  0.89378700  0.85828800  1
  C  678  1  0.14244800  0.90933000  0.84641800  1
  C  679  1  0.18032000  0.92682000  0.85398500  1
  C  680  1  0.21087000  0.93013900  0.87441100  1
  C  681  1  0.20419900  0.91370300  0.88548300  1
  C  682  1  0.16677600  0.89586000  0.87760400  1
  C  684  1  0.30166700  0.93106600  0.87238200  1
  C  685  1  0.33054900  0.92591200  0.88887900  1
  C  686  1  0.36854600  0.90860800  0.87857900  1
  C  687  1  0.37826100  0.89517800  0.85128600  1
  C  688  1  0.34808700  0.89909200  0.83450500  1
  C  689  1  0.31028400  0.91667200  0.84488400  1
  C  690  1  0.25193200  0.97288700  0.87397200  1
  C  691  1  0.25820300  0.97086000  0.91673400  1
  C  692  1  0.29852900  0.98646500  0.92794500  1
  C  693  1  0.29967800  0.00642000  0.95451500  1
  C  694  1  0.25995700  0.01238900  0.97080000  1
  C  695  1  0.21975900  0.99668003  0.95975703  1
  C  696  1  0.21881900  0.97634900  0.93323400  1
  C  697  1  0.21089100  0.98819900  0.87951300  1
  C  698  1  0.20832800  0.00942700  0.87482000  1
  C  699  1  0.24725200  0.01697400  0.86533400  1
  C  700  1  0.28827200  0.00167400  0.85965100  1
  C  701  1  0.29070200  0.98015500  0.86404700  1
  C  718  1  0.13914400  0.30054100  0.25956900  1
  C  719  1  0.14622600  0.27309300  0.24387400  1
  C  720  1  0.18398000  0.26303400  0.22630300  1
  C  721  1  0.21497500  0.28004500  0.22310900  1
  C  722  1  0.20886400  0.30756900  0.23975400  1
  C  723  1  0.17146900  0.31765900  0.25761600  1
  C  725  1  0.30550700  0.27655600  0.22217100  1
  C  726  1  0.33553500  0.29779900  0.22740900  1
  C  727  1  0.37201400  0.30503000  0.24573200  1
  C  728  1  0.37946200  0.29163700  0.25989200  1
  C  729  1  0.34883900  0.27079600  0.25511500  1
  C  730  1  0.31225500  0.26359000  0.23684000  1
  C  731  1  0.25565400  0.23676200  0.18027700  1
  C  732  1  0.26219300  0.28175100  0.18251100  1
  C  733  1  0.30209800  0.27712800  0.16653400  1
  C  734  1  0.30260700  0.28353100  0.14640600  1
  C  735  1  0.26272500  0.29401900  0.14079400  1
  C  736  1  0.22305000  0.29903400  0.15695600  1
  C  737  1  0.22267400  0.29289500  0.17731400  1
  C  738  1  0.21466200  0.22714900  0.16491200  1
  C  739  1  0.21170200  0.20112200  0.14392600  1
  C  740  1  0.25021200  0.18382700  0.13665900  1
  C  741  1  0.29118600  0.19328800  0.15199800  1
  C  742  1  0.29398900  0.21930900  0.17329700  1
  C  759  1  0.09913000  0.30236000  0.84283700  1
  C  760  1  0.10426600  0.30995400  0.82362400  1
  C  762  1  0.02196800  0.31570600  0.82205400  1
  C  763  1  0.01409200  0.30797700  0.84123100  1
  C  764  1  0.05350000  0.30164800  0.85150700  1
  C  766  1  0.98658100  0.32433100  0.81130800  1
  C  767  1  0.97954000  0.31432700  0.78388000  1
  C  768  1  0.94388700  0.32597400  0.77638600  1
  C  769  1  0.91572700  0.34672200  0.79515100  1
  C  770  1  0.92504400  0.35565100  0.82197700  1
  C  781  1  0.09582600  0.87680700  0.85122100  1
  C  782  1  0.10104200  0.84972600  0.84234700  1
  C  784  1  0.01849300  0.84284400  0.83804000  1
  C  785  1  0.01063500  0.87005800  0.84708800  1
  C  786  1  0.05013300  0.88658600  0.85326600  1
  C  788  1  0.98297700  0.82351500  0.82936687  1
  C  789  1  0.97825300  0.80452400  0.83759990  1
  C  790  1  0.94247700  0.78549100  0.82584190  1
  C  791  1  0.91165700  0.78517700  0.80683090  1
  C  792  1  0.91869700  0.80462800  0.79966200  1
  C  802  1  0.09999000  0.31059800  0.27656600  1
  C  803  1  0.10504900  0.32950000  0.30347500  1
  C  805  1  0.02265800  0.33139000  0.31053000  1
  C  806  1  0.01486200  0.31256500  0.28351200  1
  C  807  1  0.05436700  0.30225800  0.26698100  1
  C  809  1  0.98714400  0.34199700  0.32982200  1
  C  810  1  0.98030800  0.36937400  0.34757900  1
  C  811  1  0.94446400  0.37669000  0.36659500  1
  C  812  1  0.91603900  0.35778600  0.36815690  1
  C  813  1  0.92522100  0.33101700  0.34998490  1
  C  824  1  0.59947400  0.35939000  0.80665400  1
  C  825  1  0.60469300  0.35158100  0.82569800  1
  C  827  1  0.52236100  0.34611300  0.82754500  1
  C  828  1  0.51441200  0.35408900  0.80856400  1
  C  829  1  0.55379200  0.36039000  0.79823600  1
  C  831  1  0.48696500  0.33744800  0.83826000  1
  C  832  1  0.48011900  0.34720600  0.86566400  1
  C  833  1  0.44432900  0.33556700  0.87308900  1
  C  834  1  0.41589600  0.31504200  0.85427900  1
  C  835  1  0.42508500  0.30631700  0.82747700  1
  C  846  1  0.59760100  0.78385600  0.79662990  1
  C  847  1  0.59831800  0.80657600  0.79406300  1
  C  848  1  0.52442900  0.82103600  0.81532300  1
  C  849  1  0.52074600  0.79854300  0.81842990  1
  C  850  1  0.55780300  0.78016100  0.80869190  1
  C  852  1  0.49071100  0.84122800  0.82447100  1
  C  853  1  0.49933900  0.86766400  0.84454700  1
  C  854  1  0.46151900  0.88550900  0.85260200  1
  C  855  1  0.41676000  0.87763900  0.84129700  1
  C  856  1  0.41119200  0.85128000  0.82098900  1
  C  867  1  0.59920900  0.34716500  0.37084490  1
  C  868  1  0.60425100  0.32803700  0.34400490  1
  C  870  1  0.52189800  0.32632500  0.33688990  1
  C  871  1  0.51412300  0.34546600  0.36381890  1
  C  872  1  0.55361100  0.35576200  0.38034790  1
  C  874  1  0.48647000  0.31556300  0.31756887  1
  C  875  1  0.47966300  0.28813600  0.30003590  1
  C  876  1  0.44409200  0.28062800  0.28085787  1
  C  877  1  0.41583700  0.29938700  0.27893700  1
  C  878  1  0.42487900  0.32621300  0.29696600  1
  C  889  1  0.76026300  0.36200400  0.53006100  1
  C  890  1  0.77767300  0.38247000  0.55422400  1
  C  892  1  0.74932700  0.36195200  0.57799200  1
  C  893  1  0.73179900  0.34024700  0.55441900  1
  C  894  1  0.73774200  0.34082000  0.53067800  1
  C  896  1  0.74489700  0.36512300  0.60345400  1
  C  897  1  0.72419900  0.38764500  0.62502700  1
  C  898  1  0.72615600  0.38956200  0.65004800  1
  C  899  1  0.74706700  0.36986800  0.65391300  1
  C  900  1  0.76663900  0.34805400  0.63149700  1
  C  911  1  0.75772600  0.50404200  0.79123200  1
  C  912  1  0.77296800  0.50775900  0.77039300  1
  C  914  1  0.74656900  0.55244100  0.79223200  1
  C  915  1  0.73116800  0.55052200  0.81427800  1
  C  916  1  0.73704500  0.52596300  0.81318900  1
  C  918  1  0.74187300  0.57502600  0.78961800  1
  C  919  1  0.71718300  0.57507200  0.76860400  1
  C  920  1  0.71897900  0.59829400  0.76688400  1
  C  921  1  0.74401800  0.62088700  0.78523900  1
  C  922  1  0.76755000  0.61932300  0.80556900  1
  C  933  1  0.76240600  0.62238100  0.64961990  1
  C  934  1  0.78518100  0.59915800  0.64519190  1
  C  936  1  0.75551500  0.57467000  0.60127790  1
  C  937  1  0.73280700  0.59739200  0.60383587  1
  C  938  1  0.73683100  0.62107300  0.62834987  1
  C  940  1  0.75171400  0.54914500  0.57913190  1
  C  941  1  0.73185900  0.52755800  0.58037390  1
  C  942  1  0.73289500  0.50261800  0.55715490  1
  C  943  1  0.75212100  0.49891300  0.53328390  1
  C  944  1  0.77109200  0.52133300  0.53364890  1
  C  955  1  0.26067800  0.29657900  0.11780900  1
  C  956  1  0.27789600  0.27633800  0.09344200  1
  C  958  1  0.24984600  0.29766300  0.07040100  1
  C  959  1  0.23256200  0.31918000  0.09420900  1
  C  960  1  0.23844600  0.31808600  0.11767700  1
  C  962  1  0.24525700  0.29493500  0.04513100  1
  C  963  1  0.22412900  0.27270000  0.02346500  1
  C  964  1  0.22595700  0.27115700  0.99860800  1
  C  965  1  0.24710600  0.29096000  0.99500000  1
  C  966  1  0.26705300  0.31248900  0.01750300  1
  C  977  1  0.25873900  0.15750500  0.85765000  1
  C  978  1  0.27581400  0.15354100  0.87801200  1
  C  980  1  0.24811600  0.10910800  0.85679400  1
  C  981  1  0.23090100  0.11125700  0.83518900  1
  C  982  1  0.23668500  0.13577100  0.83616500  1
  C  984  1  0.24381900  0.08655700  0.85954000  1
  C  985  1  0.22271200  0.08702900  0.88174200  1
  C  986  1  0.22461300  0.06366700  0.88319300  1
  C  987  1  0.24581800  0.04030300  0.86333700  1
  C  988  1  0.26588700  0.04140000  0.84189400  1
  C  999  1  0.25874200  0.03533500  0.99641300  1
  C  1000  1  0.27749200  0.05942700  0.00060900  1
  C  1002  1  0.24988800  0.08280200  0.04505200  1
  C  1003  1  0.23117300  0.05926400  0.04273300  1
  C  1004  1  0.23609600  0.03575700  0.01809800  1
  C  1006  1  0.24586600  0.10816800  0.06751900  1
  C  1007  1  0.22574500  0.12996300  0.06675500  1
  C  1008  1  0.22796900  0.15486100  0.08998300  1
  C  1009  1  0.24848800  0.15839200  0.11350100  1
  C  1010  1  0.26757200  0.13578800  0.11270500  1
  N  1  1  0.95336900  0.99318800  0.48643900  1
  N  2  1  0.56263900  0.99469900  0.47902900  1
  N  251  1  0.06636600  0.48724900  0.49008400  1
  N  261  1  0.95937600  0.51517900  0.50450800  1
  N  265  1  0.00426300  0.46456000  0.44045300  1
  N  268  1  0.97092300  0.47635100  0.52506500  1
  N  273  1  0.06300900  0.00478300  0.51151600  1
  N  286  1  0.00518600  0.97504900  0.53225500  1
  N  289  1  0.96747600  0.05166200  0.52653300  1
  N  294  1  0.06704100  0.50940200  0.99481500  1
  N  304  1  0.95968600  0.49501800  0.00766100  1
  N  308  1  0.00534600  0.55927800  0.02222700  1
  N  311  1  0.97170700  0.47543700  0.94849600  1
  N  316  1  0.56680400  0.51573600  0.51058000  1
  N  326  1  0.45952000  0.48821600  0.49631000  1
  N  330  1  0.50508400  0.53819900  0.56043800  1
  N  333  1  0.47120600  0.52741900  0.47627900  1
  N  347  1  0.44752500  0.00503800  0.48930900  1
  N  351  1  0.54115300  0.04689800  0.53248300  1
  N  354  1  0.48452000  0.96515700  0.50657700  1
  N  359  1  0.56627100  0.48953100  0.00396700  1
  N  369  1  0.45914100  0.50382200  0.99071100  1
  N  373  1  0.50450300  0.43978100  0.97702700  1
  N  376  1  0.47098600  0.52427800  0.05007900  1
  N  381  1  0.77144200  0.55247100  0.25236200  1
  N  391  1  0.76520200  0.51732000  0.28333400  1
  N  395  1  0.70202400  0.57758900  0.29827800  1
  N  398  1  0.70831900  0.49057000  0.22959300  1
  N  403  1  0.76669100  0.70189300  0.44721900  1
  N  413  1  0.76590600  0.76761100  0.48254900  1
  N  417  1  0.69166900  0.72494700  0.42626300  1
  N  420  1  0.70979700  0.74138900  0.51115600  1
  N  425  1  0.78050600  0.74733600  0.29749400  1
  N  435  1  0.77038300  0.71581300  0.23173100  1
  N  439  1  0.71138200  0.70058300  0.27804300  1
  N  442  1  0.70624000  0.76773300  0.26009400  1
  N  447  1  0.27170200  0.44825300  0.74686400  1
  N  457  1  0.26576200  0.48427900  0.71679600  1
  N  461  1  0.20170200  0.42410700  0.70127200  1
  N  464  1  0.20930000  0.51055900  0.77079000  1
  N  469  1  0.26975900  0.30085800  0.55255600  1
  N  479  1  0.26447300  0.23471600  0.51653700  1
  N  483  1  0.20016000  0.27913900  0.57671800  1
  N  486  1  0.20787600  0.26212200  0.49015900  1
  N  491  1  0.27216500  0.25240600  0.69973700  1
  N  501  1  0.26591500  0.28279200  0.76586000  1
  N  505  1  0.20384700  0.29862300  0.72084900  1
  N  508  1  0.20741600  0.22937100  0.73815400  1
  N  511  1  0.95336900  0.82247600  0.81079100  1
  N  512  1  0.56263900  0.82398700  0.80338100  1
  N  761  1  0.06636600  0.31653700  0.81443600  1
  N  771  1  0.95937600  0.34446700  0.82886000  1
  N  775  1  0.00426300  0.29384800  0.76480500  1
  N  778  1  0.97092300  0.30563900  0.84941700  1
  N  783  1  0.06300900  0.83407100  0.83586787  1
  N  796  1  0.00518600  0.80433700  0.85660690  1
  N  799  1  0.96747600  0.88095000  0.85088500  1
  N  804  1  0.06704100  0.33869000  0.31916700  1
  N  814  1  0.95968600  0.32430600  0.33201287  1
  N  818  1  0.00534600  0.38856600  0.34657900  1
  N  821  1  0.97170700  0.30472500  0.27284800  1
  N  826  1  0.56680400  0.34502400  0.83493200  1
  N  836  1  0.45952000  0.31750400  0.82066200  1
  N  840  1  0.50508400  0.36748700  0.88479000  1
  N  843  1  0.47120600  0.35670700  0.80063100  1
  N  857  1  0.44752500  0.83432600  0.81366100  1
  N  861  1  0.54115300  0.87618600  0.85683500  1
  N  864  1  0.48452000  0.79444500  0.83092890  1
  N  869  1  0.56627100  0.31881900  0.32831887  1
  N  879  1  0.45914100  0.33311000  0.31506300  1
  N  883  1  0.50450300  0.26906900  0.30137890  1
  N  886  1  0.47098600  0.35356600  0.37443090  1
  N  891  1  0.77144200  0.38175900  0.57671400  1
  N  901  1  0.76520200  0.34660800  0.60768600  1
  N  905  1  0.70202400  0.40687700  0.62263000  1
  N  908  1  0.70831900  0.31985800  0.55394500  1
  N  913  1  0.76669100  0.53118100  0.77157100  1
  N  923  1  0.76590600  0.59689900  0.80690100  1
  N  927  1  0.69166900  0.55423500  0.75061500  1
  N  930  1  0.70979700  0.57067700  0.83550800  1
  N  935  1  0.78050600  0.57662400  0.62184590  1
  N  945  1  0.77038300  0.54510100  0.55608290  1
  N  949  1  0.71138200  0.52987100  0.60239490  1
  N  952  1  0.70624000  0.59702100  0.58444600  1
  N  957  1  0.27170200  0.27754100  0.07121600  1
  N  967  1  0.26576200  0.31356700  0.04114800  1
  N  971  1  0.20170200  0.25339500  0.02562400  1
  N  974  1  0.20930000  0.33984700  0.09514200  1
  N  979  1  0.26975900  0.13014600  0.87690800  1
  N  989  1  0.26447300  0.06400400  0.84088900  1
  N  993  1  0.20016000  0.10842700  0.90107000  1
  N  996  1  0.20787600  0.09141000  0.81451100  1
  N  1001  1  0.27216500  0.08169400  0.02408900  1
  N  1011  1  0.26591500  0.11208000  0.09021200  1
  N  1015  1  0.20384700  0.12791100  0.04520100  1
  N  1018  1  0.20741600  0.05865900  0.06250587  1
