# generated using pymatgen
data_H20C26N
_symmetry_space_group_name_H-M   'P 1'
_cell_length_a   26.03380000
_cell_length_b   67.38000000
_cell_length_c   67.38000000
_cell_angle_alpha   90.00000000
_cell_angle_beta   90.00000000
_cell_angle_gamma   90.00000000
_symmetry_Int_Tables_number   1
_chemical_formula_structural   H20C26N
_chemical_formula_sum   'H480 C624 N24'
_cell_volume   118195.12857672
_cell_formula_units_Z   24
loop_
 _symmetry_equiv_pos_site_id
 _symmetry_equiv_pos_as_xyz
  1  'x, y, z'
loop_
 _atom_site_type_symbol
 _atom_site_label
 _atom_site_symmetry_multiplicity
 _atom_site_fract_x
 _atom_site_fract_y
 _atom_site_fract_z
 _atom_site_occupancy
  H  25  1  0.80804600  0.33836200  0.31111600  1
  H  26  1  0.88134700  0.35212700  0.29471500  1
  H  27  1  0.85179700  0.28103900  0.29225800  1
  H  28  1  0.92580500  0.29472300  0.27627700  1
  H  29  1  0.08832500  0.33746700  0.30716300  1
  H  30  1  0.17245800  0.32796800  0.31774100  1
  H  31  1  0.12409000  0.31957700  0.24868500  1
  H  32  1  0.20787700  0.30967500  0.25939300  1
  H  33  1  0.03729200  0.39132000  0.24728700  1
  H  34  1  0.02388000  0.41676200  0.22310300  1
  H  35  1  0.91692000  0.38024500  0.19340600  1
  H  36  1  0.93041800  0.35471200  0.21748500  1
  H  37  1  0.91246800  0.35185800  0.25530100  1
  H  38  1  0.00853800  0.31659000  0.29095000  1
  H  39  1  0.07306100  0.35530000  0.24877600  1
  H  41  1  0.94663200  0.43014400  0.19993600  1
  H  42  1  0.92974600  0.41334300  0.18094600  1
  H  44  1  0.77922200  0.30351000  0.32899300  1
  H  45  1  0.77629500  0.28374200  0.31197900  1
  H  47  1  0.26925500  0.32476000  0.30256600  1
  H  48  1  0.27360200  0.30664500  0.28384700  1
  H  73  1  0.80777700  0.69862200  0.73344100  1
  H  74  1  0.88114700  0.68479700  0.74974800  1
  H  75  1  0.85178200  0.75589100  0.75236300  1
  H  76  1  0.92581600  0.74215200  0.76826000  1
  H  77  1  0.08828400  0.69991600  0.73678600  1
  H  78  1  0.17238500  0.70942300  0.72616600  1
  H  79  1  0.12435000  0.71769100  0.79527400  1
  H  80  1  0.20809000  0.72761100  0.78452700  1
  H  81  1  0.04011800  0.64566400  0.79631500  1
  H  82  1  0.02860600  0.62008500  0.82050400  1
  H  83  1  0.92053800  0.65574800  0.85063900  1
  H  84  1  0.93221200  0.68143000  0.82658700  1
  H  85  1  0.91352800  0.68466800  0.78890800  1
  H  86  1  0.00814400  0.72063600  0.75335600  1
  H  87  1  0.07432000  0.68173100  0.79494100  1
  H  89  1  0.95265100  0.60606900  0.84381500  1
  H  90  1  0.93474700  0.62271600  0.86278600  1
  H  92  1  0.77939500  0.73352400  0.71553600  1
  H  93  1  0.77644900  0.75328500  0.73255800  1
  H  95  1  0.26922300  0.71249500  0.74133200  1
  H  96  1  0.27374200  0.73059400  0.76006000  1
  H  121  1  0.30805900  0.72986100  0.34218600  1
  H  122  1  0.38152700  0.74614900  0.35595800  1
  H  123  1  0.35170600  0.74884100  0.28489500  1
  H  124  1  0.42584300  0.76471900  0.29858000  1
  H  125  1  0.58845500  0.73319300  0.34072900  1
  H  126  1  0.67251100  0.72255500  0.33118000  1
  H  127  1  0.62458800  0.79168100  0.32297300  1
  H  128  1  0.70828400  0.78091800  0.31301700  1
  H  129  1  0.54042500  0.79278800  0.39500000  1
  H  130  1  0.52885500  0.81697700  0.42057500  1
  H  131  1  0.42075700  0.84708000  0.38489500  1
  H  132  1  0.43249600  0.82303000  0.35921800  1
  H  133  1  0.41380500  0.78535200  0.35603500  1
  H  134  1  0.50832000  0.74976800  0.32006400  1
  H  135  1  0.57460300  0.79137600  0.35891800  1
  H  137  1  0.45284600  0.84025900  0.43457900  1
  H  138  1  0.43487700  0.85922100  0.41793100  1
  H  140  1  0.27941900  0.71200600  0.30729900  1
  H  141  1  0.27637400  0.72904500  0.28755700  1
  H  143  1  0.76935000  0.73768800  0.32809000  1
  H  144  1  0.77389100  0.75643900  0.31001700  1
  H  169  1  0.30774900  0.30751100  0.70243100  1
  H  170  1  0.38095700  0.29109300  0.68861400  1
  H  171  1  0.35187800  0.28872500  0.75973500  1
  H  172  1  0.42579300  0.27272700  0.74599800  1
  H  173  1  0.58815500  0.30355800  0.70317100  1
  H  174  1  0.67233000  0.31411700  0.71263000  1
  H  175  1  0.62385900  0.24507900  0.72107500  1
  H  176  1  0.70769200  0.25576900  0.73094300  1
  H  177  1  0.53701000  0.24372700  0.64934300  1
  H  178  1  0.52365400  0.21953900  0.62390100  1
  H  179  1  0.41670100  0.18982400  0.66040400  1
  H  180  1  0.43013700  0.21390900  0.68593800  1
  H  181  1  0.41220300  0.25172600  0.68883700  1
  H  182  1  0.50836300  0.28735000  0.72409800  1
  H  183  1  0.57278600  0.24519500  0.68534800  1
  H  185  1  0.44643900  0.19634800  0.61051400  1
  H  186  1  0.42961100  0.17735100  0.62731600  1
  H  188  1  0.27919800  0.32544400  0.73729600  1
  H  189  1  0.27637200  0.30845100  0.75708600  1
  H  191  1  0.76912800  0.29890900  0.71581700  1
  H  192  1  0.77345700  0.28021200  0.73395400  1
  H  217  1  0.19062200  0.69795800  0.30916900  1
  H  218  1  0.11621600  0.68507500  0.29278100  1
  H  219  1  0.15141900  0.75577800  0.29035200  1
  H  220  1  0.07649900  0.74299100  0.27432900  1
  H  221  1  0.91242200  0.70177100  0.30630300  1
  H  222  1  0.82906500  0.71093100  0.31799400  1
  H  223  1  0.87390300  0.72245500  0.24902400  1
  H  224  1  0.79087600  0.73209200  0.26088200  1
  H  225  1  0.94133500  0.65049600  0.24515700  1
  H  226  1  0.94764900  0.62398500  0.22228700  1
  H  227  1  0.07908400  0.65041600  0.19682300  1
  H  228  1  0.07106600  0.67771200  0.21908700  1
  H  229  1  0.08212100  0.68461000  0.25443000  1
  H  230  1  0.99298700  0.72302400  0.28941000  1
  H  231  1  0.92109900  0.68537200  0.24824400  1
  H  233  1  0.06133100  0.61139300  0.19636700  1
  H  234  1  0.02220100  0.62313000  0.17837100  1
  H  236  1  0.22059800  0.73245400  0.32742400  1
  H  237  1  0.22561600  0.75228200  0.31056600  1
  H  239  1  0.73157600  0.71451100  0.30334400  1
  H  240  1  0.72633700  0.73382700  0.28590400  1
  H  265  1  0.19033300  0.33937800  0.73545600  1
  H  266  1  0.11561900  0.35219500  0.75168400  1
  H  267  1  0.15135100  0.28153900  0.75428100  1
  H  268  1  0.07610900  0.29425800  0.77013400  1
  H  269  1  0.91202600  0.33507400  0.73764100  1
  H  270  1  0.82891900  0.32568300  0.72586300  1
  H  271  1  0.87300000  0.31476300  0.79499900  1
  H  272  1  0.79024200  0.30489600  0.78305900  1
  H  273  1  0.94111900  0.38703200  0.79847500  1
  H  274  1  0.94729600  0.41358100  0.82136400  1
  H  275  1  0.07598900  0.38632300  0.84802100  1
  H  276  1  0.06827900  0.35909300  0.82563600  1
  H  277  1  0.08101200  0.35260600  0.79003000  1
  H  278  1  0.99261800  0.31413600  0.75481600  1
  H  279  1  0.91987000  0.35190300  0.79567400  1
  H  281  1  0.06009800  0.42523000  0.84864900  1
  H  282  1  0.01800700  0.41399000  0.86595300  1
  H  284  1  0.22050400  0.30485200  0.71725500  1
  H  285  1  0.22572000  0.28508900  0.73418000  1
  H  287  1  0.73126500  0.32218000  0.74046200  1
  H  288  1  0.72597200  0.30292700  0.75796300  1
  H  313  1  0.69033400  0.30546800  0.34289700  1
  H  314  1  0.61564600  0.28920900  0.35570100  1
  H  315  1  0.65146500  0.28663100  0.28504900  1
  H  316  1  0.57625500  0.27074400  0.29775500  1
  H  317  1  0.41207600  0.30292400  0.33869100  1
  H  318  1  0.32890700  0.31468100  0.32936800  1
  H  319  1  0.37324800  0.24560600  0.31821200  1
  H  320  1  0.29041200  0.25752800  0.30841500  1
  H  321  1  0.44060100  0.24157500  0.39014900  1
  H  322  1  0.44705400  0.21870300  0.41666300  1
  H  323  1  0.57841400  0.19326400  0.39015500  1
  H  324  1  0.57026300  0.21552800  0.36286800  1
  H  325  1  0.58142100  0.25085700  0.35608800  1
  H  326  1  0.49261800  0.28593700  0.31766300  1
  H  327  1  0.42037700  0.24479400  0.35524800  1
  H  329  1  0.56087500  0.19283200  0.42918700  1
  H  330  1  0.52173000  0.17481300  0.41749200  1
  H  332  1  0.72070600  0.32363600  0.30839700  1
  H  333  1  0.72584900  0.30672500  0.28862100  1
  H  335  1  0.23130800  0.30008300  0.32579400  1
  H  336  1  0.22606200  0.28261100  0.30651300  1
  H  361  1  0.69061800  0.73176200  0.70146200  1
  H  362  1  0.61618000  0.74811900  0.68856800  1
  H  363  1  0.65131500  0.75056600  0.75927500  1
  H  364  1  0.57635500  0.76655400  0.74647900  1
  H  365  1  0.41236400  0.73427000  0.70537600  1
  H  366  1  0.32906500  0.72255900  0.71460000  1
  H  367  1  0.37365100  0.79159000  0.72589700  1
  H  368  1  0.29070000  0.77971300  0.73560200  1
  H  369  1  0.44186000  0.79490300  0.65360800  1
  H  370  1  0.44789500  0.81779200  0.62706300  1
  H  371  1  0.57665500  0.84448000  0.65424900  1
  H  372  1  0.56907200  0.82209200  0.68148800  1
  H  373  1  0.58171000  0.78646700  0.68808600  1
  H  374  1  0.49298300  0.75135100  0.72654100  1
  H  375  1  0.42059600  0.79223600  0.68871100  1
  H  377  1  0.56055200  0.84512700  0.61535100  1
  H  378  1  0.51846900  0.86240600  0.62663400  1
  H  380  1  0.72041000  0.71347800  0.73598300  1
  H  381  1  0.72550000  0.73034600  0.75579900  1
  H  383  1  0.23152300  0.73721000  0.71811000  1
  H  384  1  0.22623800  0.75467700  0.73739900  1
  H  409  1  0.06319800  0.45342300  0.18927300  1
  H  410  1  0.06460100  0.48512400  0.17317500  1
  H  411  1  0.95177500  0.43329400  0.14865000  1
  H  412  1  0.95199000  0.46507500  0.13263200  1
  H  413  1  0.07749800  0.49799200  0.08734900  1
  H  414  1  0.08374700  0.49966200  0.05192400  1
  H  415  1  0.95758300  0.54031500  0.08602800  1
  H  416  1  0.96516900  0.54216900  0.05060500  1
  H  417  1  0.93778100  0.56363900  0.14163400  1
  H  418  1  0.92951100  0.59183500  0.16323400  1
  H  419  1  0.05790900  0.57250700  0.19601700  1
  H  420  1  0.06639500  0.54424600  0.17464800  1
  H  421  1  0.00260100  0.51396400  0.16832500  1
  H  422  1  0.01387600  0.48630800  0.11262900  1
  H  423  1  0.01018700  0.54861000  0.11659500  1
  H  425  1  0.98392500  0.59503600  0.20877400  1
  H  427  1  0.03899100  0.53579400  0.02331200  1
  H  429  1  0.01700200  0.41106700  0.17079300  1
  H  454  1  0.06897400  0.58283100  0.85584200  1
  H  455  1  0.06813900  0.55137000  0.87239600  1
  H  456  1  0.95557800  0.60411100  0.89502600  1
  H  457  1  0.95301900  0.57256800  0.91128300  1
  H  458  1  0.93851100  0.53992600  0.95756200  1
  H  459  1  0.93294900  0.53810500  0.99302500  1
  H  460  1  0.05351800  0.49561200  0.95812300  1
  H  461  1  0.04712700  0.49381000  0.99362500  1
  H  462  1  0.93081700  0.47443500  0.90057100  1
  H  463  1  0.92398800  0.44646400  0.87864100  1
  H  464  1  0.06040000  0.46387700  0.84986900  1
  H  465  1  0.06765900  0.49186600  0.87165200  1
  H  466  1  0.00707000  0.52308600  0.87628600  1
  H  467  1  0.00708100  0.55045700  0.93231000  1
  H  468  1  0.99547600  0.48838000  0.92786100  1
  H  470  1  0.98611100  0.44252000  0.83484800  1
  H  472  1  0.97569400  0.50098700  0.02127900  1
  H  474  1  0.02224600  0.62571400  0.87284900  1
  H  499  1  0.56909100  0.85234100  0.45782300  1
  H  500  1  0.56816600  0.86889300  0.48928400  1
  H  501  1  0.45562300  0.89148300  0.43652000  1
  H  502  1  0.45298100  0.90774000  0.46806700  1
  H  503  1  0.43837700  0.95403300  0.50076800  1
  H  504  1  0.43286100  0.98949800  0.50260500  1
  H  505  1  0.55350400  0.95456000  0.54503600  1
  H  506  1  0.54716200  0.99006200  0.54685300  1
  H  507  1  0.43084000  0.89697300  0.56623400  1
  H  508  1  0.42420600  0.87504400  0.59421100  1
  H  509  1  0.56068700  0.84635900  0.57673100  1
  H  510  1  0.56775500  0.86814500  0.54873700  1
  H  511  1  0.50705300  0.87274500  0.51755200  1
  H  512  1  0.50698000  0.92878100  0.49019800  1
  H  513  1  0.49543700  0.92430600  0.55227600  1
  H  515  1  0.48650200  0.83129600  0.59811900  1
  H  517  1  0.47575100  0.01773200  0.53971200  1
  H  519  1  0.52234100  0.86933000  0.41493400  1
  H  544  1  0.56307200  0.18573800  0.58724000  1
  H  545  1  0.56454300  0.16964500  0.55553500  1
  H  546  1  0.45172100  0.14507200  0.60734400  1
  H  547  1  0.45200500  0.12906200  0.57556000  1
  H  548  1  0.57758400  0.08380100  0.54264500  1
  H  549  1  0.58380700  0.04837400  0.54099000  1
  H  550  1  0.45759000  0.08247300  0.50035700  1
  H  551  1  0.46514600  0.04704900  0.49851900  1
  H  552  1  0.43772400  0.13804600  0.47703200  1
  H  553  1  0.42927300  0.15964200  0.44884400  1
  H  554  1  0.55764100  0.19248600  0.46810400  1
  H  555  1  0.56629100  0.17112200  0.49635800  1
  H  556  1  0.50259300  0.16477300  0.52667600  1
  H  557  1  0.51393600  0.10908300  0.55434000  1
  H  558  1  0.51020600  0.11303800  0.49203800  1
  H  560  1  0.48354500  0.20521100  0.44560700  1
  H  562  1  0.53896100  0.01975300  0.50488200  1
  H  564  1  0.51689000  0.16723100  0.62958600  1
  H  589  1  0.07692720  0.33836200  0.45952800  1
  H  590  1  0.15022800  0.35212700  0.44312700  1
  H  591  1  0.12067800  0.28103900  0.44067000  1
  H  592  1  0.19468600  0.29472300  0.42468900  1
  H  593  1  0.35720600  0.33746700  0.45557500  1
  H  594  1  0.44133900  0.32796800  0.46615300  1
  H  595  1  0.39297100  0.31957700  0.39709700  1
  H  596  1  0.47675800  0.30967500  0.40780500  1
  H  597  1  0.30617300  0.39132000  0.39569900  1
  H  598  1  0.29276100  0.41676200  0.37151500  1
  H  599  1  0.18580100  0.38024500  0.34181800  1
  H  600  1  0.19929900  0.35471200  0.36589700  1
  H  601  1  0.18134900  0.35185800  0.40371300  1
  H  602  1  0.27741900  0.31659000  0.43936200  1
  H  603  1  0.34194200  0.35530000  0.39718800  1
  H  605  1  0.21551300  0.43014400  0.34834800  1
  H  606  1  0.19862700  0.41334300  0.32935800  1
  H  608  1  0.04810320  0.30351000  0.47740500  1
  H  609  1  0.04517620  0.28374200  0.46039100  1
  H  611  1  0.53813600  0.32476000  0.45097800  1
  H  612  1  0.54248300  0.30664500  0.43225900  1
  H  637  1  0.07665820  0.69862200  0.88185300  1
  H  638  1  0.15002800  0.68479700  0.89816000  1
  H  639  1  0.12066300  0.75589100  0.90077500  1
  H  640  1  0.19469700  0.74215200  0.91667200  1
  H  641  1  0.35716500  0.69991600  0.88519800  1
  H  642  1  0.44126600  0.70942300  0.87457800  1
  H  643  1  0.39323100  0.71769100  0.94368600  1
  H  644  1  0.47697100  0.72761100  0.93293900  1
  H  645  1  0.30899900  0.64566400  0.94472700  1
  H  646  1  0.29748700  0.62008500  0.96891600  1
  H  647  1  0.18941900  0.65574800  0.99905100  1
  H  648  1  0.20109300  0.68143000  0.97499900  1
  H  649  1  0.18240900  0.68466800  0.93732000  1
  H  650  1  0.27702500  0.72063600  0.90176800  1
  H  651  1  0.34320100  0.68173100  0.94335300  1
  H  653  1  0.22153200  0.60606900  0.99222700  1
  H  654  1  0.20362800  0.62271600  0.01119800  1
  H  656  1  0.04827620  0.73352400  0.86394800  1
  H  657  1  0.04533020  0.75328500  0.88097000  1
  H  659  1  0.53810400  0.71249500  0.88974400  1
  H  660  1  0.54262300  0.73059400  0.90847200  1
  H  685  1  0.57694000  0.72986100  0.49059800  1
  H  686  1  0.65040800  0.74614900  0.50437000  1
  H  687  1  0.62058700  0.74884100  0.43330700  1
  H  688  1  0.69472400  0.76471900  0.44699200  1
  H  689  1  0.85733600  0.73319300  0.48914100  1
  H  690  1  0.94139200  0.72255500  0.47959200  1
  H  691  1  0.89346900  0.79168100  0.47138500  1
  H  692  1  0.97716500  0.78091800  0.46142900  1
  H  693  1  0.80930600  0.79278800  0.54341200  1
  H  694  1  0.79773600  0.81697700  0.56898700  1
  H  695  1  0.68963800  0.84708000  0.53330700  1
  H  696  1  0.70137700  0.82303000  0.50763000  1
  H  697  1  0.68268600  0.78535200  0.50444700  1
  H  698  1  0.77720100  0.74976800  0.46847600  1
  H  699  1  0.84348400  0.79137600  0.50733000  1
  H  701  1  0.72172700  0.84025900  0.58299100  1
  H  702  1  0.70375800  0.85922100  0.56634300  1
  H  704  1  0.54830000  0.71200600  0.45571100  1
  H  705  1  0.54525500  0.72904500  0.43596900  1
  H  707  1  0.03823120  0.73768800  0.47650200  1
  H  708  1  0.04277220  0.75643900  0.45842900  1
  H  733  1  0.57663000  0.30751100  0.85084300  1
  H  734  1  0.64983800  0.29109300  0.83702600  1
  H  735  1  0.62075900  0.28872500  0.90814700  1
  H  736  1  0.69467400  0.27272700  0.89441000  1
  H  737  1  0.85703600  0.30355800  0.85158300  1
  H  738  1  0.94121100  0.31411700  0.86104200  1
  H  739  1  0.89274000  0.24507900  0.86948700  1
  H  740  1  0.97657300  0.25576900  0.87935500  1
  H  741  1  0.80589100  0.24372700  0.79775500  1
  H  742  1  0.79253500  0.21953900  0.77231300  1
  H  743  1  0.68558200  0.18982400  0.80881600  1
  H  744  1  0.69901800  0.21390900  0.83435000  1
  H  745  1  0.68108400  0.25172600  0.83724900  1
  H  746  1  0.77724400  0.28735000  0.87251000  1
  H  747  1  0.84166700  0.24519500  0.83376000  1
  H  749  1  0.71532000  0.19634800  0.75892600  1
  H  750  1  0.69849200  0.17735100  0.77572800  1
  H  752  1  0.54807900  0.32544400  0.88570800  1
  H  753  1  0.54525300  0.30845100  0.90549800  1
  H  755  1  0.03800920  0.29890900  0.86422900  1
  H  756  1  0.04233820  0.28021200  0.88236600  1
  H  781  1  0.45950300  0.69795800  0.45758100  1
  H  782  1  0.38509700  0.68507500  0.44119300  1
  H  783  1  0.42030000  0.75577800  0.43876400  1
  H  784  1  0.34538000  0.74299100  0.42274100  1
  H  785  1  0.18130300  0.70177100  0.45471500  1
  H  786  1  0.09794620  0.71093100  0.46640600  1
  H  787  1  0.14278400  0.72245500  0.39743600  1
  H  788  1  0.05975720  0.73209200  0.40929400  1
  H  789  1  0.21021600  0.65049600  0.39356900  1
  H  790  1  0.21653000  0.62398500  0.37069900  1
  H  791  1  0.34796500  0.65041600  0.34523500  1
  H  792  1  0.33994700  0.67771200  0.36749900  1
  H  793  1  0.35100200  0.68461000  0.40284200  1
  H  794  1  0.26186800  0.72302400  0.43782200  1
  H  795  1  0.18998000  0.68537200  0.39665600  1
  H  797  1  0.33021200  0.61139300  0.34477900  1
  H  798  1  0.29108200  0.62313000  0.32678300  1
  H  800  1  0.48947900  0.73245400  0.47583600  1
  H  801  1  0.49449700  0.75228200  0.45897800  1
  H  803  1  0.00045722  0.71451100  0.45175600  1
  H  804  1  0.99521800  0.73382700  0.43431600  1
  H  829  1  0.45921400  0.33937800  0.88386800  1
  H  830  1  0.38450000  0.35219500  0.90009600  1
  H  831  1  0.42023200  0.28153900  0.90269300  1
  H  832  1  0.34499000  0.29425800  0.91854600  1
  H  833  1  0.18090700  0.33507400  0.88605300  1
  H  834  1  0.09780020  0.32568300  0.87427500  1
  H  835  1  0.14188100  0.31476300  0.94341100  1
  H  836  1  0.05912320  0.30489600  0.93147100  1
  H  837  1  0.21000000  0.38703200  0.94688700  1
  H  838  1  0.21617700  0.41358100  0.96977600  1
  H  839  1  0.34487000  0.38632300  0.99643300  1
  H  840  1  0.33716000  0.35909300  0.97404800  1
  H  841  1  0.34989300  0.35260600  0.93844200  1
  H  842  1  0.26149900  0.31413600  0.90322800  1
  H  843  1  0.18875100  0.35190300  0.94408600  1
  H  845  1  0.32897900  0.42523000  0.99706100  1
  H  846  1  0.28688800  0.41399000  0.01436500  1
  H  848  1  0.48938500  0.30485200  0.86566700  1
  H  849  1  0.49460100  0.28508900  0.88259200  1
  H  851  1  0.00014622  0.32218000  0.88887400  1
  H  852  1  0.99485300  0.30292700  0.90637500  1
  H  877  1  0.95921500  0.30546800  0.49130900  1
  H  878  1  0.88452700  0.28920900  0.50411300  1
  H  879  1  0.92034600  0.28663100  0.43346100  1
  H  880  1  0.84513600  0.27074400  0.44616700  1
  H  881  1  0.68095700  0.30292400  0.48710300  1
  H  882  1  0.59778800  0.31468100  0.47778000  1
  H  883  1  0.64212900  0.24560600  0.46662400  1
  H  884  1  0.55929300  0.25752800  0.45682700  1
  H  885  1  0.70948200  0.24157500  0.53856100  1
  H  886  1  0.71593500  0.21870300  0.56507500  1
  H  887  1  0.84729500  0.19326400  0.53856700  1
  H  888  1  0.83914400  0.21552800  0.51128000  1
  H  889  1  0.85030200  0.25085700  0.50450000  1
  H  890  1  0.76149900  0.28593700  0.46607500  1
  H  891  1  0.68925800  0.24479400  0.50366000  1
  H  893  1  0.82975600  0.19283200  0.57759900  1
  H  894  1  0.79061100  0.17481300  0.56590400  1
  H  896  1  0.98958700  0.32363600  0.45680900  1
  H  897  1  0.99473000  0.30672500  0.43703300  1
  H  899  1  0.50018900  0.30008300  0.47420600  1
  H  900  1  0.49494300  0.28261100  0.45492500  1
  H  925  1  0.95949900  0.73176200  0.84987400  1
  H  926  1  0.88506100  0.74811900  0.83698000  1
  H  927  1  0.92019600  0.75056600  0.90768700  1
  H  928  1  0.84523600  0.76655400  0.89489100  1
  H  929  1  0.68124500  0.73427000  0.85378800  1
  H  930  1  0.59794600  0.72255900  0.86301200  1
  H  931  1  0.64253200  0.79159000  0.87430900  1
  H  932  1  0.55958100  0.77971300  0.88401400  1
  H  933  1  0.71074100  0.79490300  0.80202000  1
  H  934  1  0.71677600  0.81779200  0.77547500  1
  H  935  1  0.84553600  0.84448000  0.80266100  1
  H  936  1  0.83795300  0.82209200  0.82990000  1
  H  937  1  0.85059100  0.78646700  0.83649800  1
  H  938  1  0.76186400  0.75135100  0.87495300  1
  H  939  1  0.68947700  0.79223600  0.83712300  1
  H  941  1  0.82943300  0.84512700  0.76376300  1
  H  942  1  0.78735000  0.86240600  0.77504600  1
  H  944  1  0.98929100  0.71347800  0.88439500  1
  H  945  1  0.99438100  0.73034600  0.90421100  1
  H  947  1  0.50040400  0.73721000  0.86652200  1
  H  948  1  0.49511900  0.75467700  0.88581100  1
  H  973  1  0.33207900  0.45342300  0.33768500  1
  H  974  1  0.33348200  0.48512400  0.32158700  1
  H  975  1  0.22065600  0.43329400  0.29706200  1
  H  976  1  0.22087100  0.46507500  0.28104400  1
  H  977  1  0.34637900  0.49799200  0.23576100  1
  H  978  1  0.35262800  0.49966200  0.20033600  1
  H  979  1  0.22646400  0.54031500  0.23444000  1
  H  980  1  0.23405000  0.54216900  0.19901700  1
  H  981  1  0.20666200  0.56363900  0.29004600  1
  H  982  1  0.19839200  0.59183500  0.31164600  1
  H  983  1  0.32679000  0.57250700  0.34442900  1
  H  984  1  0.33527600  0.54424600  0.32306000  1
  H  985  1  0.27148200  0.51396400  0.31673700  1
  H  986  1  0.28275700  0.48630800  0.26104100  1
  H  987  1  0.27906800  0.54861000  0.26500700  1
  H  989  1  0.25280600  0.59503600  0.35718600  1
  H  991  1  0.30787200  0.53579400  0.17172400  1
  H  993  1  0.28588300  0.41106700  0.31920500  1
  H  1018  1  0.33785500  0.58283100  0.00425399  1
  H  1019  1  0.33702000  0.55137000  0.02080800  1
  H  1020  1  0.22445900  0.60411100  0.04343800  1
  H  1021  1  0.22190000  0.57256800  0.05969500  1
  H  1022  1  0.20739200  0.53992600  0.10597400  1
  H  1023  1  0.20183000  0.53810500  0.14143700  1
  H  1024  1  0.32239900  0.49561200  0.10653500  1
  H  1025  1  0.31600800  0.49381000  0.14203700  1
  H  1026  1  0.19969800  0.47443500  0.04898300  1
  H  1027  1  0.19286900  0.44646400  0.02705300  1
  H  1028  1  0.32928100  0.46387700  0.99828100  1
  H  1029  1  0.33654000  0.49186600  0.02006400  1
  H  1030  1  0.27595100  0.52308600  0.02469800  1
  H  1031  1  0.27596200  0.55045700  0.08072200  1
  H  1032  1  0.26435700  0.48838000  0.07627300  1
  H  1034  1  0.25499200  0.44252000  0.98326000  1
  H  1036  1  0.24457500  0.50098700  0.16969100  1
  H  1038  1  0.29112700  0.62571400  0.02126100  1
  H  1063  1  0.83797200  0.85234100  0.60623500  1
  H  1064  1  0.83704700  0.86889300  0.63769600  1
  H  1065  1  0.72450400  0.89148300  0.58493200  1
  H  1066  1  0.72186200  0.90774000  0.61647900  1
  H  1067  1  0.70725800  0.95403300  0.64918000  1
  H  1068  1  0.70174200  0.98949800  0.65101700  1
  H  1069  1  0.82238500  0.95456000  0.69344800  1
  H  1070  1  0.81604300  0.99006200  0.69526500  1
  H  1071  1  0.69972100  0.89697300  0.71464600  1
  H  1072  1  0.69308700  0.87504400  0.74262300  1
  H  1073  1  0.82956800  0.84635900  0.72514300  1
  H  1074  1  0.83663600  0.86814500  0.69714900  1
  H  1075  1  0.77593400  0.87274500  0.66596400  1
  H  1076  1  0.77586100  0.92878100  0.63861000  1
  H  1077  1  0.76431800  0.92430600  0.70068800  1
  H  1079  1  0.75538300  0.83129600  0.74653100  1
  H  1081  1  0.74463200  0.01773200  0.68812400  1
  H  1083  1  0.79122200  0.86933000  0.56334600  1
  H  1108  1  0.83195300  0.18573800  0.73565200  1
  H  1109  1  0.83342400  0.16964500  0.70394700  1
  H  1110  1  0.72060200  0.14507200  0.75575600  1
  H  1111  1  0.72088600  0.12906200  0.72397200  1
  H  1112  1  0.84646500  0.08380100  0.69105700  1
  H  1113  1  0.85268800  0.04837400  0.68940200  1
  H  1114  1  0.72647100  0.08247300  0.64876900  1
  H  1115  1  0.73402700  0.04704900  0.64693100  1
  H  1116  1  0.70660500  0.13804600  0.62544400  1
  H  1117  1  0.69815400  0.15964200  0.59725600  1
  H  1118  1  0.82652200  0.19248600  0.61651600  1
  H  1119  1  0.83517200  0.17112200  0.64477000  1
  H  1120  1  0.77147400  0.16477300  0.67508800  1
  H  1121  1  0.78281700  0.10908300  0.70275200  1
  H  1122  1  0.77908700  0.11303800  0.64045000  1
  H  1124  1  0.75242600  0.20521100  0.59401900  1
  H  1126  1  0.80784200  0.01975300  0.65329400  1
  H  1128  1  0.78577100  0.16723100  0.77799800  1
  C  1  1  0.95418700  0.33287600  0.27430000  1
  C  2  1  0.94861400  0.34728400  0.25922300  1
  C  3  1  0.99181900  0.35561500  0.24959100  1
  C  4  1  0.04135500  0.34930000  0.25549700  1
  C  5  1  0.04807600  0.33506000  0.27068600  1
  C  6  1  0.00412300  0.32690600  0.27990100  1
  C  7  1  0.98538500  0.37044800  0.23471500  1
  C  8  1  0.95047700  0.36770700  0.21884700  1
  C  9  1  0.94269400  0.38268200  0.20460500  1
  C  10  1  0.96934400  0.40090700  0.20589100  1
  C  11  1  0.00443100  0.40364100  0.22165900  1
  C  12  1  0.01253900  0.38860700  0.23580000  1
  C  13  1  0.91040500  0.32473900  0.28386200  1
  C  14  1  0.87527800  0.33713400  0.29396100  1
  C  15  1  0.83224200  0.32902800  0.30363900  1
  C  16  1  0.82231200  0.30839700  0.30303800  1
  C  17  1  0.85754700  0.29604400  0.29289700  1
  C  18  1  0.90121700  0.30407000  0.28357400  1
  C  19  1  0.09805800  0.32933400  0.27692400  1
  C  20  1  0.11305500  0.33148700  0.29697400  1
  C  21  1  0.16256700  0.32591700  0.30319400  1
  C  22  1  0.19810700  0.31758900  0.28968000  1
  C  23  1  0.18306500  0.31552000  0.26961100  1
  C  24  1  0.13388700  0.32144700  0.26328000  1
  C  40  1  0.96002900  0.41724900  0.19151800  1
  C  43  1  0.77639100  0.29993600  0.31320900  1
  C  46  1  0.25041100  0.31162200  0.29644300  1
  C  49  1  0.95442900  0.70401100  0.76999800  1
  C  50  1  0.94948500  0.68940100  0.78492300  1
  C  51  1  0.99308300  0.68110300  0.79432800  1
  C  52  1  0.04233400  0.68767500  0.78836700  1
  C  53  1  0.04842700  0.70210200  0.77332500  1
  C  54  1  0.00413500  0.71019500  0.76431200  1
  C  55  1  0.98745200  0.66612100  0.80910300  1
  C  56  1  0.95282700  0.66857900  0.82510600  1
  C  57  1  0.94615900  0.65352200  0.83934500  1
  C  58  1  0.97371200  0.63550500  0.83793500  1
  C  59  1  0.00854500  0.63305800  0.82204100  1
  C  60  1  0.01548600  0.64816600  0.80788700  1
  C  61  1  0.91031700  0.71215000  0.76064900  1
  C  62  1  0.87506300  0.69978700  0.75057500  1
  C  63  1  0.83198800  0.70792700  0.74094400  1
  C  64  1  0.82215500  0.72856500  0.74155900  1
  C  65  1  0.85743600  0.74088100  0.75172100  1
  C  66  1  0.90112500  0.73281900  0.76099900  1
  C  67  1  0.09818100  0.70801500  0.76702300  1
  C  68  1  0.11304300  0.70590600  0.74695800  1
  C  69  1  0.16253700  0.71147300  0.74071900  1
  C  70  1  0.19816100  0.71974800  0.75423300  1
  C  71  1  0.18320200  0.72181100  0.77430900  1
  C  72  1  0.13405000  0.71588500  0.78065900  1
  C  88  1  0.96534200  0.61905200  0.85226200  1
  C  91  1  0.77641000  0.73709200  0.73131800  1
  C  94  1  0.25049300  0.72565100  0.74746600  1
  C  97  1  0.45465900  0.76642500  0.33669800  1
  C  98  1  0.44975000  0.78136300  0.35129300  1
  C  99  1  0.49336700  0.79077200  0.35956700  1
  C  100  1  0.54260300  0.78480000  0.35298800  1
  C  101  1  0.54865600  0.76974500  0.33857300  1
  C  102  1  0.50434500  0.76073100  0.33049900  1
  C  103  1  0.48775500  0.80556200  0.37453600  1
  C  104  1  0.45311100  0.82155700  0.37207100  1
  C  105  1  0.44640100  0.83579300  0.38712400  1
  C  106  1  0.47393400  0.83439100  0.40514600  1
  C  107  1  0.50880400  0.81850900  0.40759700  1
  C  108  1  0.51578400  0.80435500  0.39249200  1
  C  109  1  0.41052400  0.75707400  0.32858700  1
  C  110  1  0.37535000  0.74698800  0.34097500  1
  C  111  1  0.33222000  0.73737100  0.33286600  1
  C  112  1  0.32225500  0.73801000  0.31223800  1
  C  113  1  0.35746400  0.74818000  0.29989800  1
  C  114  1  0.40120600  0.75744600  0.30792700  1
  C  115  1  0.59839200  0.76343500  0.33264500  1
  C  116  1  0.61321900  0.74336200  0.33473600  1
  C  117  1  0.66268500  0.73711100  0.32914400  1
  C  118  1  0.69831200  0.75062200  0.32086500  1
  C  119  1  0.68338900  0.77070400  0.31882000  1
  C  120  1  0.63426400  0.77706500  0.32476900  1
  C  136  1  0.46551100  0.84871200  0.42159700  1
  C  139  1  0.27644000  0.72779100  0.30374900  1
  C  142  1  0.75062100  0.74384600  0.31494500  1
  C  145  1  0.45396000  0.27071300  0.70782000  1
  C  146  1  0.44835600  0.25564600  0.69340200  1
  C  147  1  0.49154600  0.24601700  0.68504900  1
  C  148  1  0.54109300  0.25191500  0.69135800  1
  C  149  1  0.54785000  0.26709100  0.70560700  1
  C  150  1  0.50391400  0.27630600  0.71377600  1
  C  151  1  0.48509700  0.23114900  0.67020800  1
  C  152  1  0.45020000  0.21527600  0.67294500  1
  C  153  1  0.44245600  0.20102900  0.65797000  1
  C  154  1  0.46912900  0.20231400  0.63975000  1
  C  155  1  0.50419100  0.21809300  0.63701900  1
  C  156  1  0.51226100  0.23223700  0.65205300  1
  C  157  1  0.41020200  0.28027000  0.71598600  1
  C  158  1  0.37498400  0.29035300  0.70361400  1
  C  159  1  0.33200000  0.30004200  0.71175000  1
  C  160  1  0.32220700  0.29947000  0.73239300  1
  C  161  1  0.35752400  0.28934300  0.74472200  1
  C  162  1  0.40113600  0.28000900  0.73666400  1
  C  163  1  0.59785000  0.27332200  0.71131800  1
  C  164  1  0.61288100  0.29336500  0.70915000  1
  C  165  1  0.66242000  0.29957400  0.71469500  1
  C  166  1  0.69795800  0.28605400  0.72301800  1
  C  167  1  0.68288200  0.26599200  0.72510400  1
  C  168  1  0.63366900  0.25967200  0.71920200  1
  C  184  1  0.45986400  0.18793700  0.62340900  1
  C  187  1  0.27636000  0.30966500  0.74089100  1
  C  190  1  0.75028700  0.29281000  0.72896500  1
  C  193  1  0.04422900  0.70530900  0.27271000  1
  C  194  1  0.04688600  0.69026500  0.25812600  1
  C  195  1  0.00218800  0.68271800  0.24878000  1
  C  196  1  0.95408700  0.69062500  0.25464500  1
  C  197  1  0.95013100  0.70521300  0.26962800  1
  C  198  1  0.99551800  0.71251300  0.27845100  1
  C  199  1  0.00542600  0.66697400  0.23453100  1
  C  200  1  0.04494700  0.66641000  0.22009500  1
  C  201  1  0.04946400  0.65038300  0.20681500  1
  C  202  1  0.01449900  0.63433100  0.20731700  1
  C  203  1  0.97410000  0.63513400  0.22133900  1
  C  204  1  0.96992400  0.65104500  0.23475100  1
  C  205  1  0.08941800  0.71278300  0.28187500  1
  C  206  1  0.12364700  0.69996900  0.29191900  1
  C  207  1  0.16732300  0.70755800  0.30160500  1
  C  208  1  0.17874900  0.72807700  0.30110400  1
  C  209  1  0.14464400  0.74083200  0.29089400  1
  C  210  1  0.10042300  0.73332500  0.28154100  1
  C  211  1  0.90129400  0.71147100  0.27660000  1
  C  212  1  0.88740100  0.70842400  0.29664900  1
  C  213  1  0.83832600  0.71378200  0.30351900  1
  C  214  1  0.80216900  0.72276100  0.29068600  1
  C  215  1  0.81625500  0.72583900  0.27064000  1
  C  216  1  0.86497600  0.72010700  0.26363200  1
  C  232  1  0.02284200  0.61728400  0.19351900  1
  C  235  1  0.22458100  0.73608400  0.31168900  1
  C  238  1  0.74997200  0.72809800  0.29805200  1
  C  241  1  0.04350100  0.33190900  0.77161700  1
  C  242  1  0.04586200  0.34695300  0.78620700  1
  C  243  1  0.00096200  0.35450200  0.79539500  1
  C  244  1  0.95296600  0.34661500  0.78938300  1
  C  245  1  0.94932400  0.33198000  0.77443100  1
  C  246  1  0.99490700  0.32467700  0.76575300  1
  C  247  1  0.00396600  0.37022300  0.80965600  1
  C  248  1  0.04267000  0.37054900  0.82442200  1
  C  249  1  0.04700200  0.38653600  0.83775800  1
  C  250  1  0.01278200  0.40281400  0.83692000  1
  C  251  1  0.97320900  0.40226200  0.82253700  1
  C  252  1  0.96910600  0.38635100  0.80911600  1
  C  253  1  0.08889500  0.32447000  0.76257500  1
  C  254  1  0.12316900  0.33731200  0.75258900  1
  C  255  1  0.16703600  0.32976300  0.74300100  1
  C  256  1  0.17861800  0.30926000  0.74354900  1
  C  257  1  0.14448500  0.29647800  0.75371700  1
  C  258  1  0.10006900  0.30394400  0.76296600  1
  C  259  1  0.90063000  0.32560100  0.76740000  1
  C  260  1  0.88695900  0.32845100  0.74729800  1
  C  261  1  0.83803400  0.32294800  0.74037300  1
  C  262  1  0.80180000  0.31400700  0.75320200  1
  C  263  1  0.81568600  0.31110600  0.77329700  1
  C  264  1  0.86424200  0.31698600  0.78035500  1
  C  280  1  0.02088100  0.41978700  0.85082600  1
  C  283  1  0.22454100  0.30128200  0.73300100  1
  C  286  1  0.74964900  0.30861400  0.74580900  1
  C  289  1  0.54369000  0.26919400  0.33540100  1
  C  290  1  0.54622100  0.25458600  0.35042300  1
  C  291  1  0.50146000  0.24525500  0.35793000  1
  C  292  1  0.45340700  0.25117900  0.35001500  1
  C  293  1  0.44956600  0.26618500  0.33544300  1
  C  294  1  0.49503800  0.27497500  0.32817200  1
  C  295  1  0.50465200  0.23096600  0.37364100  1
  C  296  1  0.54417400  0.21652900  0.37417800  1
  C  297  1  0.54877200  0.20324900  0.39020200  1
  C  298  1  0.51388600  0.20374900  0.40628000  1
  C  299  1  0.47345000  0.21775800  0.40549400  1
  C  300  1  0.46919000  0.23117000  0.38958300  1
  C  301  1  0.58897700  0.27831600  0.32796700  1
  C  302  1  0.62319400  0.28832200  0.34081700  1
  C  303  1  0.66704500  0.29792400  0.33327600  1
  C  304  1  0.67866000  0.29737300  0.31277400  1
  C  305  1  0.64455900  0.28720300  0.29998400  1
  C  306  1  0.60016200  0.27793400  0.30744200  1
  C  307  1  0.40079100  0.27318800  0.32912300  1
  C  308  1  0.38703200  0.29327000  0.33205100  1
  C  309  1  0.33806800  0.30018300  0.32659100  1
  C  310  1  0.30187100  0.28736100  0.31761800  1
  C  311  1  0.31582400  0.26728300  0.31465400  1
  C  312  1  0.36442800  0.26023500  0.32049100  1
  C  328  1  0.52236400  0.18996500  0.42332800  1
  C  331  1  0.72465100  0.30789000  0.30481500  1
  C  334  1  0.24972300  0.29475700  0.31222500  1
  C  337  1  0.54403500  0.76810700  0.70879400  1
  C  338  1  0.54652400  0.78267600  0.69373000  1
  C  339  1  0.50169000  0.79188100  0.68614000  1
  C  340  1  0.45364500  0.78592700  0.69401900  1
  C  341  1  0.44988500  0.77099600  0.70866800  1
  C  342  1  0.49538300  0.76228300  0.71600100  1
  C  343  1  0.50474400  0.80610300  0.67038900  1
  C  344  1  0.54344000  0.82086700  0.67004100  1
  C  345  1  0.54768800  0.83420500  0.65404900  1
  C  346  1  0.51339400  0.83336500  0.63779700  1
  C  347  1  0.47386100  0.81896800  0.63836300  1
  C  348  1  0.46984700  0.80554500  0.65427300  1
  C  349  1  0.58933000  0.75902100  0.71627200  1
  C  350  1  0.62361300  0.74899700  0.70346100  1
  C  351  1  0.66731000  0.73933100  0.71105700  1
  C  352  1  0.67871000  0.73982700  0.73157800  1
  C  353  1  0.64457400  0.75003200  0.74432700  1
  C  354  1  0.60033100  0.75936500  0.73681400  1
  C  355  1  0.40112900  0.76399700  0.71498400  1
  C  356  1  0.38732000  0.74392800  0.71201100  1
  C  357  1  0.33828300  0.73704600  0.71740900  1
  C  358  1  0.30208700  0.74988600  0.72635700  1
  C  359  1  0.31611000  0.76994900  0.72937400  1
  C  360  1  0.36478400  0.77696700  0.72359900  1
  C  376  1  0.52136100  0.84728500  0.62082700  1
  C  379  1  0.72448200  0.72921200  0.73960100  1
  C  382  1  0.24988700  0.74252200  0.73169500  1
  C  385  1  0.00860600  0.49727400  0.14188400  1
  C  386  1  0.00606500  0.51491100  0.15320600  1
  C  387  1  0.00601500  0.53382800  0.14414100  1
  C  388  1  0.00876400  0.53493800  0.12322400  1
  C  389  1  0.01224700  0.51764400  0.11137100  1
  C  390  1  0.01171800  0.49896700  0.12099900  1
  C  391  1  0.00312300  0.55129300  0.15596900  1
  C  392  1  0.03774900  0.55428100  0.17187900  1
  C  393  1  0.03317900  0.57093100  0.18432900  1
  C  394  1  0.99342500  0.58488800  0.18133900  1
  C  395  1  0.95901200  0.58205100  0.16543900  1
  C  396  1  0.96415900  0.56557900  0.15273100  1
  C  397  1  0.00827200  0.47830400  0.15132500  1
  C  398  1  0.04014700  0.47445300  0.16792100  1
  C  399  1  0.03977300  0.45581200  0.17731500  1
  C  400  1  0.00723000  0.44058200  0.17047800  1
  C  401  1  0.97552100  0.44419700  0.15386800  1
  C  402  1  0.97609300  0.46282200  0.14441600  1
  C  403  1  0.01672200  0.51892900  0.09027500  1
  C  404  1  0.05308000  0.50724100  0.07985700  1
  C  405  1  0.05718100  0.50827600  0.05906700  1
  C  406  1  0.02498100  0.52100100  0.04812200  1
  C  407  1  0.98889200  0.53285700  0.05833200  1
  C  408  1  0.98485900  0.53182600  0.07913300  1
  C  430  1  0.00792600  0.53970200  0.90287800  1
  C  431  1  0.00683700  0.52208900  0.89145700  1
  C  432  1  0.00251700  0.50316000  0.90036300  1
  C  433  1  0.99917500  0.50200500  0.92126800  1
  C  434  1  0.00043900  0.51924900  0.93323300  1
  C  435  1  0.00489300  0.53791200  0.92376600  1
  C  436  1  0.00015900  0.48578400  0.88835800  1
  C  437  1  0.03749500  0.48229500  0.87349400  1
  C  438  1  0.03365300  0.46578100  0.86082000  1
  C  439  1  0.99198400  0.45245800  0.86252800  1
  C  440  1  0.95485900  0.45577500  0.87738400  1
  C  441  1  0.95912700  0.47213300  0.89028300  1
  C  442  1  0.01043700  0.55873400  0.89353000  1
  C  443  1  0.04388300  0.56226200  0.87731400  1
  C  444  1  0.04482700  0.58076800  0.86764400  1
  C  445  1  0.01225600  0.59625000  0.87387400  1
  C  446  1  0.97951200  0.59305900  0.89026800  1
  C  447  1  0.97852500  0.57454200  0.89989700  1
  C  448  1  0.99665900  0.51796600  0.95431600  1
  C  449  1  0.96202700  0.53023000  0.96492400  1
  C  450  1  0.95838200  0.52912300  0.98572000  1
  C  451  1  0.98957200  0.51585100  0.99645700  1
  C  452  1  0.02420500  0.50353100  0.98604400  1
  C  453  1  0.02753100  0.50452800  0.96522000  1
  C  475  1  0.50784000  0.89934500  0.50094300  1
  C  476  1  0.50675700  0.88791700  0.51855000  1
  C  477  1  0.50247000  0.89681600  0.53748300  1
  C  478  1  0.49911700  0.91772000  0.53864700  1
  C  479  1  0.50034600  0.92969000  0.52140600  1
  C  480  1  0.50477900  0.92023100  0.50273700  1
  C  481  1  0.50020000  0.88480500  0.55485500  1
  C  482  1  0.53760500  0.86996200  0.55831900  1
  C  483  1  0.53384900  0.85727700  0.57482500  1
  C  484  1  0.49226000  0.85897800  0.58818500  1
  C  485  1  0.45505900  0.87381000  0.58488900  1
  C  486  1  0.45922600  0.88671600  0.56853100  1
  C  487  1  0.51040600  0.89000100  0.48191000  1
  C  488  1  0.54390500  0.87379800  0.47838900  1
  C  489  1  0.54490000  0.86413100  0.45988300  1
  C  490  1  0.51233000  0.87034900  0.44439600  1
  C  491  1  0.47951900  0.88672400  0.44758300  1
  C  492  1  0.47847800  0.89635100  0.46610200  1
  C  493  1  0.49659300  0.95077200  0.52269800  1
  C  494  1  0.46194600  0.96138800  0.51044900  1
  C  495  1  0.45830800  0.98218500  0.51157400  1
  C  496  1  0.48955200  0.99291000  0.52483600  1
  C  497  1  0.52420700  0.98248800  0.53713800  1
  C  498  1  0.52752200  0.96166600  0.53612400  1
  C  520  1  0.50863500  0.13833600  0.54337100  1
  C  521  1  0.50608500  0.14965400  0.52573100  1
  C  522  1  0.50603100  0.14058800  0.50681400  1
  C  523  1  0.50879700  0.11967000  0.50570800  1
  C  524  1  0.51230400  0.10782000  0.52300400  1
  C  525  1  0.51177300  0.11745100  0.54167900  1
  C  526  1  0.50306200  0.15240900  0.48934400  1
  C  527  1  0.53762400  0.16833600  0.48633800  1
  C  528  1  0.53297700  0.18077800  0.46968100  1
  C  529  1  0.49315500  0.17777700  0.45575600  1
  C  530  1  0.45881200  0.16186000  0.45860800  1
  C  531  1  0.46406200  0.14915400  0.47507800  1
  C  532  1  0.50825900  0.14777500  0.56234100  1
  C  533  1  0.54009100  0.16438300  0.56620100  1
  C  534  1  0.53968000  0.17377100  0.58484600  1
  C  535  1  0.50713300  0.16692100  0.60007000  1
  C  536  1  0.47547100  0.15030000  0.59644400  1
  C  537  1  0.47608100  0.14085400  0.57781900  1
  C  538  1  0.51677100  0.08672400  0.52172500  1
  C  539  1  0.55313100  0.07630700  0.53341200  1
  C  540  1  0.55722600  0.05551600  0.53238200  1
  C  541  1  0.52499500  0.04457000  0.51967100  1
  C  542  1  0.48889600  0.05477800  0.50781700  1
  C  543  1  0.48487800  0.07557900  0.50884100  1
  C  565  1  0.22306800  0.33287600  0.42271200  1
  C  566  1  0.21749500  0.34728400  0.40763500  1
  C  567  1  0.26070000  0.35561500  0.39800300  1
  C  568  1  0.31023600  0.34930000  0.40390900  1
  C  569  1  0.31695700  0.33506000  0.41909800  1
  C  570  1  0.27300400  0.32690600  0.42831300  1
  C  571  1  0.25426600  0.37044800  0.38312700  1
  C  572  1  0.21935800  0.36770700  0.36725900  1
  C  573  1  0.21157500  0.38268200  0.35301700  1
  C  574  1  0.23822500  0.40090700  0.35430300  1
  C  575  1  0.27331200  0.40364100  0.37007100  1
  C  576  1  0.28142000  0.38860700  0.38421200  1
  C  577  1  0.17928600  0.32473900  0.43227400  1
  C  578  1  0.14415900  0.33713400  0.44237300  1
  C  579  1  0.10112300  0.32902800  0.45205100  1
  C  580  1  0.09119320  0.30839700  0.45145000  1
  C  581  1  0.12642800  0.29604400  0.44130900  1
  C  582  1  0.17009800  0.30407000  0.43198600  1
  C  583  1  0.36693900  0.32933400  0.42533600  1
  C  584  1  0.38193600  0.33148700  0.44538600  1
  C  585  1  0.43144800  0.32591700  0.45160600  1
  C  586  1  0.46698800  0.31758900  0.43809200  1
  C  587  1  0.45194600  0.31552000  0.41802300  1
  C  588  1  0.40276800  0.32144700  0.41169200  1
  C  604  1  0.22891000  0.41724900  0.33993000  1
  C  607  1  0.04527220  0.29993600  0.46162100  1
  C  610  1  0.51929200  0.31162200  0.44485500  1
  C  613  1  0.22331000  0.70401100  0.91841000  1
  C  614  1  0.21836600  0.68940100  0.93333500  1
  C  615  1  0.26196400  0.68110300  0.94274000  1
  C  616  1  0.31121500  0.68767500  0.93677900  1
  C  617  1  0.31730800  0.70210200  0.92173700  1
  C  618  1  0.27301600  0.71019500  0.91272400  1
  C  619  1  0.25633300  0.66612100  0.95751500  1
  C  620  1  0.22170800  0.66857900  0.97351800  1
  C  621  1  0.21504000  0.65352200  0.98775700  1
  C  622  1  0.24259300  0.63550500  0.98634700  1
  C  623  1  0.27742600  0.63305800  0.97045300  1
  C  624  1  0.28436700  0.64816600  0.95629900  1
  C  625  1  0.17919800  0.71215000  0.90906100  1
  C  626  1  0.14394400  0.69978700  0.89898700  1
  C  627  1  0.10086900  0.70792700  0.88935600  1
  C  628  1  0.09103620  0.72856500  0.88997100  1
  C  629  1  0.12631700  0.74088100  0.90013300  1
  C  630  1  0.17000600  0.73281900  0.90941100  1
  C  631  1  0.36706200  0.70801500  0.91543500  1
  C  632  1  0.38192400  0.70590600  0.89537000  1
  C  633  1  0.43141800  0.71147300  0.88913100  1
  C  634  1  0.46704200  0.71974800  0.90264500  1
  C  635  1  0.45208300  0.72181100  0.92272100  1
  C  636  1  0.40293100  0.71588500  0.92907100  1
  C  652  1  0.23422300  0.61905200  0.00067399  1
  C  655  1  0.04529120  0.73709200  0.87973000  1
  C  658  1  0.51937400  0.72565100  0.89587800  1
  C  661  1  0.72354000  0.76642500  0.48511000  1
  C  662  1  0.71863100  0.78136300  0.49970500  1
  C  663  1  0.76224800  0.79077200  0.50797900  1
  C  664  1  0.81148400  0.78480000  0.50140000  1
  C  665  1  0.81753700  0.76974500  0.48698500  1
  C  666  1  0.77322600  0.76073100  0.47891100  1
  C  667  1  0.75663600  0.80556200  0.52294800  1
  C  668  1  0.72199200  0.82155700  0.52048300  1
  C  669  1  0.71528200  0.83579300  0.53553600  1
  C  670  1  0.74281500  0.83439100  0.55355800  1
  C  671  1  0.77768500  0.81850900  0.55600900  1
  C  672  1  0.78466500  0.80435500  0.54090400  1
  C  673  1  0.67940500  0.75707400  0.47699900  1
  C  674  1  0.64423100  0.74698800  0.48938700  1
  C  675  1  0.60110100  0.73737100  0.48127800  1
  C  676  1  0.59113600  0.73801000  0.46065000  1
  C  677  1  0.62634500  0.74818000  0.44831000  1
  C  678  1  0.67008700  0.75744600  0.45633900  1
  C  679  1  0.86727300  0.76343500  0.48105700  1
  C  680  1  0.88210000  0.74336200  0.48314800  1
  C  681  1  0.93156600  0.73711100  0.47755600  1
  C  682  1  0.96719300  0.75062200  0.46927700  1
  C  683  1  0.95227000  0.77070400  0.46723200  1
  C  684  1  0.90314500  0.77706500  0.47318100  1
  C  700  1  0.73439200  0.84871200  0.57000900  1
  C  703  1  0.54532100  0.72779100  0.45216100  1
  C  706  1  0.01950220  0.74384600  0.46335700  1
  C  709  1  0.72284100  0.27071300  0.85623200  1
  C  710  1  0.71723700  0.25564600  0.84181400  1
  C  711  1  0.76042700  0.24601700  0.83346100  1
  C  712  1  0.80997400  0.25191500  0.83977000  1
  C  713  1  0.81673100  0.26709100  0.85401900  1
  C  714  1  0.77279500  0.27630600  0.86218800  1
  C  715  1  0.75397800  0.23114900  0.81862000  1
  C  716  1  0.71908100  0.21527600  0.82135700  1
  C  717  1  0.71133700  0.20102900  0.80638200  1
  C  718  1  0.73801000  0.20231400  0.78816200  1
  C  719  1  0.77307200  0.21809300  0.78543100  1
  C  720  1  0.78114200  0.23223700  0.80046500  1
  C  721  1  0.67908300  0.28027000  0.86439800  1
  C  722  1  0.64386500  0.29035300  0.85202600  1
  C  723  1  0.60088100  0.30004200  0.86016200  1
  C  724  1  0.59108800  0.29947000  0.88080500  1
  C  725  1  0.62640500  0.28934300  0.89313400  1
  C  726  1  0.67001700  0.28000900  0.88507600  1
  C  727  1  0.86673100  0.27332200  0.85973000  1
  C  728  1  0.88176200  0.29336500  0.85756200  1
  C  729  1  0.93130100  0.29957400  0.86310700  1
  C  730  1  0.96683900  0.28605400  0.87143000  1
  C  731  1  0.95176300  0.26599200  0.87351600  1
  C  732  1  0.90255000  0.25967200  0.86761400  1
  C  748  1  0.72874500  0.18793700  0.77182100  1
  C  751  1  0.54524100  0.30966500  0.88930300  1
  C  754  1  0.01916820  0.29281000  0.87737700  1
  C  757  1  0.31311000  0.70530900  0.42112200  1
  C  758  1  0.31576700  0.69026500  0.40653800  1
  C  759  1  0.27106900  0.68271800  0.39719200  1
  C  760  1  0.22296800  0.69062500  0.40305700  1
  C  761  1  0.21901200  0.70521300  0.41804000  1
  C  762  1  0.26439900  0.71251300  0.42686300  1
  C  763  1  0.27430700  0.66697400  0.38294300  1
  C  764  1  0.31382800  0.66641000  0.36850700  1
  C  765  1  0.31834500  0.65038300  0.35522700  1
  C  766  1  0.28338000  0.63433100  0.35572900  1
  C  767  1  0.24298100  0.63513400  0.36975100  1
  C  768  1  0.23880500  0.65104500  0.38316300  1
  C  769  1  0.35829900  0.71278300  0.43028700  1
  C  770  1  0.39252800  0.69996900  0.44033100  1
  C  771  1  0.43620400  0.70755800  0.45001700  1
  C  772  1  0.44763000  0.72807700  0.44951600  1
  C  773  1  0.41352500  0.74083200  0.43930600  1
  C  774  1  0.36930400  0.73332500  0.42995300  1
  C  775  1  0.17017500  0.71147100  0.42501200  1
  C  776  1  0.15628200  0.70842400  0.44506100  1
  C  777  1  0.10720700  0.71378200  0.45193100  1
  C  778  1  0.07105020  0.72276100  0.43909800  1
  C  779  1  0.08513620  0.72583900  0.41905200  1
  C  780  1  0.13385700  0.72010700  0.41204400  1
  C  796  1  0.29172300  0.61728400  0.34193100  1
  C  799  1  0.49346200  0.73608400  0.46010100  1
  C  802  1  0.01885320  0.72809800  0.44646400  1
  C  805  1  0.31238200  0.33190900  0.92002900  1
  C  806  1  0.31474300  0.34695300  0.93461900  1
  C  807  1  0.26984300  0.35450200  0.94380700  1
  C  808  1  0.22184700  0.34661500  0.93779500  1
  C  809  1  0.21820500  0.33198000  0.92284300  1
  C  810  1  0.26378800  0.32467700  0.91416500  1
  C  811  1  0.27284700  0.37022300  0.95806800  1
  C  812  1  0.31155100  0.37054900  0.97283400  1
  C  813  1  0.31588300  0.38653600  0.98617000  1
  C  814  1  0.28166300  0.40281400  0.98533200  1
  C  815  1  0.24209000  0.40226200  0.97094900  1
  C  816  1  0.23798700  0.38635100  0.95752800  1
  C  817  1  0.35777600  0.32447000  0.91098700  1
  C  818  1  0.39205000  0.33731200  0.90100100  1
  C  819  1  0.43591700  0.32976300  0.89141300  1
  C  820  1  0.44749900  0.30926000  0.89196100  1
  C  821  1  0.41336600  0.29647800  0.90212900  1
  C  822  1  0.36895000  0.30394400  0.91137800  1
  C  823  1  0.16951100  0.32560100  0.91581200  1
  C  824  1  0.15584000  0.32845100  0.89571000  1
  C  825  1  0.10691500  0.32294800  0.88878500  1
  C  826  1  0.07068120  0.31400700  0.90161400  1
  C  827  1  0.08456720  0.31110600  0.92170900  1
  C  828  1  0.13312300  0.31698600  0.92876700  1
  C  844  1  0.28976200  0.41978700  0.99923800  1
  C  847  1  0.49342200  0.30128200  0.88141300  1
  C  850  1  0.01853020  0.30861400  0.89422100  1
  C  853  1  0.81257100  0.26919400  0.48381300  1
  C  854  1  0.81510200  0.25458600  0.49883500  1
  C  855  1  0.77034100  0.24525500  0.50634200  1
  C  856  1  0.72228800  0.25117900  0.49842700  1
  C  857  1  0.71844700  0.26618500  0.48385500  1
  C  858  1  0.76391900  0.27497500  0.47658400  1
  C  859  1  0.77353300  0.23096600  0.52205300  1
  C  860  1  0.81305500  0.21652900  0.52259000  1
  C  861  1  0.81765300  0.20324900  0.53861400  1
  C  862  1  0.78276700  0.20374900  0.55469200  1
  C  863  1  0.74233100  0.21775800  0.55390600  1
  C  864  1  0.73807100  0.23117000  0.53799500  1
  C  865  1  0.85785800  0.27831600  0.47637900  1
  C  866  1  0.89207500  0.28832200  0.48922900  1
  C  867  1  0.93592600  0.29792400  0.48168800  1
  C  868  1  0.94754100  0.29737300  0.46118600  1
  C  869  1  0.91344000  0.28720300  0.44839600  1
  C  870  1  0.86904300  0.27793400  0.45585400  1
  C  871  1  0.66967200  0.27318800  0.47753500  1
  C  872  1  0.65591300  0.29327000  0.48046300  1
  C  873  1  0.60694900  0.30018300  0.47500300  1
  C  874  1  0.57075200  0.28736100  0.46603000  1
  C  875  1  0.58470500  0.26728300  0.46306600  1
  C  876  1  0.63330900  0.26023500  0.46890300  1
  C  892  1  0.79124500  0.18996500  0.57174000  1
  C  895  1  0.99353200  0.30789000  0.45322700  1
  C  898  1  0.51860400  0.29475700  0.46063700  1
  C  901  1  0.81291600  0.76810700  0.85720600  1
  C  902  1  0.81540500  0.78267600  0.84214200  1
  C  903  1  0.77057100  0.79188100  0.83455200  1
  C  904  1  0.72252600  0.78592700  0.84243100  1
  C  905  1  0.71876600  0.77099600  0.85708000  1
  C  906  1  0.76426400  0.76228300  0.86441300  1
  C  907  1  0.77362500  0.80610300  0.81880100  1
  C  908  1  0.81232100  0.82086700  0.81845300  1
  C  909  1  0.81656900  0.83420500  0.80246100  1
  C  910  1  0.78227500  0.83336500  0.78620900  1
  C  911  1  0.74274200  0.81896800  0.78677500  1
  C  912  1  0.73872800  0.80554500  0.80268500  1
  C  913  1  0.85821100  0.75902100  0.86468400  1
  C  914  1  0.89249400  0.74899700  0.85187300  1
  C  915  1  0.93619100  0.73933100  0.85946900  1
  C  916  1  0.94759100  0.73982700  0.87999000  1
  C  917  1  0.91345500  0.75003200  0.89273900  1
  C  918  1  0.86921200  0.75936500  0.88522600  1
  C  919  1  0.67001000  0.76399700  0.86339600  1
  C  920  1  0.65620100  0.74392800  0.86042300  1
  C  921  1  0.60716400  0.73704600  0.86582100  1
  C  922  1  0.57096800  0.74988600  0.87476900  1
  C  923  1  0.58499100  0.76994900  0.87778600  1
  C  924  1  0.63366500  0.77696700  0.87201100  1
  C  940  1  0.79024200  0.84728500  0.76923900  1
  C  943  1  0.99336300  0.72921200  0.88801300  1
  C  946  1  0.51876800  0.74252200  0.88010700  1
  C  949  1  0.27748700  0.49727400  0.29029600  1
  C  950  1  0.27494600  0.51491100  0.30161800  1
  C  951  1  0.27489600  0.53382800  0.29255300  1
  C  952  1  0.27764500  0.53493800  0.27163600  1
  C  953  1  0.28112800  0.51764400  0.25978300  1
  C  954  1  0.28059900  0.49896700  0.26941100  1
  C  955  1  0.27200400  0.55129300  0.30438100  1
  C  956  1  0.30663000  0.55428100  0.32029100  1
  C  957  1  0.30206000  0.57093100  0.33274100  1
  C  958  1  0.26230600  0.58488800  0.32975100  1
  C  959  1  0.22789300  0.58205100  0.31385100  1
  C  960  1  0.23304000  0.56557900  0.30114300  1
  C  961  1  0.27715300  0.47830400  0.29973700  1
  C  962  1  0.30902800  0.47445300  0.31633300  1
  C  963  1  0.30865400  0.45581200  0.32572700  1
  C  964  1  0.27611100  0.44058200  0.31889000  1
  C  965  1  0.24440200  0.44419700  0.30228000  1
  C  966  1  0.24497400  0.46282200  0.29282800  1
  C  967  1  0.28560300  0.51892900  0.23868700  1
  C  968  1  0.32196100  0.50724100  0.22826900  1
  C  969  1  0.32606200  0.50827600  0.20747900  1
  C  970  1  0.29386200  0.52100100  0.19653400  1
  C  971  1  0.25777300  0.53285700  0.20674400  1
  C  972  1  0.25374000  0.53182600  0.22754500  1
  C  994  1  0.27680700  0.53970200  0.05129000  1
  C  995  1  0.27571800  0.52208900  0.03986900  1
  C  996  1  0.27139800  0.50316000  0.04877500  1
  C  997  1  0.26805600  0.50200500  0.06968000  1
  C  998  1  0.26932000  0.51924900  0.08164500  1
  C  999  1  0.27377400  0.53791200  0.07217800  1
  C  1000  1  0.26904000  0.48578400  0.03677000  1
  C  1001  1  0.30637600  0.48229500  0.02190600  1
  C  1002  1  0.30253400  0.46578100  0.00923199  1
  C  1003  1  0.26086500  0.45245800  0.01094000  1
  C  1004  1  0.22374000  0.45577500  0.02579600  1
  C  1005  1  0.22800800  0.47213300  0.03869500  1
  C  1006  1  0.27931800  0.55873400  0.04194200  1
  C  1007  1  0.31276400  0.56226200  0.02572600  1
  C  1008  1  0.31370800  0.58076800  0.01605600  1
  C  1009  1  0.28113700  0.59625000  0.02228600  1
  C  1010  1  0.24839300  0.59305900  0.03868000  1
  C  1011  1  0.24740600  0.57454200  0.04830900  1
  C  1012  1  0.26554000  0.51796600  0.10272800  1
  C  1013  1  0.23090800  0.53023000  0.11333600  1
  C  1014  1  0.22726300  0.52912300  0.13413200  1
  C  1015  1  0.25845300  0.51585100  0.14486900  1
  C  1016  1  0.29308600  0.50353100  0.13445600  1
  C  1017  1  0.29641200  0.50452800  0.11363200  1
  C  1039  1  0.77672100  0.89934500  0.64935500  1
  C  1040  1  0.77563800  0.88791700  0.66696200  1
  C  1041  1  0.77135100  0.89681600  0.68589500  1
  C  1042  1  0.76799800  0.91772000  0.68705900  1
  C  1043  1  0.76922700  0.92969000  0.66981800  1
  C  1044  1  0.77366000  0.92023100  0.65114900  1
  C  1045  1  0.76908100  0.88480500  0.70326700  1
  C  1046  1  0.80648600  0.86996200  0.70673100  1
  C  1047  1  0.80273000  0.85727700  0.72323700  1
  C  1048  1  0.76114100  0.85897800  0.73659700  1
  C  1049  1  0.72394000  0.87381000  0.73330100  1
  C  1050  1  0.72810700  0.88671600  0.71694300  1
  C  1051  1  0.77928700  0.89000100  0.63032200  1
  C  1052  1  0.81278600  0.87379800  0.62680100  1
  C  1053  1  0.81378100  0.86413100  0.60829500  1
  C  1054  1  0.78121100  0.87034900  0.59280800  1
  C  1055  1  0.74840000  0.88672400  0.59599500  1
  C  1056  1  0.74735900  0.89635100  0.61451400  1
  C  1057  1  0.76547400  0.95077200  0.67111000  1
  C  1058  1  0.73082700  0.96138800  0.65886100  1
  C  1059  1  0.72718900  0.98218500  0.65998600  1
  C  1060  1  0.75843300  0.99291000  0.67324800  1
  C  1061  1  0.79308800  0.98248800  0.68555000  1
  C  1062  1  0.79640300  0.96166600  0.68453600  1
  C  1084  1  0.77751600  0.13833600  0.69178300  1
  C  1085  1  0.77496600  0.14965400  0.67414300  1
  C  1086  1  0.77491200  0.14058800  0.65522600  1
  C  1087  1  0.77767800  0.11967000  0.65412000  1
  C  1088  1  0.78118500  0.10782000  0.67141600  1
  C  1089  1  0.78065400  0.11745100  0.69009100  1
  C  1090  1  0.77194300  0.15240900  0.63775600  1
  C  1091  1  0.80650500  0.16833600  0.63475000  1
  C  1092  1  0.80185800  0.18077800  0.61809300  1
  C  1093  1  0.76203600  0.17777700  0.60416800  1
  C  1094  1  0.72769300  0.16186000  0.60702000  1
  C  1095  1  0.73294300  0.14915400  0.62349000  1
  C  1096  1  0.77714000  0.14777500  0.71075300  1
  C  1097  1  0.80897200  0.16438300  0.71461300  1
  C  1098  1  0.80856100  0.17377100  0.73325800  1
  C  1099  1  0.77601400  0.16692100  0.74848200  1
  C  1100  1  0.74435200  0.15030000  0.74485600  1
  C  1101  1  0.74496200  0.14085400  0.72623100  1
  C  1102  1  0.78565200  0.08672400  0.67013700  1
  C  1103  1  0.82201200  0.07630700  0.68182400  1
  C  1104  1  0.82610700  0.05551600  0.68079400  1
  C  1105  1  0.79387600  0.04457000  0.66808300  1
  C  1106  1  0.75777700  0.05477800  0.65622900  1
  C  1107  1  0.75375900  0.07557900  0.65725300  1
  N  424  1  0.98490100  0.60079700  0.19466200  1
  N  426  1  0.03010000  0.52145200  0.02725000  1
  N  428  1  0.00789100  0.42220600  0.18059500  1
  N  469  1  0.98445500  0.43670700  0.84893200  1
  N  471  1  0.98478200  0.51530900  0.01733300  1
  N  473  1  0.01330000  0.61436100  0.86327200  1
  N  514  1  0.48483900  0.84537800  0.60393800  1
  N  516  1  0.48478900  0.01378700  0.52538600  1
  N  518  1  0.51342900  0.85974800  0.42628600  1
  N  559  1  0.48452000  0.19109700  0.43984900  1
  N  561  1  0.53010000  0.02369700  0.51922600  1
  N  563  1  0.50775600  0.17703300  0.61844800  1
  N  988  1  0.25378200  0.60079700  0.34307400  1
  N  990  1  0.29898100  0.52145200  0.17566200  1
  N  992  1  0.27677200  0.42220600  0.32900700  1
  N  1033  1  0.25333600  0.43670700  0.99734400  1
  N  1035  1  0.25366300  0.51530900  0.16574500  1
  N  1037  1  0.28218100  0.61436100  0.01168400  1
  N  1078  1  0.75372000  0.84537800  0.75235000  1
  N  1080  1  0.75367000  0.01378700  0.67379800  1
  N  1082  1  0.78231000  0.85974800  0.57469800  1
  N  1123  1  0.75340100  0.19109700  0.58826100  1
  N  1125  1  0.79898100  0.02369700  0.66763800  1
  N  1127  1  0.77663700  0.17703300  0.76686000  1
