# generated using pymatgen
data_H15C17(N2O)2
_symmetry_space_group_name_H-M   'P 1'
_cell_length_a   51.84580000
_cell_length_b   51.84580000
_cell_length_c   51.84580000
_cell_angle_alpha   90.00000000
_cell_angle_beta   90.00000000
_cell_angle_gamma   90.00000000
_symmetry_Int_Tables_number   1
_chemical_formula_structural   H15C17(N2O)2
_chemical_formula_sum   'H720 C816 N192 O96'
_cell_volume   139360.83524533
_cell_formula_units_Z   48
loop_
 _symmetry_equiv_pos_site_id
 _symmetry_equiv_pos_as_xyz
  1  'x, y, z'
loop_
 _atom_site_type_symbol
 _atom_site_label
 _atom_site_symmetry_multiplicity
 _atom_site_fract_x
 _atom_site_fract_y
 _atom_site_fract_z
 _atom_site_occupancy
  H  9  1  0.36508700  0.34765200  0.92971900  1
  H  17  1  0.36226300  0.34403800  0.10524800  1
  H  19  1  0.31141600  0.38452900  0.03985200  1
  H  20  1  0.31224300  0.38557100  0.99506100  1
  H  21  1  0.40269300  0.29365000  0.03943300  1
  H  22  1  0.40362200  0.29476900  0.99464800  1
  H  24  1  0.40274800  0.32300600  0.92819200  1
  H  25  1  0.41624200  0.31018000  0.95610700  1
  H  27  1  0.34045000  0.38540900  0.92861200  1
  H  28  1  0.32722400  0.39840100  0.95656000  1
  H  30  1  0.32579300  0.39625400  0.07880000  1
  H  31  1  0.33895700  0.38284700  0.10653400  1
  H  33  1  0.40131900  0.32101400  0.10616800  1
  H  34  1  0.41442700  0.30766500  0.07839000  1
  H  43  1  0.67405100  0.65672900  0.93090500  1
  H  51  1  0.67072000  0.65287700  0.10642400  1
  H  53  1  0.72370800  0.61499500  0.04118200  1
  H  54  1  0.72470700  0.61614300  0.99639800  1
  H  55  1  0.63236600  0.70583800  0.04145100  1
  H  56  1  0.63344400  0.70703400  0.99667200  1
  H  58  1  0.63499900  0.67973900  0.92990800  1
  H  59  1  0.62177700  0.69298200  0.95768300  1
  H  61  1  0.69721800  0.61779600  0.92970200  1
  H  62  1  0.71046100  0.60446400  0.95742800  1
  H  64  1  0.70861900  0.60215000  0.07967700  1
  H  65  1  0.69547400  0.61523500  0.10762800  1
  H  67  1  0.63311100  0.67759600  0.10790500  1
  H  68  1  0.61968800  0.69047100  0.07997700  1
  H  77  1  0.67289400  0.34506200  0.10568400  1
  H  85  1  0.67229800  0.34638100  0.93009700  1
  H  87  1  0.72398600  0.38557400  0.99562600  1
  H  88  1  0.72423500  0.38512100  0.04042500  1
  H  89  1  0.63335700  0.29401600  0.99521500  1
  H  90  1  0.63347700  0.29370000  0.04002500  1
  H  92  1  0.63434500  0.32138800  0.10666600  1
  H  93  1  0.62128700  0.30808500  0.07882100  1
  H  95  1  0.69661400  0.38347200  0.10707500  1
  H  96  1  0.70938700  0.39708400  0.07923800  1
  H  98  1  0.70933700  0.39786300  0.95693100  1
  H  99  1  0.69616300  0.38473000  0.92904600  1
  H  101  1  0.63425100  0.32214000  0.92873700  1
  H  102  1  0.62094000  0.30903400  0.95658000  1
  H  111  1  0.36398000  0.65405000  0.10606100  1
  H  119  1  0.36308700  0.65574900  0.93047900  1
  H  121  1  0.31185400  0.61554900  0.99573400  1
  H  122  1  0.31220100  0.61497400  0.04053300  1
  H  123  1  0.40258600  0.70699700  0.99618400  1
  H  124  1  0.40281200  0.70655300  0.04099300  1
  H  126  1  0.40194400  0.67838500  0.10745900  1
  H  127  1  0.41528400  0.69145100  0.07960700  1
  H  129  1  0.34002000  0.61578200  0.10711700  1
  H  130  1  0.32688700  0.60263900  0.07921400  1
  H  132  1  0.32675400  0.60362700  0.95688600  1
  H  133  1  0.33935300  0.61737000  0.92903300  1
  H  135  1  0.40172000  0.67932800  0.92953800  1
  H  136  1  0.41474900  0.69266200  0.95737800  1
  H  145  1  0.93085700  0.34531700  0.36160900  1
  H  153  1  0.10642000  0.34748800  0.36530500  1
  H  155  1  0.04075500  0.29593400  0.40450600  1
  H  156  1  0.99594500  0.29528700  0.40342700  1
  H  157  1  0.04166000  0.38584100  0.31214100  1
  H  158  1  0.99687200  0.38520800  0.31110700  1
  H  160  1  0.93022100  0.38453100  0.33869900  1
  H  161  1  0.95800100  0.39724000  0.32497400  1
  H  163  1  0.92798500  0.31925300  0.39754300  1
  H  164  1  0.95590300  0.31136200  0.41459300  1
  H  166  1  0.07970000  0.31020900  0.41646200  1
  H  167  1  0.10765600  0.32294100  0.40301100  1
  H  169  1  0.10803900  0.38505900  0.34050200  1
  H  170  1  0.08017100  0.39852400  0.32756000  1
  H  179  1  0.92974600  0.65321100  0.67105600  1
  H  187  1  0.10529300  0.65586100  0.67417500  1
  H  189  1  0.03987400  0.70642800  0.63344200  1
  H  190  1  0.99508200  0.70548700  0.63233700  1
  H  191  1  0.03957400  0.61558200  0.72479400  1
  H  192  1  0.99478000  0.61483900  0.72392000  1
  H  194  1  0.92832700  0.61552600  0.69572300  1
  H  195  1  0.95623300  0.60219200  0.70870800  1
  H  197  1  0.92843100  0.67779500  0.63333600  1
  H  198  1  0.95636600  0.69067000  0.61996000  1
  H  200  1  0.07907500  0.69143600  0.62175000  1
  H  201  1  0.10706600  0.68021600  0.63642600  1
  H  203  1  0.10621900  0.61674700  0.69716200  1
  H  204  1  0.07845700  0.60370600  0.71062100  1
  H  213  1  0.10583800  0.65556000  0.36321200  1
  H  221  1  0.93025200  0.65439900  0.36389900  1
  H  223  1  0.99544100  0.70651700  0.40305100  1
  H  224  1  0.04025100  0.70678700  0.40291000  1
  H  225  1  0.99571500  0.61540400  0.31197300  1
  H  226  1  0.04051500  0.61580500  0.31171100  1
  H  228  1  0.10716300  0.61722700  0.33935300  1
  H  229  1  0.07931900  0.60373100  0.32648000  1
  H  231  1  0.10692900  0.67918600  0.40175500  1
  H  232  1  0.07905400  0.69221700  0.41503700  1
  H  234  1  0.95680700  0.69150100  0.41541700  1
  H  235  1  0.92895500  0.67841400  0.40210800  1
  H  237  1  0.92917100  0.61614100  0.33988300  1
  H  238  1  0.95702700  0.60307900  0.32658200  1
  H  247  1  0.10577300  0.34611900  0.67227900  1
  H  255  1  0.93018400  0.34523400  0.67271500  1
  H  257  1  0.99574400  0.29392800  0.63307600  1
  H  258  1  0.04055500  0.29410100  0.63302800  1
  H  259  1  0.99549700  0.38486700  0.72432200  1
  H  260  1  0.04029900  0.38518500  0.72413400  1
  H  262  1  0.10684900  0.38441900  0.69624000  1
  H  263  1  0.07899700  0.39748900  0.70953700  1
  H  265  1  0.10705100  0.32216900  0.63401700  1
  H  266  1  0.07920600  0.30907400  0.62070800  1
  H  268  1  0.95695400  0.30859000  0.62090900  1
  H  269  1  0.92905600  0.32152100  0.63425400  1
  H  271  1  0.92885100  0.38349300  0.69666500  1
  H  272  1  0.95671100  0.39699900  0.70950100  1
  H  281  1  0.36339100  0.91278200  0.36292500  1
  H  289  1  0.36400300  0.08837200  0.36421700  1
  H  291  1  0.40316900  0.02324000  0.31205300  1
  H  292  1  0.40302800  0.97843500  0.31172500  1
  H  293  1  0.31212800  0.02285300  0.40319200  1
  H  294  1  0.31182900  0.97805100  0.40269300  1
  H  296  1  0.33963800  0.91146100  0.40136200  1
  H  297  1  0.32655100  0.93925900  0.41474800  1
  H  299  1  0.40202500  0.91179500  0.33937800  1
  H  300  1  0.41512200  0.93963300  0.32610000  1
  H  302  1  0.41550600  0.06190400  0.32707000  1
  H  303  1  0.40210600  0.08975800  0.34006600  1
  H  305  1  0.33987400  0.08947700  0.40237600  1
  H  306  1  0.32665500  0.06160200  0.41549600  1
  H  315  1  0.67221300  0.91231200  0.67198600  1
  H  323  1  0.67265100  0.08790600  0.67295000  1
  H  325  1  0.63303000  0.02231100  0.72423100  1
  H  326  1  0.63297400  0.97750500  0.72402600  1
  H  327  1  0.72428700  0.02261100  0.63331900  1
  H  328  1  0.72403400  0.97780800  0.63290600  1
  H  330  1  0.69629800  0.91118200  0.63379300  1
  H  331  1  0.70948100  0.93905100  0.62063100  1
  H  333  1  0.63404200  0.91097100  0.69606100  1
  H  334  1  0.62067600  0.93882300  0.70908800  1
  H  336  1  0.62092600  0.06110700  0.70979000  1
  H  337  1  0.63406700  0.08894500  0.69654700  1
  H  339  1  0.69647200  0.08919700  0.63455900  1
  H  340  1  0.70959700  0.06139300  0.62122500  1
  H  349  1  0.36191400  0.08763300  0.67423100  1
  H  357  1  0.36537400  0.91210700  0.67065500  1
  H  359  1  0.40345100  0.97718900  0.72368900  1
  H  360  1  0.40236700  0.02197100  0.72479000  1
  H  361  1  0.31252100  0.97726000  0.63243400  1
  H  362  1  0.31149100  0.02204300  0.63350800  1
  H  364  1  0.33890300  0.08876500  0.63519900  1
  H  365  1  0.32571000  0.06101700  0.62186400  1
  H  367  1  0.40088500  0.08868900  0.69737800  1
  H  368  1  0.41406500  0.06094800  0.71073100  1
  H  370  1  0.41625600  0.93868800  0.70839400  1
  H  371  1  0.40296300  0.91074000  0.69543800  1
  H  373  1  0.34079400  0.91083100  0.63288700  1
  H  374  1  0.32768400  0.93875600  0.61971300  1
  H  383  1  0.67049300  0.08856300  0.36555200  1
  H  391  1  0.67429800  0.91305300  0.36171900  1
  H  393  1  0.63373200  0.97870700  0.31124400  1
  H  394  1  0.63253600  0.02348400  0.31242900  1
  H  395  1  0.72460900  0.97868200  0.40252100  1
  H  396  1  0.72346700  0.02346000  0.40368400  1
  H  398  1  0.69515200  0.08987700  0.40324600  1
  H  399  1  0.70822400  0.06194400  0.41645100  1
  H  401  1  0.63297800  0.08993200  0.34068400  1
  H  402  1  0.61969800  0.06197600  0.32772600  1
  H  404  1  0.62206800  0.93970300  0.32533000  1
  H  405  1  0.63534600  0.91194900  0.33856600  1
  H  407  1  0.69726800  0.91193200  0.40078300  1
  H  408  1  0.71044000  0.93968300  0.41413000  1
  H  417  1  0.86743300  0.84955300  0.43037900  1
  H  425  1  0.86721100  0.84914900  0.60625400  1
  H  427  1  0.81930900  0.89264800  0.54077700  1
  H  428  1  0.81938800  0.89277300  0.49591700  1
  H  429  1  0.91018400  0.80093100  0.54068300  1
  H  430  1  0.91024400  0.80103900  0.49583000  1
  H  432  1  0.90122900  0.82137500  0.42702400  1
  H  433  1  0.91998100  0.81523900  0.45435900  1
  H  435  1  0.83967500  0.88367500  0.42708800  1
  H  436  1  0.83362500  0.90242900  0.45443400  1
  H  438  1  0.83322100  0.90201000  0.58233500  1
  H  439  1  0.83928900  0.88318500  0.60962700  1
  H  441  1  0.90116000  0.82107200  0.60952900  1
  H  442  1  0.91981500  0.81483400  0.58215900  1
  H  451  1  0.16889300  0.15155000  0.42975200  1
  H  459  1  0.16872600  0.15112700  0.60562700  1
  H  461  1  0.21680500  0.10797400  0.54006900  1
  H  462  1  0.21686400  0.10809800  0.49520900  1
  H  463  1  0.12586100  0.19961700  0.54019500  1
  H  464  1  0.12591300  0.19973700  0.49534400  1
  H  466  1  0.13489300  0.17959200  0.42649800  1
  H  467  1  0.11628000  0.18585300  0.45388900  1
  H  469  1  0.19685100  0.11754100  0.42636700  1
  H  470  1  0.20292300  0.09871400  0.45365700  1
  H  472  1  0.20257800  0.09828900  0.58154800  1
  H  473  1  0.19649800  0.11701700  0.60890200  1
  H  475  1  0.13490500  0.17926800  0.60899500  1
  H  476  1  0.11613500  0.18538200  0.58166800  1
  H  485  1  0.16864200  0.85021800  0.60611300  1
  H  493  1  0.16878500  0.84988100  0.43022800  1
  H  495  1  0.21729800  0.89266500  0.49568800  1
  H  496  1  0.21733700  0.89267300  0.54054600  1
  H  497  1  0.12486700  0.80251100  0.49580300  1
  H  498  1  0.12469400  0.80273100  0.54065800  1
  H  500  1  0.13441800  0.82259000  0.60953300  1
  H  501  1  0.11525600  0.81729700  0.58229100  1
  H  503  1  0.19725800  0.88367900  0.60942300  1
  H  504  1  0.20338400  0.90243400  0.58208800  1
  H  506  1  0.20301400  0.90253100  0.45422200  1
  H  507  1  0.19680100  0.88381600  0.42688700  1
  H  509  1  0.13477500  0.82198600  0.42688200  1
  H  510  1  0.11580300  0.81616700  0.45412400  1
  H  519  1  0.86742100  0.15080400  0.60584700  1
  H  527  1  0.86735300  0.15018300  0.42996000  1
  H  529  1  0.81862200  0.10797200  0.49565700  1
  H  530  1  0.81875000  0.10801600  0.54051300  1
  H  531  1  0.91168300  0.19748800  0.49528800  1
  H  532  1  0.91148800  0.19786000  0.54014100  1
  H  534  1  0.90145500  0.17867600  0.60912400  1
  H  535  1  0.92042100  0.18444900  0.58187200  1
  H  537  1  0.83936100  0.11690900  0.60927300  1
  H  538  1  0.83313900  0.09814700  0.58196900  1
  H  540  1  0.83251400  0.09809800  0.45413000  1
  H  541  1  0.83868800  0.11676900  0.42674900  1
  H  543  1  0.90153800  0.17776100  0.42640100  1
  H  544  1  0.92105700  0.18234400  0.45354100  1
  H  553  1  0.42997300  0.84990600  0.86705100  1
  H  561  1  0.60585500  0.85001900  0.86746000  1
  H  563  1  0.54027800  0.80218900  0.91086500  1
  H  564  1  0.49541800  0.80213900  0.91073800  1
  H  565  1  0.54042800  0.89282700  0.81891400  1
  H  566  1  0.49557600  0.89279400  0.81880400  1
  H  568  1  0.42670600  0.88375800  0.83886700  1
  H  569  1  0.45406400  0.90244000  0.83265400  1
  H  571  1  0.42656300  0.82205600  0.90111300  1
  H  572  1  0.45381700  0.81611500  0.92003700  1
  H  574  1  0.58183200  0.81633500  0.92040500  1
  H  575  1  0.60914700  0.82224100  0.90155900  1
  H  577  1  0.60924000  0.88374200  0.83920100  1
  H  578  1  0.58193400  0.90252700  0.83304200  1
  H  587  1  0.43026500  0.15068100  0.16868100  1
  H  595  1  0.60614400  0.15078300  0.16904500  1
  H  597  1  0.54069200  0.19860300  0.12542600  1
  H  598  1  0.49583200  0.19855200  0.12530900  1
  H  599  1  0.54055000  0.10787600  0.21728900  1
  H  600  1  0.49569900  0.10784800  0.21719400  1
  H  602  1  0.42688700  0.11692500  0.19691100  1
  H  603  1  0.45420100  0.09816200  0.20309900  1
  H  605  1  0.42696500  0.17848500  0.13460400  1
  H  606  1  0.45427800  0.18440700  0.11575900  1
  H  608  1  0.58227300  0.18463600  0.11609900  1
  H  609  1  0.60954100  0.17863800  0.13498200  1
  H  611  1  0.60941500  0.11692200  0.19722300  1
  H  612  1  0.58205700  0.09824300  0.20344600  1
  H  621  1  0.60598800  0.15102300  0.86720100  1
  H  629  1  0.43011200  0.15140200  0.86764900  1
  H  631  1  0.49584200  0.19970400  0.91028300  1
  H  632  1  0.54069400  0.19958200  0.91019600  1
  H  633  1  0.49540000  0.10777100  0.81962700  1
  H  634  1  0.54026200  0.10769700  0.81949200  1
  H  636  1  0.60918600  0.11696700  0.83933000  1
  H  637  1  0.58183200  0.09820100  0.83336200  1
  H  639  1  0.60945400  0.17913500  0.90105300  1
  H  640  1  0.58216700  0.18535300  0.91984400  1
  H  642  1  0.45436700  0.18588700  0.92004400  1
  H  643  1  0.42695100  0.17962900  0.90146400  1
  H  645  1  0.42662100  0.11729000  0.83989100  1
  H  646  1  0.45386500  0.09837400  0.83388100  1
  H  655  1  0.60600100  0.84937100  0.16832600  1
  H  663  1  0.43012400  0.84960300  0.16876300  1
  H  665  1  0.49546200  0.80103000  0.12585200  1
  H  666  1  0.54031400  0.80095100  0.12576300  1
  H  667  1  0.49581100  0.89310100  0.21636900  1
  H  668  1  0.54067300  0.89306200  0.21623600  1
  H  670  1  0.60946900  0.88351100  0.19604900  1
  H  671  1  0.58222100  0.90243600  0.20201500  1
  H  673  1  0.60919400  0.82106800  0.13457400  1
  H  674  1  0.58178900  0.81478800  0.11598200  1
  H  676  1  0.45398700  0.81520500  0.11616800  1
  H  677  1  0.42668900  0.82145800  0.13492800  1
  H  679  1  0.42688500  0.88366300  0.19661200  1
  H  680  1  0.45420700  0.90250200  0.20250600  1
  H  689  1  0.86723600  0.41253300  0.86736900  1
  H  697  1  0.86755000  0.58841300  0.86734200  1
  H  699  1  0.91060900  0.52281000  0.81923600  1
  H  700  1  0.91056600  0.47795400  0.81928000  1
  H  701  1  0.81938800  0.52299900  0.91061500  1
  H  702  1  0.81928200  0.47814100  0.91059100  1
  H  704  1  0.83914700  0.40924100  0.90124100  1
  H  705  1  0.83319800  0.43654900  0.92008900  1
  H  707  1  0.90120200  0.40912300  0.83941900  1
  H  708  1  0.92010800  0.43639100  0.83346500  1
  H  710  1  0.92012000  0.56437400  0.83304600  1
  H  711  1  0.90134700  0.59170300  0.83913100  1
  H  713  1  0.83973500  0.59179800  0.90142000  1
  H  714  1  0.83363800  0.56449400  0.92022000  1
  H  723  1  0.16862000  0.41220300  0.16884000  1
  H  731  1  0.16888900  0.58808300  0.16871200  1
  H  733  1  0.12558700  0.52267700  0.21685300  1
  H  734  1  0.12556100  0.47782300  0.21692400  1
  H  735  1  0.21686400  0.52246300  0.12553300  1
  H  736  1  0.21677000  0.47760300  0.12553900  1
  H  738  1  0.19642700  0.40881300  0.13474800  1
  H  739  1  0.20253900  0.43611500  0.11595300  1
  H  741  1  0.13480600  0.40892300  0.19703800  1
  H  742  1  0.11605200  0.43625600  0.20315600  1
  H  744  1  0.11602000  0.56422600  0.20262400  1
  H  745  1  0.13491000  0.59149700  0.19664500  1
  H  747  1  0.19699800  0.59136600  0.13485300  1
  H  748  1  0.20295200  0.56405000  0.11601700  1
  H  757  1  0.86711000  0.58871900  0.16893900  1
  H  765  1  0.86735900  0.41284200  0.16816700  1
  H  767  1  0.91051800  0.47819900  0.21651000  1
  H  768  1  0.91045800  0.52305700  0.21670600  1
  H  769  1  0.81917000  0.47846700  0.12526000  1
  H  770  1  0.81908900  0.52332000  0.12547600  1
  H  772  1  0.83894000  0.59216800  0.13509800  1
  H  773  1  0.83290300  0.56492000  0.11618800  1
  H  775  1  0.90109200  0.59197900  0.19691300  1
  H  776  1  0.91993400  0.56466500  0.20284200  1
  H  778  1  0.92011200  0.43671300  0.20222100  1
  H  779  1  0.90127900  0.40942000  0.19614900  1
  H  781  1  0.83932400  0.40959800  0.13428300  1
  H  782  1  0.83331200  0.43694800  0.11551700  1
  H  791  1  0.16871200  0.58784800  0.86781300  1
  H  799  1  0.16883700  0.41196800  0.86719000  1
  H  801  1  0.12557900  0.47762200  0.81933200  1
  H  802  1  0.12556500  0.52248100  0.81947500  1
  H  803  1  0.21679100  0.47737000  0.91072300  1
  H  804  1  0.21673100  0.52222200  0.91091000  1
  H  806  1  0.19668100  0.59110300  0.90175700  1
  H  807  1  0.20257000  0.56376800  0.92058800  1
  H  809  1  0.13483600  0.59127500  0.83977200  1
  H  810  1  0.11597700  0.56399600  0.83373500  1
  H  812  1  0.11604500  0.43603000  0.83324300  1
  H  813  1  0.13486900  0.40871000  0.83919900  1
  H  815  1  0.19701300  0.40851000  0.90100700  1
  H  816  1  0.20298700  0.43573900  0.91996300  1
  H  824  1  0.44028500  0.26275400  0.87786000  1
  H  829  1  0.35741200  0.26674300  0.98289400  1
  H  830  1  0.35407300  0.23522500  0.99607800  1
  H  831  1  0.31863700  0.25952700  0.95562700  1
  H  832  1  0.31142400  0.25541900  0.98885800  1
  H  833  1  0.31522200  0.22801300  0.96868700  1
  H  835  1  0.43985100  0.21262300  0.87168400  1
  H  837  1  0.37078200  0.29069700  0.92711700  1
  H  845  1  0.59527900  0.73848300  0.88011100  1
  H  850  1  0.67900800  0.73905600  0.98670200  1
  H  851  1  0.68675200  0.77175600  0.99400400  1
  H  852  1  0.71677000  0.73670600  0.95722400  1
  H  853  1  0.72627000  0.74535500  0.98898300  1
  H  854  1  0.72462600  0.76926800  0.96452600  1
  H  856  1  0.59576700  0.78861800  0.87243000  1
  H  858  1  0.66666667  0.71218900  0.92787900  1
  H  866  1  0.59584600  0.26220500  0.15703700  1
  H  871  1  0.67811100  0.26380200  0.05027900  1
  H  872  1  0.68456500  0.23144400  0.04070600  1
  H  873  1  0.71695700  0.26323900  0.07841700  1
  H  874  1  0.72502200  0.25637000  0.04583800  1
  H  875  1  0.72354800  0.23100100  0.06879400  1
  H  877  1  0.59625700  0.21208300  0.16421800  1
  H  879  1  0.66642700  0.28921000  0.10860700  1
  H  887  1  0.44025400  0.73800300  0.15763000  1
  H  892  1  0.35645900  0.73625300  0.05197100  1
  H  893  1  0.35112800  0.76863200  0.04178400  1
  H  894  1  0.31837700  0.73907900  0.08097900  1
  H  895  1  0.30977700  0.74572700  0.04849300  1
  H  896  1  0.31298400  0.77140500  0.07091500  1
  H  898  1  0.43970800  0.78821300  0.16445800  1
  H  900  1  0.36995300  0.71062300  0.10894900  1
  H  908  1  0.87948900  0.42309300  0.27986300  1
  H  913  1  0.98647200  0.34038700  0.28023300  1
  H  914  1  0.99482000  0.33326900  0.24765600  1
  H  915  1  0.95785100  0.30190500  0.28130200  1
  H  916  1  0.99006000  0.29329700  0.27342300  1
  H  917  1  0.96623700  0.29465900  0.24885900  1
  H  919  1  0.87202300  0.42260900  0.22967000  1
  H  921  1  0.92761500  0.35227800  0.30668500  1
  H  929  1  0.87839200  0.57759200  0.75586900  1
  H  934  1  0.98343400  0.66140000  0.75257300  1
  H  935  1  0.99471800  0.66645200  0.78461600  1
  H  936  1  0.95478800  0.69965400  0.75658500  1
  H  937  1  0.98753500  0.70799000  0.76218000  1
  H  938  1  0.96597300  0.70477900  0.78858500  1
  H  940  1  0.87179200  0.57847400  0.80602200  1
  H  942  1  0.92700200  0.64762700  0.72784200  1
  H  950  1  0.15658600  0.57754800  0.28033900  1
  H  955  1  0.04958000  0.66103600  0.28029500  1
  H  956  1  0.04192000  0.66831100  0.24757900  1
  H  957  1  0.07852600  0.69922800  0.28203100  1
  H  958  1  0.04658700  0.70819500  0.27349200  1
  H  959  1  0.07090400  0.70661900  0.24943400  1
  H  961  1  0.16409000  0.57815500  0.23017700  1
  H  963  1  0.10859000  0.64885700  0.30682400  1
  H  971  1  0.15711300  0.42276700  0.75572200  1
  H  976  1  0.05070000  0.34030900  0.75341400  1
  H  977  1  0.04077000  0.33387700  0.78565500  1
  H  978  1  0.07880000  0.30146000  0.75426400  1
  H  979  1  0.04615900  0.29340700  0.76083400  1
  H  980  1  0.06887400  0.29489200  0.78641700  1
  H  982  1  0.16421500  0.42206500  0.80587500  1
  H  984  1  0.10875900  0.35228900  0.72834700  1
  H  992  1  0.28039500  0.86151700  0.44043100  1
  H  997  1  0.28059400  0.96708000  0.35569900  1
  H  998  1  0.24788900  0.97579100  0.34962900  1
  H  999  1  0.27953900  0.93708900  0.31827900  1
  H  1000  1  0.27172700  0.96906700  0.30879700  1
  H  1001  1  0.24692500  0.94570100  0.31215700  1
  H  1003  1  0.23018300  0.85435100  0.43992600  1
  H  1005  1  0.30723400  0.90981200  0.36957700  1
  H  1013  1  0.75585400  0.86068200  0.59600400  1
  H  1018  1  0.75287200  0.96730800  0.67762700  1
  H  1019  1  0.78490500  0.97841200  0.68305100  1
  H  1020  1  0.75557000  0.94008300  0.71701100  1
  H  1021  1  0.76125800  0.97308400  0.72422300  1
  H  1022  1  0.78752800  0.95117900  0.72257200  1
  H  1024  1  0.80597300  0.85381900  0.59647100  1
  H  1026  1  0.72838900  0.90959800  0.66600400  1
  H  1034  1  0.28023900  0.13878500  0.59560100  1
  H  1039  1  0.27976100  0.03176900  0.67858200  1
  H  1040  1  0.24708100  0.02401800  0.68593500  1
  H  1041  1  0.28143700  0.06084100  0.71669500  1
  H  1042  1  0.27308100  0.02887400  0.72574700  1
  H  1043  1  0.24889600  0.05306700  0.72417700  1
  H  1045  1  0.23009800  0.14628400  0.59579400  1
  H  1047  1  0.30636800  0.09067600  0.66685500  1
  H  1055  1  0.75555800  0.14020500  0.44070700  1
  H  1060  1  0.75130300  0.03551900  0.35726400  1
  H  1061  1  0.78291100  0.02271100  0.35334600  1
  H  1062  1  0.75764500  0.06318400  0.31861600  1
  H  1063  1  0.76200400  0.03006100  0.31106300  1
  H  1064  1  0.78924700  0.05049900  0.31462600  1
  H  1066  1  0.80575700  0.14652400  0.43988600  1
  H  1068  1  0.72723600  0.09135800  0.37106600  1
  H  1076  1  0.28012900  0.42211400  0.15664100  1
  H  1081  1  0.28017300  0.33952100  0.04946300  1
  H  1082  1  0.24754800  0.33246100  0.04124900  1
  H  1083  1  0.28123000  0.30116100  0.07824000  1
  H  1084  1  0.27320100  0.29242700  0.04610100  1
  H  1085  1  0.24873400  0.29397600  0.07001100  1
  H  1087  1  0.22997600  0.42192100  0.16401000  1
  H  1089  1  0.30648400  0.35111800  0.10827000  1
  H  1097  1  0.75570900  0.57796200  0.15800300  1
  H  1102  1  0.75177200  0.66136900  0.05307600  1
  H  1103  1  0.78355300  0.66573200  0.04083700  1
  H  1104  1  0.75715700  0.69999200  0.08098600  1
  H  1105  1  0.76198300  0.70772200  0.04796900  1
  H  1106  1  0.78891700  0.70442600  0.06885600  1
  H  1108  1  0.80583100  0.57887100  0.16453700  1
  H  1110  1  0.72739600  0.64760000  0.10914300  1
  H  1118  1  0.28034900  0.57705000  0.88010100  1
  H  1123  1  0.27994600  0.66105100  0.98686400  1
  H  1124  1  0.24717700  0.66846900  0.99417800  1
  H  1125  1  0.28199000  0.69892900  0.95753100  1
  H  1126  1  0.27320100  0.70825500  0.98930000  1
  H  1127  1  0.24934300  0.70646100  0.96480000  1
  H  1129  1  0.23021200  0.57767500  0.87256300  1
  H  1131  1  0.30655500  0.64867600  0.92787900  1
  H  1139  1  0.75570900  0.42326900  0.87892200  1
  H  1144  1  0.75322300  0.34073600  0.98514700  1
  H  1145  1  0.78541000  0.33455200  0.99538900  1
  H  1146  1  0.75461100  0.30184900  0.95712000  1
  H  1147  1  0.76093000  0.29389900  0.98983400  1
  H  1148  1  0.78671400  0.29552900  0.96735800  1
  H  1150  1  0.80584200  0.42262700  0.87190000  1
  H  1152  1  0.72840300  0.35273700  0.92722000  1
  H  1160  1  0.44033700  0.86038500  0.75569000  1
  H  1165  1  0.35725800  0.96533100  0.75162800  1
  H  1166  1  0.35357000  0.97824400  0.78322100  1
  H  1167  1  0.31849500  0.93789000  0.75824100  1
  H  1168  1  0.31114200  0.97106500  0.76254500  1
  H  1169  1  0.31473000  0.95068500  0.78982500  1
  H  1171  1  0.43971000  0.85407800  0.80583100  1
  H  1173  1  0.37079600  0.90948800  0.72756000  1
  H  1181  1  0.59572300  0.86213400  0.27985100  1
  H  1186  1  0.67917400  0.96892800  0.27931300  1
  H  1187  1  0.68700100  0.97621500  0.24663000  1
  H  1188  1  0.71703300  0.93958700  0.28183000  1
  H  1189  1  0.72644700  0.97137000  0.27317600  1
  H  1190  1  0.72497500  0.94688000  0.24928800  1
  H  1192  1  0.59614100  0.85445200  0.22972600  1
  H  1194  1  0.66711100  0.91003000  0.30615200  1
  H  1202  1  0.59542200  0.13915700  0.75581300  1
  H  1207  1  0.67766400  0.03242300  0.75402500  1
  H  1208  1  0.68421600  0.02282100  0.78634800  1
  H  1209  1  0.71653100  0.06052300  0.75445500  1
  H  1210  1  0.72459000  0.02793700  0.76128700  1
  H  1211  1  0.72322800  0.05088700  0.78667000  1
  H  1213  1  0.59590800  0.14630300  0.80593300  1
  H  1215  1  0.66605800  0.09082700  0.72879600  1
  H  1223  1  0.44067200  0.13966400  0.28031600  1
  H  1228  1  0.35656000  0.03423600  0.28220100  1
  H  1229  1  0.35104700  0.02414500  0.24982000  1
  H  1230  1  0.31864100  0.06347700  0.27957300  1
  H  1231  1  0.30981900  0.03106000  0.27289000  1
  H  1232  1  0.31306900  0.05351500  0.24724500  1
  H  1234  1  0.44002100  0.14646900  0.23011300  1
  H  1236  1  0.37022100  0.09121300  0.30774900  1
  H  1244  1  0.87932200  0.26209500  0.59514600  1
  H  1249  1  0.98565600  0.26413700  0.67778900  1
  H  1250  1  0.99560700  0.23185500  0.68402300  1
  H  1251  1  0.95745700  0.26296100  0.71657200  1
  H  1252  1  0.99009600  0.25640700  0.72465100  1
  H  1253  1  0.96743900  0.23078600  0.72294100  1
  H  1255  1  0.87228900  0.21205200  0.59548600  1
  H  1257  1  0.92749500  0.28903800  0.66597700  1
  H  1265  1  0.87876000  0.73788700  0.44069200  1
  H  1270  1  0.98436000  0.73667500  0.35663900  1
  H  1271  1  0.99412600  0.76915600  0.35110300  1
  H  1272  1  0.95503300  0.73902100  0.31876500  1
  H  1273  1  0.98737500  0.74600700  0.30989200  1
  H  1274  1  0.96468400  0.77143800  0.31316900  1
  H  1276  1  0.87178200  0.78806300  0.44011300  1
  H  1278  1  0.92731000  0.71075400  0.37022900  1
  H  1286  1  0.15835400  0.26277400  0.43964100  1
  H  1291  1  0.05187600  0.26777900  0.35912700  1
  H  1292  1  0.03778700  0.23662100  0.35634500  1
  H  1293  1  0.07687800  0.26019900  0.31892100  1
  H  1294  1  0.04321200  0.25702600  0.31347600  1
  H  1295  1  0.06282200  0.22906600  0.31598900  1
  H  1297  1  0.16455200  0.21267300  0.43923200  1
  H  1299  1  0.10835200  0.29080300  0.37074600  1
  H  1307  1  0.15399900  0.73855400  0.59434800  1
  H  1312  1  0.04903100  0.74038500  0.68028900  1
  H  1313  1  0.04295600  0.77315500  0.68882600  1
  H  1314  1  0.07970300  0.73651700  0.71693800  1
  H  1315  1  0.04859700  0.74598800  0.72771800  1
  H  1316  1  0.07371800  0.76915500  0.72555800  1
  H  1318  1  0.16272900  0.78849100  0.59567800  1
  H  1320  1  0.10617000  0.71364000  0.66701100  1
  H  1328  1  0.59574800  0.73796600  0.15825800  1
  H  1333  1  0.67861300  0.73366500  0.05328800  1
  H  1334  1  0.68196100  0.76512500  0.03997800  1
  H  1335  1  0.71743200  0.74094400  0.08047100  1
  H  1336  1  0.72460100  0.74491500  0.04721400  1
  H  1337  1  0.72086100  0.77240500  0.06728500  1
  H  1339  1  0.59628400  0.78811700  0.16438600  1
  H  1341  1  0.66517100  0.70981700  0.10902700  1
  H  1349  1  0.44088100  0.26223600  0.15609000  1
  H  1354  1  0.35718600  0.26181500  0.04950500  1
  H  1355  1  0.34943300  0.22913300  0.04213400  1
  H  1356  1  0.31937200  0.26414100  0.07891900  1
  H  1357  1  0.30992700  0.25555400  0.04712900  1
  H  1358  1  0.31150700  0.23159800  0.07154600  1
  H  1360  1  0.44034500  0.21208700  0.16375700  1
  H  1362  1  0.36949400  0.28865800  0.10834800  1
  H  1370  1  0.44040200  0.73845400  0.87923900  1
  H  1375  1  0.35793300  0.73716700  0.98601300  1
  H  1376  1  0.35113800  0.76958900  0.99513800  1
  H  1377  1  0.31924900  0.73703000  0.95765000  1
  H  1378  1  0.31093400  0.74423400  0.99009400  1
  H  1379  1  0.31231300  0.76932400  0.96682900  1
  H  1381  1  0.43993400  0.78857200  0.87194400  1
  H  1383  1  0.36966800  0.71152000  0.92750700  1
  H  1391  1  0.59583900  0.26264800  0.87856200  1
  H  1396  1  0.67973400  0.26398900  0.98434300  1
  H  1397  1  0.68535200  0.23150600  0.99405600  1
  H  1398  1  0.71770800  0.26184400  0.95513500  1
  H  1399  1  0.72650100  0.25481900  0.98749100  1
  H  1400  1  0.72339000  0.22942700  0.96473300  1
  H  1402  1  0.59641100  0.21244600  0.87159900  1
  H  1404  1  0.66624500  0.28991000  0.92717900  1
  H  1412  1  0.15663300  0.57764600  0.75607700  1
  H  1417  1  0.04964800  0.66029300  0.75569000  1
  H  1418  1  0.04125800  0.66741000  0.78825200  1
  H  1419  1  0.07828200  0.69876300  0.75465400  1
  H  1420  1  0.04606400  0.70738100  0.76248700  1
  H  1421  1  0.06985200  0.70601500  0.78708500  1
  H  1423  1  0.16406100  0.57802400  0.80625500  1
  H  1425  1  0.10853000  0.64863200  0.72949100  1
  H  1433  1  0.15788800  0.42297400  0.28027000  1
  H  1438  1  0.05285000  0.33929100  0.28383000  1
  H  1439  1  0.04134500  0.33433000  0.25185700  1
  H  1440  1  0.08135500  0.30096000  0.27957200  1
  H  1441  1  0.04854600  0.29273400  0.27418800  1
  H  1442  1  0.06993800  0.29591800  0.24764000  1
  H  1444  1  0.16440600  0.42212300  0.23011900  1
  H  1446  1  0.10921300  0.35298900  0.30837600  1
  H  1454  1  0.87951100  0.42317400  0.75574600  1
  H  1459  1  0.98647800  0.33964200  0.75564500  1
  H  1460  1  0.99416600  0.33234500  0.78834600  1
  H  1461  1  0.95753100  0.30145400  0.75390200  1
  H  1462  1  0.98947300  0.29247700  0.76241700  1
  H  1463  1  0.96517100  0.29404100  0.78649100  1
  H  1465  1  0.87202700  0.42251500  0.80590600  1
  H  1467  1  0.92747400  0.35186300  0.72918800  1
  H  1475  1  0.87887000  0.57788100  0.28038200  1
  H  1480  1  0.98530500  0.66026600  0.28278500  1
  H  1481  1  0.99533500  0.66666667  0.25056100  1
  H  1482  1  0.95729700  0.69917800  0.28180100  1
  H  1483  1  0.98997300  0.70714400  0.27530300  1
  H  1484  1  0.96731900  0.70567200  0.24966400  1
  H  1486  1  0.87177000  0.57859700  0.23024100  1
  H  1488  1  0.92727500  0.64830000  0.30780100  1
  H  1496  1  0.75576300  0.13917500  0.59562600  1
  H  1501  1  0.75544300  0.03352000  0.68027700  1
  H  1502  1  0.78814000  0.02488700  0.68647700  1
  H  1503  1  0.75626100  0.06348300  0.71772300  1
  H  1504  1  0.76411500  0.03151800  0.72721500  1
  H  1505  1  0.78887100  0.05495000  0.72397800  1
  H  1507  1  0.80598500  0.14635000  0.59622000  1
  H  1509  1  0.72880400  0.09087300  0.66642300  1
  H  1517  1  0.28028700  0.14004800  0.44002800  1
  H  1522  1  0.28337900  0.03345700  0.35842100  1
  H  1523  1  0.25137300  0.02224800  0.35306300  1
  H  1524  1  0.28053600  0.06062200  0.31900600  1
  H  1525  1  0.27492700  0.02759600  0.31184200  1
  H  1526  1  0.24859900  0.04943000  0.31351500  1
  H  1528  1  0.23016200  0.14690700  0.43951100  1
  H  1530  1  0.30783400  0.09108900  0.37010500  1
  H  1538  1  0.75592100  0.86198600  0.44046000  1
  H  1543  1  0.75650700  0.96890500  0.35729800  1
  H  1544  1  0.78920400  0.97654700  0.34989200  1
  H  1545  1  0.75472700  0.93971200  0.31928000  1
  H  1546  1  0.76316600  0.97162400  0.31011400  1
  H  1547  1  0.78728500  0.94737200  0.31175200  1
  H  1549  1  0.80605600  0.85444600  0.44023500  1
  H  1551  1  0.72982100  0.91004200  0.36914900  1
  H  1559  1  0.28044900  0.86048100  0.59535100  1
  H  1564  1  0.28450500  0.96530000  0.67879800  1
  H  1565  1  0.25278600  0.97774400  0.68301200  1
  H  1566  1  0.27878300  0.93745800  0.71741600  1
  H  1567  1  0.27412100  0.97050900  0.72510300  1
  H  1568  1  0.24707700  0.94978100  0.72170400  1
  H  1570  1  0.23026000  0.85404100  0.59622400  1
  H  1572  1  0.30871800  0.90927400  0.66506700  1
  H  1580  1  0.75599800  0.57839300  0.87963600  1
  H  1585  1  0.75621600  0.66133700  0.98666100  1
  H  1586  1  0.78887600  0.66864500  0.99453100  1
  H  1587  1  0.75466900  0.69950600  0.95765400  1
  H  1588  1  0.76294000  0.70849200  0.98966100  1
  H  1589  1  0.78719500  0.70693500  0.96553700  1
  H  1591  1  0.80616200  0.57865100  0.87217400  1
  H  1593  1  0.72966600  0.64953800  0.92780800  1
  H  1601  1  0.28030300  0.42294100  0.87835000  1
  H  1606  1  0.28388800  0.33915200  0.98323800  1
  H  1607  1  0.25193000  0.33419900  0.99478700  1
  H  1608  1  0.27963900  0.30072900  0.95485900  1
  H  1609  1  0.27426400  0.29260300  0.98769700  1
  H  1610  1  0.24771200  0.29570800  0.96629900  1
  H  1612  1  0.23017500  0.42192100  0.87164100  1
  H  1614  1  0.30855900  0.35303900  0.92690500  1
  H  1622  1  0.75569200  0.42351600  0.15622600  1
  H  1627  1  0.75583200  0.33968300  0.04937600  1
  H  1628  1  0.78857600  0.33235500  0.04187800  1
  H  1629  1  0.75399200  0.30167800  0.07855800  1
  H  1630  1  0.76264900  0.29250400  0.04670900  1
  H  1631  1  0.78661600  0.29423600  0.07110300  1
  H  1633  1  0.80587900  0.42292400  0.16363000  1
  H  1635  1  0.72927900  0.35202100  0.10844500  1
  H  1643  1  0.28042000  0.57732000  0.15722200  1
  H  1648  1  0.28308200  0.65977200  0.05099500  1
  H  1649  1  0.25092700  0.66588300  0.04061300  1
  H  1650  1  0.28153100  0.69871500  0.07893000  1
  H  1651  1  0.27531900  0.70658800  0.04617600  1
  H  1652  1  0.24945300  0.70496400  0.06856000  1
  H  1654  1  0.23028500  0.57799700  0.16421100  1
  H  1656  1  0.30778800  0.64778900  0.10887600  1
  H  1664  1  0.59579000  0.14034900  0.28038400  1
  H  1669  1  0.67873100  0.03539100  0.28463900  1
  H  1670  1  0.68226200  0.02225600  0.25312200  1
  H  1671  1  0.71756700  0.06264800  0.27771400  1
  H  1672  1  0.72478600  0.02941800  0.27361000  1
  H  1673  1  0.72118000  0.04962900  0.24620300  1
  H  1675  1  0.59643600  0.14661200  0.23024400  1
  H  1677  1  0.66520200  0.09114500  0.30861000  1
  H  1685  1  0.44029400  0.13872900  0.75608900  1
  H  1690  1  0.35704800  0.03183800  0.75651300  1
  H  1691  1  0.34931900  0.02439600  0.78918300  1
  H  1692  1  0.31906000  0.06103000  0.75418500  1
  H  1693  1  0.30980200  0.02917200  0.76272800  1
  H  1694  1  0.31121200  0.05357000  0.78671400  1
  H  1696  1  0.43989900  0.14638100  0.80623400  1
  H  1698  1  0.36902300  0.09075900  0.72970700  1
  H  1706  1  0.44087100  0.86171000  0.28016900  1
  H  1711  1  0.35836300  0.96848000  0.28160300  1
  H  1712  1  0.35130900  0.97746300  0.24920100  1
  H  1713  1  0.31971000  0.94009200  0.28217900  1
  H  1714  1  0.31130800  0.97249000  0.27488100  1
  H  1715  1  0.31251500  0.94910400  0.24989100  1
  H  1717  1  0.44029300  0.85442300  0.23005700  1
  H  1719  1  0.37003800  0.90981800  0.30714600  1
  H  1727  1  0.59533100  0.86113500  0.75576100  1
  H  1732  1  0.67973700  0.96654600  0.75420200  1
  H  1733  1  0.68554500  0.97616500  0.78668300  1
  H  1734  1  0.71746900  0.93701200  0.75618500  1
  H  1735  1  0.72656700  0.96927500  0.76324100  1
  H  1736  1  0.72333000  0.94650000  0.78860500  1
  H  1738  1  0.59605300  0.85423200  0.80597300  1
  H  1740  1  0.66592100  0.90944000  0.72837200  1
  H  1748  1  0.15677400  0.73849800  0.44083600  1
  H  1753  1  0.05028000  0.73680700  0.35819700  1
  H  1754  1  0.04073400  0.76915800  0.35168400  1
  H  1755  1  0.07861500  0.73735400  0.31949800  1
  H  1756  1  0.04607900  0.74422300  0.31126400  1
  H  1757  1  0.06902800  0.76959000  0.31284500  1
  H  1759  1  0.16391900  0.78856400  0.44044900  1
  H  1761  1  0.10861300  0.71161500  0.36997400  1
  H  1769  1  0.15722100  0.26280100  0.59530000  1
  H  1774  1  0.05154500  0.26362600  0.67949000  1
  H  1775  1  0.04219000  0.23105700  0.68524200  1
  H  1776  1  0.08106900  0.26182100  0.71724100  1
  H  1777  1  0.04885000  0.25450700  0.72629900  1
  H  1778  1  0.07182200  0.22932400  0.72305200  1
  H  1780  1  0.16430100  0.21262700  0.59588700  1
  H  1782  1  0.10873000  0.28980800  0.66586900  1
  H  1790  1  0.87786200  0.73784200  0.59622600  1
  H  1795  1  0.98408800  0.73329600  0.67738800  1
  H  1796  1  0.99759400  0.76467000  0.68065000  1
  H  1797  1  0.95856400  0.73998900  0.71741300  1
  H  1798  1  0.99211400  0.74370800  0.72323000  1
  H  1799  1  0.97202600  0.77133600  0.72082100  1
  H  1801  1  0.87152000  0.78797000  0.59666400  1
  H  1803  1  0.92741400  0.70994400  0.66553600  1
  H  1811  1  0.88530700  0.26238000  0.44392600  1
  H  1816  1  0.98728200  0.25904300  0.35516100  1
  H  1817  1  0.99278500  0.22633500  0.34602300  1
  H  1818  1  0.95638900  0.26398300  0.31880700  1
  H  1819  1  0.98727700  0.25424100  0.30764700  1
  H  1820  1  0.96183400  0.23141100  0.30960700  1
  H  1822  1  0.87421800  0.21250300  0.44083300  1
  H  1824  1  0.93436800  0.28441300  0.36888500  1
  C  1  1  0.36037900  0.34259100  0.00352600  1
  C  2  1  0.34387400  0.35982100  0.98973400  1
  C  3  1  0.34594500  0.36210500  0.96242400  1
  C  4  1  0.36388100  0.34635000  0.94940500  1
  C  5  1  0.37978800  0.32844500  0.96227500  1
  C  6  1  0.37763900  0.32624800  0.98958500  1
  C  7  1  0.32561200  0.37418900  0.00397000  1
  C  8  1  0.39218100  0.30801000  0.00367300  1
  C  10  1  0.35987700  0.34196400  0.03119800  1
  C  11  1  0.34291900  0.35861900  0.04514400  1
  C  12  1  0.34407400  0.35975600  0.07257800  1
  C  13  1  0.36150900  0.34336800  0.08550700  1
  C  14  1  0.37792100  0.32606300  0.07242900  1
  C  15  1  0.37667500  0.32502200  0.04499500  1
  C  16  1  0.32513600  0.37358900  0.03092400  1
  C  18  1  0.39166400  0.30737300  0.03062500  1
  C  23  1  0.39790900  0.31283800  0.94607500  1
  C  26  1  0.33020300  0.38021800  0.94635100  1
  C  29  1  0.32854200  0.37793100  0.08881400  1
  C  32  1  0.39620200  0.31053100  0.08854300  1
  C  35  1  0.67621900  0.65869400  0.00496700  1
  C  36  1  0.69321600  0.64205400  0.99104500  1
  C  37  1  0.69214500  0.64096100  0.96360600  1
  C  38  1  0.67475500  0.65737900  0.95065100  1
  C  39  1  0.65831400  0.67467400  0.96370500  1
  C  40  1  0.65947300  0.67566600  0.99114400  1
  C  41  1  0.71095100  0.62706000  0.00529900  1
  C  42  1  0.64444200  0.69329300  0.00549500  1
  C  44  1  0.67562700  0.65801900  0.03263600  1
  C  45  1  0.69208400  0.64076200  0.04645100  1
  C  46  1  0.68993500  0.63844800  0.07375200  1
  C  47  1  0.67197000  0.65419000  0.08674300  1
  C  48  1  0.65610400  0.67211700  0.07385000  1
  C  49  1  0.65833000  0.67434800  0.04654900  1
  C  50  1  0.71038000  0.62640600  0.03225000  1
  C  52  1  0.64383500  0.69261000  0.03244400  1
  C  57  1  0.64003900  0.69019300  0.94757200  1
  C  60  1  0.70767000  0.62276500  0.94738700  1
  C  63  1  0.70568400  0.62036100  0.08984800  1
  C  66  1  0.63800000  0.68775900  0.09003200  1
  C  69  1  0.67621200  0.34206800  0.03169600  1
  C  70  1  0.69289800  0.35899800  0.04564200  1
  C  71  1  0.69139100  0.36047300  0.07304100  1
  C  72  1  0.67384100  0.34420200  0.08596000  1
  C  73  1  0.65769700  0.32663800  0.07289900  1
  C  74  1  0.65931300  0.32523200  0.04549900  1
  C  75  1  0.71073900  0.37393000  0.03146300  1
  C  76  1  0.64460000  0.30731900  0.03117300  1
  C  78  1  0.67610400  0.34230000  0.00401300  1
  C  79  1  0.69264500  0.35948900  0.99021200  1
  C  80  1  0.69093400  0.36138700  0.96284800  1
  C  81  1  0.67333000  0.34527600  0.94980400  1
  C  82  1  0.65734600  0.32745600  0.96270600  1
  C  83  1  0.65915100  0.32563900  0.99006600  1
  C  84  1  0.71058500  0.37420600  0.00450200  1
  C  86  1  0.64454600  0.30749300  0.00420800  1
  C  91  1  0.63949500  0.31100100  0.08899600  1
  C  94  1  0.70688700  0.37871000  0.08923000  1
  C  97  1  0.70650900  0.37964000  0.94675800  1
  C  100  1  0.63922700  0.31183600  0.94650600  1
  C  103  1  0.36004500  0.65829500  0.03216100  1
  C  104  1  0.34353100  0.64107100  0.04595100  1
  C  105  1  0.34529000  0.63911500  0.07330700  1
  C  106  1  0.36292100  0.65519000  0.08635700  1
  C  107  1  0.37887800  0.67304400  0.07346900  1
  C  108  1  0.37702200  0.67492500  0.04611500  1
  C  109  1  0.32557300  0.62637700  0.03166000  1
  C  110  1  0.39160200  0.69310200  0.03198900  1
  C  112  1  0.35987900  0.65859800  0.00447900  1
  C  113  1  0.34316800  0.64170100  0.99052300  1
  C  114  1  0.34462200  0.64029000  0.96311800  1
  C  115  1  0.36215700  0.65658000  0.95020700  1
  C  116  1  0.37832800  0.67411500  0.96327800  1
  C  117  1  0.37675200  0.67546700  0.99068300  1
  C  118  1  0.32536100  0.62672200  0.00470100  1
  C  120  1  0.39148600  0.69335100  0.00502600  1
  C  125  1  0.39698900  0.68866800  0.08967200  1
  C  128  1  0.32969900  0.62086500  0.08938800  1
  C  131  1  0.32913200  0.62203900  0.94693400  1
  C  134  1  0.39655100  0.68973800  0.94719000  1
  C  137  1  0.00491200  0.34272000  0.35973600  1
  C  138  1  0.99088000  0.32590900  0.37645900  1
  C  139  1  0.96344000  0.32697800  0.37737300  1
  C  140  1  0.95059500  0.34453200  0.36104600  1
  C  141  1  0.96376400  0.36087800  0.34374800  1
  C  142  1  0.99119000  0.35946400  0.34268000  1
  C  143  1  0.00499000  0.30852500  0.39198400  1
  C  144  1  0.00562900  0.37424900  0.32492000  1
  C  146  1  0.03258300  0.34314100  0.36042500  1
  C  147  1  0.04629200  0.32682700  0.37790900  1
  C  148  1  0.07363000  0.32872300  0.38007700  1
  C  149  1  0.08672400  0.34639500  0.36408000  1
  C  150  1  0.07391300  0.36220700  0.34605000  1
  C  151  1  0.04659800  0.36015500  0.34388500  1
  C  152  1  0.03194100  0.30899300  0.39270700  1
  C  154  1  0.03258200  0.37458400  0.32550400  1
  C  159  1  0.94771300  0.37914000  0.32813100  1
  C  162  1  0.94733900  0.31106700  0.39533400  1
  C  165  1  0.08970900  0.31290700  0.39812900  1
  C  168  1  0.09016500  0.38018500  0.33033600  1
  C  171  1  0.00357600  0.65781500  0.67583500  1
  C  172  1  0.98976300  0.67419800  0.65850500  1
  C  173  1  0.96243700  0.67218400  0.65634300  1
  C  174  1  0.94943700  0.65438300  0.67226900  1
  C  175  1  0.96233900  0.63854800  0.69021700  1
  C  176  1  0.98965900  0.64066600  0.69231900  1
  C  177  1  0.00399400  0.69227800  0.64389800  1
  C  178  1  0.00377900  0.62619000  0.71058500  1
  C  180  1  0.03124800  0.65830500  0.67641800  1
  C  181  1  0.04517000  0.67524100  0.65972400  1
  C  182  1  0.07260000  0.67413400  0.65858800  1
  C  183  1  0.08555600  0.65661700  0.67486900  1
  C  184  1  0.07250500  0.64020900  0.69220300  1
  C  185  1  0.04507600  0.64151600  0.69334500  1
  C  186  1  0.03094200  0.69285700  0.64457200  1
  C  188  1  0.03073600  0.62659500  0.71107500  1
  C  193  1  0.94616400  0.62048500  0.70591300  1
  C  196  1  0.94631300  0.68792300  0.63826600  1
  C  199  1  0.08868400  0.68984600  0.64043200  1
  C  202  1  0.08864100  0.62190600  0.70769700  1
  C  205  1  0.03185100  0.65864000  0.35993900  1
  C  206  1  0.04567700  0.67538600  0.37690600  1
  C  207  1  0.07307600  0.67394700  0.37850500  1
  C  208  1  0.08611400  0.65644100  0.36227600  1
  C  209  1  0.07317400  0.64026800  0.34465100  1
  C  210  1  0.04577400  0.64177700  0.34316800  1
  C  211  1  0.03137700  0.69323700  0.39172000  1
  C  212  1  0.03157000  0.62694000  0.32526500  1
  C  214  1  0.00416700  0.65843400  0.36006400  1
  C  215  1  0.99024700  0.67502100  0.37711100  1
  C  216  1  0.96288500  0.67321400  0.37893000  1
  C  217  1  0.94995800  0.65549200  0.36285500  1
  C  218  1  0.96297800  0.63946200  0.34516000  1
  C  219  1  0.99034100  0.64133900  0.34344600  1
  C  220  1  0.00441300  0.69308300  0.39179500  1
  C  222  1  0.00460800  0.62669700  0.32542500  1
  C  227  1  0.08934300  0.62207400  0.32907800  1
  C  230  1  0.08917600  0.68951300  0.39676500  1
  C  233  1  0.94670600  0.68875100  0.39713800  1
  C  236  1  0.94685700  0.62128700  0.32952200  1
  C  239  1  0.03184700  0.34218600  0.67601700  1
  C  240  1  0.04576500  0.32558100  0.65898500  1
  C  241  1  0.07313200  0.32734200  0.65720900  1
  C  242  1  0.08606200  0.34504300  0.67330300  1
  C  243  1  0.07304400  0.36109400  0.69097800  1
  C  244  1  0.04567400  0.35925600  0.69266000  1
  C  245  1  0.03159000  0.30754700  0.64427600  1
  C  246  1  0.03140700  0.37391500  0.71066400  1
  C  248  1  0.00416300  0.34202800  0.67610000  1
  C  249  1  0.99033400  0.32531300  0.65910300  1
  C  250  1  0.96293900  0.32679600  0.65746600  1
  C  251  1  0.94990600  0.34432300  0.67367300  1
  C  252  1  0.96284600  0.36046300  0.69132900  1
  C  253  1  0.99024100  0.35890700  0.69285500  1
  C  254  1  0.00462600  0.30745000  0.64429600  1
  C  256  1  0.00444400  0.37371600  0.71078500  1
  C  261  1  0.08916400  0.37927700  0.70660700  1
  C  264  1  0.08930800  0.31181900  0.63898800  1
  C  267  1  0.94684300  0.31123500  0.63919800  1
  C  270  1  0.94668700  0.37865400  0.70691600  1
  C  273  1  0.36010700  0.98677100  0.35992900  1
  C  274  1  0.37707000  0.97296700  0.34316000  1
  C  275  1  0.37866900  0.94556600  0.34456800  1
  C  276  1  0.36245200  0.93250600  0.36206400  1
  C  277  1  0.34483800  0.94542500  0.37826400  1
  C  278  1  0.34333400  0.97282600  0.37677300  1
  C  279  1  0.39185800  0.98728800  0.32530500  1
  C  280  1  0.32540200  0.98701000  0.39159600  1
  C  282  1  0.36022200  0.01445400  0.36016100  1
  C  283  1  0.37724800  0.02839500  0.34356900  1
  C  284  1  0.37905100  0.05575700  0.34538800  1
  C  285  1  0.36299200  0.06866200  0.36313500  1
  C  286  1  0.34530100  0.05562400  0.37915500  1
  C  287  1  0.34359800  0.02825900  0.37726500  1
  C  288  1  0.39192200  0.01425200  0.32548300  1
  C  290  1  0.32558100  0.01397300  0.39189100  1
  C  295  1  0.32928400  0.92921600  0.39643600  1
  C  298  1  0.39690400  0.92946700  0.32897800  1
  C  301  1  0.39719400  0.07195300  0.32979600  1
  C  304  1  0.32958500  0.07173700  0.39726700  1
  C  307  1  0.67591300  0.98624100  0.67590300  1
  C  308  1  0.65890100  0.97231300  0.69252000  1
  C  309  1  0.65713200  0.94494700  0.69075900  1
  C  310  1  0.67321000  0.93202400  0.67303900  1
  C  311  1  0.69088600  0.94505100  0.65699100  1
  C  312  1  0.69255800  0.97242100  0.65882900  1
  C  313  1  0.64420100  0.98647800  0.71056900  1
  C  314  1  0.71056500  0.98669800  0.64418200  1
  C  316  1  0.67599600  0.01392500  0.67607500  1
  C  317  1  0.65900700  0.02774400  0.69280500  1
  C  318  1  0.65738300  0.05514000  0.69134700  1
  C  319  1  0.67359800  0.06818300  0.67383700  1
  C  320  1  0.69124100  0.05525200  0.65768000  1
  C  321  1  0.69276300  0.02785600  0.65921300  1
  C  322  1  0.64422200  0.01344200  0.71067900  1
  C  324  1  0.71071800  0.01366100  0.64442700  1
  C  329  1  0.70658400  0.92893000  0.63887400  1
  C  332  1  0.63897800  0.92876100  0.70634900  1
  C  335  1  0.63915900  0.07125600  0.70693100  1
  C  338  1  0.70682200  0.07145100  0.63952200  1
  C  341  1  0.35979400  0.01357300  0.67628900  1
  C  342  1  0.37646100  0.02743300  0.69330800  1
  C  343  1  0.37761200  0.05487200  0.69227800  1
  C  344  1  0.36122300  0.06788900  0.67490600  1
  C  345  1  0.34392400  0.05489500  0.65842400  1
  C  346  1  0.34286100  0.02745600  0.65955400  1
  C  347  1  0.39142800  0.01311900  0.71102100  1
  C  348  1  0.32520100  0.01316900  0.64450200  1
  C  350  1  0.36039800  0.98590100  0.67566400  1
  C  351  1  0.37763200  0.97202400  0.69209100  1
  C  352  1  0.37988300  0.94472100  0.68991400  1
  C  353  1  0.36409300  0.93178900  0.67194500  1
  C  354  1  0.34619000  0.94474100  0.65609600  1
  C  355  1  0.34402600  0.97204700  0.65835700  1
  C  356  1  0.39204000  0.98616700  0.71039400  1
  C  358  1  0.32578900  0.98621600  0.64389300  1
  C  363  1  0.32844300  0.07108200  0.64016000  1
  C  366  1  0.39581100  0.07104500  0.70785000  1
  C  369  1  0.39798000  0.92858300  0.70561000  1
  C  372  1  0.33054400  0.92860400  0.63794800  1
  C  375  1  0.67561600  0.01478700  0.36043400  1
  C  376  1  0.65835300  0.02865300  0.34402800  1
  C  377  1  0.65604600  0.05594900  0.34624800  1
  C  378  1  0.67180200  0.06888500  0.36424200  1
  C  379  1  0.68973200  0.05594400  0.38006800  1
  C  380  1  0.69195600  0.02864700  0.37776500  1
  C  381  1  0.64397400  0.01450900  0.32570500  1
  C  382  1  0.71022200  0.01449300  0.39220600  1
  C  384  1  0.67628500  0.98711800  0.35975900  1
  C  385  1  0.65964700  0.97325200  0.34271700  1
  C  386  1  0.65855500  0.94580900  0.34370200  1
  C  387  1  0.67495800  0.93279800  0.36106500  1
  C  388  1  0.69223400  0.94580200  0.37756600  1
  C  389  1  0.69324500  0.97324500  0.37647200  1
  C  390  1  0.64464900  0.98756000  0.32502900  1
  C  392  1  0.71087800  0.98754500  0.39154200  1
  C  397  1  0.70538300  0.07208400  0.39820600  1
  C  400  1  0.63796700  0.07208300  0.33052800  1
  C  403  1  0.64035300  0.92963600  0.32813300  1
  C  406  1  0.70772000  0.92962300  0.39583000  1
  C  409  1  0.86590500  0.84797900  0.50446700  1
  C  410  1  0.84917600  0.86493500  0.49060100  1
  C  411  1  0.84994200  0.86581000  0.46314900  1
  C  412  1  0.86725300  0.84936400  0.45012700  1
  C  413  1  0.88353000  0.83187100  0.46311800  1
  C  414  1  0.88268400  0.83110000  0.49057100  1
  C  415  1  0.83210700  0.88067800  0.50485500  1
  C  416  1  0.89828000  0.81386600  0.50479000  1
  C  418  1  0.86587600  0.84791900  0.53215000  1
  C  419  1  0.84909900  0.86479800  0.54605000  1
  C  420  1  0.84978800  0.86553500  0.57351100  1
  C  421  1  0.86709500  0.84906300  0.58650300  1
  C  422  1  0.88342600  0.83165300  0.57347200  1
  C  423  1  0.88262800  0.83098400  0.54601600  1
  C  424  1  0.83205600  0.88060000  0.53182200  1
  C  426  1  0.89824900  0.81380600  0.53175400  1
  C  431  1  0.90023400  0.81460100  0.44701800  1
  C  434  1  0.83283400  0.88270100  0.44705900  1
  C  437  1  0.83253900  0.88224800  0.58962400  1
  C  440  1  0.90007900  0.81430400  0.58953700  1
  C  443  1  0.17026100  0.15278300  0.50385600  1
  C  444  1  0.18704600  0.13591800  0.48994700  1
  C  445  1  0.18634700  0.13518100  0.46248900  1
  C  446  1  0.16901800  0.15163600  0.44950300  1
  C  447  1  0.15267300  0.16902700  0.46254100  1
  C  448  1  0.15348900  0.16970300  0.48999800  1
  C  449  1  0.20410500  0.12012900  0.50417000  1
  C  450  1  0.13786300  0.18687200  0.50426700  1
  C  452  1  0.17024000  0.15272100  0.53153800  1
  C  453  1  0.18698900  0.13577900  0.54539900  1
  C  454  1  0.18623000  0.13489700  0.57285100  1
  C  455  1  0.16891000  0.15133100  0.58587800  1
  C  456  1  0.15260300  0.16879900  0.57289400  1
  C  457  1  0.15344900  0.16958200  0.54544300  1
  C  458  1  0.20407100  0.12005400  0.53113700  1
  C  460  1  0.13783400  0.18680500  0.53123000  1
  C  465  1  0.13600400  0.18637000  0.44648400  1
  C  468  1  0.20360200  0.11847800  0.44637200  1
  C  471  1  0.20334700  0.11801200  0.58893500  1
  C  474  1  0.13588300  0.18604600  0.58900300  1
  C  477  1  0.17004000  0.84869600  0.53201700  1
  C  478  1  0.18710300  0.86531700  0.54588100  1
  C  479  1  0.18642500  0.86613600  0.57333900  1
  C  480  1  0.16879900  0.85002700  0.58636600  1
  C  481  1  0.15212000  0.83290900  0.57337800  1
  C  482  1  0.15292900  0.83215500  0.54592100  1
  C  483  1  0.20440800  0.88079900  0.53161700  1
  C  484  1  0.13696300  0.81526600  0.53169600  1
  C  486  1  0.17006400  0.84864400  0.50433200  1
  C  487  1  0.18708300  0.86528000  0.49042800  1
  C  488  1  0.18637400  0.86607700  0.46297100  1
  C  489  1  0.16890900  0.84977100  0.44997900  1
  C  490  1  0.15235100  0.83257000  0.46300400  1
  C  491  1  0.15305100  0.83197200  0.49046600  1
  C  492  1  0.20437700  0.88080500  0.50465100  1
  C  494  1  0.13706300  0.81513700  0.50473000  1
  C  499  1  0.13502800  0.81599000  0.58946800  1
  C  502  1  0.20391100  0.88267000  0.58939100  1
  C  505  1  0.20363300  0.88279400  0.44686000  1
  C  508  1  0.13559100  0.81533000  0.44692200  1
  C  511  1  0.86608000  0.15191000  0.53174300  1
  C  512  1  0.84903800  0.13533700  0.54569200  1
  C  513  1  0.84979000  0.13456900  0.57314800  1
  C  514  1  0.86728600  0.15087600  0.58609600  1
  C  515  1  0.88386800  0.16802200  0.57302700  1
  C  516  1  0.88316200  0.16855200  0.54556200  1
  C  517  1  0.83168200  0.11983700  0.53151500  1
  C  518  1  0.89922700  0.18527300  0.53125100  1
  C  520  1  0.86606100  0.15182200  0.50405900  1
  C  521  1  0.84892200  0.13523900  0.49024100  1
  C  522  1  0.84955800  0.13437900  0.46278400  1
  C  523  1  0.86719700  0.15043100  0.44970700  1
  C  524  1  0.88397600  0.16748600  0.46264900  1
  C  525  1  0.88323100  0.16826200  0.49010800  1
  C  526  1  0.83160300  0.11981600  0.50455000  1
  C  528  1  0.89932300  0.18506900  0.50428600  1
  C  533  1  0.90063300  0.18529500  0.58907000  1
  C  536  1  0.83252900  0.11789700  0.58930000  1
  C  539  1  0.83203300  0.11784500  0.44677700  1
  C  542  1  0.90126200  0.18417500  0.44653200  1
  C  545  1  0.50407800  0.84856900  0.86587400  1
  C  546  1  0.49016500  0.83183700  0.88279000  1
  C  547  1  0.46270500  0.83251700  0.88350100  1
  C  548  1  0.44972400  0.84978800  0.86697900  1
  C  549  1  0.46276700  0.86608600  0.84954500  1
  C  550  1  0.49022500  0.86528800  0.84889900  1
  C  551  1  0.50438300  0.81484400  0.89865400  1
  C  552  1  0.50449600  0.88087600  0.83170000  1
  C  554  1  0.53176000  0.84858400  0.86593800  1
  C  555  1  0.54561600  0.83188100  0.88292900  1
  C  556  1  0.57307100  0.83260800  0.88377900  1
  C  557  1  0.58610400  0.84987100  0.86729000  1
  C  558  1  0.57312500  0.86613300  0.84977600  1
  C  559  1  0.54567200  0.86531500  0.84901800  1
  C  560  1  0.53134900  0.81486900  0.89872300  1
  C  562  1  0.53146100  0.88089400  0.83176100  1
  C  567  1  0.44671200  0.88269500  0.83214100  1
  C  570  1  0.44657700  0.81532000  0.90025900  1
  C  573  1  0.58914800  0.81547800  0.90065800  1
  C  576  1  0.58924000  0.88276700  0.83244800  1
  C  579  1  0.50435800  0.15211400  0.17018900  1
  C  580  1  0.49049900  0.16883000  0.15321500  1
  C  581  1  0.46304500  0.16810300  0.15236900  1
  C  582  1  0.45001400  0.15082700  0.16884600  1
  C  583  1  0.46299600  0.13455100  0.18634300  1
  C  584  1  0.49045100  0.13537400  0.18710100  1
  C  585  1  0.50476300  0.18585400  0.13742900  1
  C  586  1  0.50466200  0.11979100  0.20435200  1
  C  588  1  0.53204000  0.15212900  0.17024600  1
  C  589  1  0.54595000  0.16887400  0.15334100  1
  C  590  1  0.57341000  0.16818600  0.15261700  1
  C  591  1  0.58639300  0.15090700  0.16912900  1
  C  592  1  0.57335300  0.13459200  0.18654600  1
  C  593  1  0.54589600  0.13539700  0.18720700  1
  C  594  1  0.53172900  0.18588200  0.13749700  1
  C  596  1  0.53162700  0.11980200  0.20440200  1
  C  601  1  0.44688500  0.11791800  0.20367300  1
  C  604  1  0.44696600  0.18524700  0.13550700  1
  C  607  1  0.58953500  0.18539300  0.13586800  1
  C  610  1  0.58941000  0.11798700  0.20395100  1
  C  613  1  0.53189100  0.15257300  0.86596500  1
  C  614  1  0.54585400  0.16947500  0.88267000  1
  C  615  1  0.57330800  0.16869500  0.88342800  1
  C  616  1  0.58623900  0.15120800  0.86709900  1
  C  617  1  0.57315200  0.13475500  0.84984400  1
  C  618  1  0.54569600  0.13560100  0.84920200  1
  C  619  1  0.53169100  0.18673900  0.89828400  1
  C  620  1  0.53137400  0.11981800  0.83221900  1
  C  622  1  0.50420900  0.15263100  0.86603200  1
  C  623  1  0.49040800  0.16960600  0.88279500  1
  C  624  1  0.46295400  0.16895100  0.88368300  1
  C  625  1  0.44986300  0.15150500  0.86743800  1
  C  626  1  0.46278600  0.13496600  0.85014100  1
  C  627  1  0.49024300  0.13570700  0.84935200  1
  C  628  1  0.50472600  0.18681100  0.89833600  1
  C  630  1  0.50440800  0.11986400  0.83229800  1
  C  635  1  0.58917500  0.11794100  0.83260800  1
  C  638  1  0.58947300  0.18595300  0.90008500  1
  C  641  1  0.44694900  0.18636800  0.90032400  1
  C  644  1  0.44660200  0.11814100  0.83305900  1
  C  647  1  0.53190700  0.84810000  0.16992200  1
  C  648  1  0.54572300  0.83110400  0.15319400  1
  C  649  1  0.57317500  0.83177900  0.15230800  1
  C  650  1  0.58625200  0.84925900  0.16852800  1
  C  651  1  0.57331400  0.86582200  0.18579100  1
  C  652  1  0.54585600  0.86506800  0.18657200  1
  C  653  1  0.53141900  0.81385800  0.13768500  1
  C  654  1  0.53167700  0.88094000  0.20358700  1
  C  656  1  0.50422300  0.84813500  0.16999100  1
  C  657  1  0.49027700  0.83118900  0.15331700  1
  C  658  1  0.46282100  0.83194300  0.15255400  1
  C  659  1  0.44987500  0.84943300  0.16886700  1
  C  660  1  0.46294600  0.86593200  0.18608900  1
  C  661  1  0.49040500  0.86512400  0.18672400  1
  C  662  1  0.50445400  0.81390800  0.13773400  1
  C  664  1  0.50471100  0.88095700  0.20367000  1
  C  669  1  0.58948300  0.88267000  0.20286500  1
  C  672  1  0.58919400  0.81433500  0.13570800  1
  C  675  1  0.44666900  0.81464500  0.13592500  1
  C  678  1  0.44690800  0.88274900  0.20331100  1
  C  681  1  0.86600500  0.48663400  0.86599900  1
  C  682  1  0.88282400  0.47271600  0.84917100  1
  C  683  1  0.88357900  0.44525900  0.84988100  1
  C  684  1  0.86714300  0.43228200  0.86723600  1
  C  685  1  0.84978600  0.44532700  0.88361500  1
  C  686  1  0.84914800  0.47278500  0.88284000  1
  C  687  1  0.89855800  0.48692500  0.83205500  1
  C  688  1  0.83207600  0.48706000  0.89856500  1
  C  690  1  0.86605500  0.51431600  0.86599900  1
  C  691  1  0.88289800  0.52816500  0.84914400  1
  C  692  1  0.88372300  0.55562100  0.84982500  1
  C  693  1  0.86739000  0.56866400  0.86722400  1
  C  694  1  0.85003100  0.55569100  0.88366100  1
  C  695  1  0.84926900  0.52823400  0.88285900  1
  C  696  1  0.89857700  0.51389200  0.83202600  1
  C  698  1  0.83214100  0.51402700  0.89858300  1
  C  703  1  0.83247300  0.42927100  0.90032200  1
  C  706  1  0.90033800  0.42913200  0.83267600  1
  C  709  1  0.90036100  0.57167800  0.83245000  1
  C  712  1  0.83289000  0.57182500  0.90047500  1
  C  715  1  0.17009900  0.48630000  0.17014600  1
  C  716  1  0.15326000  0.47245700  0.18701000  1
  C  717  1  0.15243800  0.44500100  0.18634100  1
  C  718  1  0.16877400  0.43195200  0.16894600  1
  C  719  1  0.18612500  0.44492200  0.15250000  1
  C  720  1  0.18688800  0.47237800  0.15329400  1
  C  721  1  0.13758000  0.48673600  0.20412100  1
  C  722  1  0.20401700  0.48658000  0.13756700  1
  C  724  1  0.17014300  0.51398400  0.17013100  1
  C  725  1  0.15332100  0.52790600  0.18695100  1
  C  726  1  0.15255700  0.55536500  0.18622300  1
  C  727  1  0.16899600  0.56833400  0.16886600  1
  C  728  1  0.18634900  0.55528400  0.15248500  1
  C  729  1  0.18699700  0.52782700  0.15328200  1
  C  730  1  0.13759500  0.51370300  0.20407800  1
  C  732  1  0.20407500  0.51354600  0.13756600  1
  C  737  1  0.20327400  0.42878300  0.13569800  1
  C  740  1  0.13581000  0.42894300  0.20372700  1
  C  743  1  0.13578600  0.57149500  0.20340900  1
  C  746  1  0.20366800  0.57133300  0.13578100  1
  C  749  1  0.86586100  0.51461100  0.16997900  1
  C  750  1  0.88269500  0.52844600  0.18685800  1
  C  751  1  0.88344900  0.55590700  0.18627300  1
  C  752  1  0.86701400  0.56896800  0.16898100  1
  C  753  1  0.84965100  0.55600300  0.15255100  1
  C  754  1  0.84899300  0.52854300  0.15321600  1
  C  755  1  0.89843600  0.51415200  0.20389700  1
  C  756  1  0.83188900  0.51434500  0.13745400  1
  C  758  1  0.86589300  0.48693100  0.16986000  1
  C  759  1  0.88276300  0.47299900  0.18662200  1
  C  760  1  0.88358000  0.44554700  0.18580500  1
  C  761  1  0.86718800  0.43259100  0.16839800  1
  C  762  1  0.84980500  0.44564700  0.15205600  1
  C  763  1  0.84907200  0.47309800  0.15296800  1
  C  764  1  0.89847300  0.48718500  0.20377900  1
  C  766  1  0.83193300  0.48738000  0.13732600  1
  C  771  1  0.83228200  0.57213000  0.13598300  1
  C  774  1  0.90017000  0.57194600  0.20358300  1
  C  777  1  0.90035700  0.42940400  0.20296200  1
  C  780  1  0.83257300  0.42959900  0.13525600  1
  C  783  1  0.17011100  0.51375900  0.86620200  1
  C  784  1  0.15328800  0.52768800  0.84939300  1
  C  785  1  0.15249300  0.55514300  0.85017200  1
  C  786  1  0.16887000  0.56810000  0.86759800  1
  C  787  1  0.18619800  0.55504600  0.88399900  1
  C  788  1  0.18690600  0.52759200  0.88311900  1
  C  789  1  0.13758700  0.51349600  0.83223000  1
  C  790  1  0.20399000  0.51330900  0.89882200  1
  C  792  1  0.17012200  0.48607600  0.86610900  1
  C  793  1  0.15330100  0.47223900  0.84921900  1
  C  794  1  0.15252400  0.44477900  0.84982800  1
  C  795  1  0.16894800  0.43171900  0.86713000  1
  C  796  1  0.18629600  0.44468400  0.88357900  1
  C  797  1  0.18695500  0.47214500  0.88290900  1
  C  798  1  0.13759100  0.48653200  0.83214900  1
  C  800  1  0.20402800  0.48634500  0.89870400  1
  C  805  1  0.20339800  0.57108800  0.90084100  1
  C  808  1  0.13573900  0.57128300  0.83298000  1
  C  811  1  0.13580500  0.42873700  0.83251700  1
  C  814  1  0.20365400  0.42855400  0.90016000  1
  C  817  1  0.40231300  0.26909600  0.92856800  1
  C  819  1  0.43095100  0.25743300  0.89437400  1
  C  820  1  0.43254600  0.23199400  0.90382300  1
  C  822  1  0.40426500  0.24385600  0.93882300  1
  C  823  1  0.39063800  0.23618700  0.96044700  1
  C  827  1  0.35114700  0.24700400  0.97885000  1
  C  828  1  0.32214800  0.24751500  0.97256000  1
  C  838  1  0.63512200  0.73368400  0.92956300  1
  C  840  1  0.60523900  0.74432100  0.89607500  1
  C  841  1  0.60395100  0.77003000  0.90479900  1
  C  843  1  0.63360800  0.75927500  0.93903700  1
  C  844  1  0.64817600  0.76779500  0.95968300  1
  C  848  1  0.68732900  0.75690100  0.97905800  1
  C  849  1  0.71566900  0.75171600  0.97194800  1
  C  859  1  0.63496400  0.26750300  0.10706500  1
  C  861  1  0.60556200  0.25653600  0.14086100  1
  C  862  1  0.60415900  0.23091200  0.13190700  1
  C  864  1  0.63329400  0.24202200  0.09733800  1
  C  865  1  0.64743200  0.23376300  0.07629300  1
  C  869  1  0.68613900  0.24529900  0.05651100  1
  C  870  1  0.71486100  0.24923200  0.06283700  1
  C  880  1  0.40144700  0.73228600  0.10746900  1
  C  882  1  0.43058300  0.74355400  0.14138600  1
  C  883  1  0.43201000  0.76911400  0.13224800  1
  C  885  1  0.40312800  0.75769700  0.09757900  1
  C  886  1  0.38899800  0.76571400  0.07640000  1
  C  890  1  0.34938600  0.75522700  0.05795300  1
  C  891  1  0.32069200  0.75269800  0.06508700  1
  C  901  1  0.92923100  0.38363200  0.28482800  1
  C  903  1  0.89554500  0.41324300  0.27408000  1
  C  904  1  0.90435600  0.41460500  0.24840600  1
  C  906  1  0.93878500  0.38521600  0.25927500  1
  C  907  1  0.95966600  0.37092500  0.25086100  1
  C  911  1  0.97950000  0.33213100  0.26209100  1
  C  912  1  0.97294900  0.30356200  0.26672000  1
  C  922  1  0.92859900  0.61624700  0.74964900  1
  C  924  1  0.89471500  0.58722100  0.76126000  1
  C  925  1  0.90396000  0.58597500  0.78679000  1
  C  927  1  0.93863600  0.61469400  0.77501000  1
  C  928  1  0.95989300  0.62883100  0.78280500  1
  C  932  1  0.97812200  0.66838400  0.77177200  1
  C  933  1  0.97111100  0.69714500  0.76964600  1
  C  943  1  0.10700200  0.61719400  0.28541800  1
  C  945  1  0.14057600  0.58748300  0.27457800  1
  C  946  1  0.13175600  0.58620800  0.24890200  1
  C  948  1  0.09743000  0.61569500  0.25986300  1
  C  949  1  0.07674300  0.63032500  0.25149000  1
  C  953  1  0.05697200  0.66926400  0.26230700  1
  C  954  1  0.06372200  0.69775600  0.26713300  1
  C  964  1  0.10715900  0.38366900  0.75016000  1
  C  966  1  0.14093000  0.41302100  0.76131800  1
  C  967  1  0.13193700  0.41429200  0.78693600  1
  C  969  1  0.09739900  0.38519800  0.77563500  1
  C  970  1  0.07634400  0.37100600  0.78377900  1
  C  974  1  0.05672900  0.33229500  0.77198400  1
  C  975  1  0.06309100  0.30356800  0.76812600  1
  C  985  1  0.28570900  0.91137100  0.40116700  1
  C  987  1  0.27472800  0.87766300  0.43066400  1
  C  988  1  0.24910200  0.88661800  0.43203300  1
  C  990  1  0.26022600  0.92109000  0.40279300  1
  C  991  1  0.25199900  0.94200200  0.38838700  1
  C  995  1  0.26198900  0.96016000  0.34847800  1
  C  996  1  0.26525800  0.95246600  0.32000300  1
  C  1006  1  0.75016700  0.91101000  0.63459600  1
  C  1008  1  0.76140800  0.87697600  0.60558500  1
  C  1009  1  0.78697500  0.88609200  0.60412700  1
  C  1011  1  0.77558100  0.92089100  0.63287000  1
  C  1012  1  0.78362200  0.94219900  0.64673000  1
  C  1016  1  0.77181200  0.96205000  0.68529600  1
  C  1017  1  0.76885400  0.95618200  0.71423400  1
  C  1027  1  0.28497400  0.08910800  0.63517200  1
  C  1029  1  0.27440600  0.12272600  0.60541300  1
  C  1030  1  0.24873400  0.11392600  0.60392200  1
  C  1032  1  0.25943100  0.07954400  0.63343900  1
  C  1033  1  0.25089600  0.05876600  0.64780800  1
  C  1037  1  0.26175900  0.03912200  0.68682400  1
  C  1038  1  0.26661200  0.04595700  0.71528900  1
  C  1048  1  0.74909300  0.08975400  0.40241100  1
  C  1050  1  0.76087600  0.12380500  0.43116900  1
  C  1051  1  0.78635000  0.11441000  0.43253500  1
  C  1053  1  0.77438500  0.07957400  0.40408500  1
  C  1054  1  0.78202200  0.05808000  0.39023400  1
  C  1058  1  0.77090400  0.03983200  0.35074200  1
  C  1059  1  0.76989100  0.04635600  0.32180600  1
  C  1069  1  0.28503600  0.38276800  0.10679800  1
  C  1071  1  0.27433700  0.41234400  0.14054000  1
  C  1072  1  0.24869000  0.41386200  0.13167100  1
  C  1074  1  0.25951200  0.38451200  0.09718700  1
  C  1075  1  0.25106800  0.37026600  0.07628900  1
  C  1079  1  0.26202900  0.33134600  0.05652800  1
  C  1080  1  0.26659700  0.30279400  0.06318900  1
  C  1090  1  0.74935700  0.61633000  0.10759600  1
  C  1092  1  0.76105900  0.58751200  0.14162000  1
  C  1093  1  0.78658100  0.58626400  0.13234700  1
  C  1095  1  0.77469800  0.61475200  0.09751900  1
  C  1096  1  0.78240500  0.62869900  0.07611000  1
  C  1100  1  0.77121400  0.66812200  0.05775200  1
  C  1101  1  0.76972700  0.69701700  0.06435900  1
  C  1111  1  0.28538300  0.61686400  0.92955500  1
  C  1113  1  0.27458000  0.58702000  0.89608700  1
  C  1114  1  0.24890200  0.58575900  0.90490300  1
  C  1116  1  0.25983200  0.61535800  0.93913800  1
  C  1117  1  0.25142500  0.63009600  0.95973300  1
  C  1121  1  0.26203100  0.66923500  0.97923900  1
  C  1122  1  0.26696500  0.69764400  0.97222400  1
  C  1132  1  0.75010400  0.38418800  0.92888400  1
  C  1134  1  0.76128300  0.41354400  0.89512600  1
  C  1135  1  0.78688400  0.41485000  0.90416500  1
  C  1137  1  0.77555200  0.38577100  0.93870200  1
  C  1138  1  0.78367100  0.37160800  0.95978500  1
  C  1142  1  0.77190300  0.33284700  0.97930500  1
  C  1143  1  0.76830800  0.30408300  0.97295300  1
  C  1153  1  0.40220800  0.91097300  0.74933000  1
  C  1155  1  0.43091300  0.87684500  0.76102100  1
  C  1156  1  0.43236900  0.88622900  0.78649200  1
  C  1158  1  0.40399800  0.92115500  0.77461300  1
  C  1159  1  0.39025400  0.94270600  0.78228600  1
  C  1163  1  0.35081200  0.96110500  0.77127200  1
  C  1164  1  0.32183700  0.95473400  0.77042400  1
  C  1174  1  0.63552000  0.91162900  0.28463100  1
  C  1176  1  0.60567300  0.87810300  0.27400300  1
  C  1177  1  0.60436200  0.88682300  0.24829600  1
  C  1179  1  0.63399800  0.92108800  0.25903400  1
  C  1180  1  0.64853300  0.94175700  0.25051000  1
  C  1184  1  0.68758200  0.96128800  0.26150600  1
  C  1185  1  0.71592900  0.95428800  0.26679700  1
  C  1195  1  0.63457800  0.08922600  0.75046400  1
  C  1197  1  0.60514900  0.12298100  0.76146400  1
  C  1198  1  0.60376600  0.11400400  0.78708100  1
  C  1200  1  0.63292700  0.07946900  0.77593600  1
  C  1201  1  0.64709100  0.05842900  0.78417000  1
  C  1205  1  0.68575500  0.03863700  0.77250300  1
  C  1206  1  0.71447100  0.04494300  0.76846800  1
  C  1216  1  0.40173400  0.08961800  0.28612600  1
  C  1218  1  0.43095300  0.12343900  0.27479400  1
  C  1219  1  0.43231500  0.11428100  0.24923700  1
  C  1221  1  0.40336000  0.07969800  0.26072100  1
  C  1222  1  0.38913900  0.05856800  0.25273600  1
  C  1226  1  0.34945200  0.04029800  0.26326400  1
  C  1227  1  0.32080900  0.04760100  0.26591400  1
  C  1237  1  0.92919800  0.26757300  0.63436000  1
  C  1239  1  0.89550200  0.25648200  0.60489000  1
  C  1240  1  0.90456600  0.23089300  0.60348000  1
  C  1242  1  0.93904100  0.24213600  0.63267300  1
  C  1243  1  0.96010400  0.23396700  0.64683400  1
  C  1247  1  0.97963100  0.24550300  0.68566500  1
  C  1248  1  0.97320200  0.24915100  0.71440400  1
  C  1258  1  0.92885700  0.73233000  0.40177800  1
  C  1260  1  0.89500300  0.74347100  0.43103600  1
  C  1261  1  0.90404900  0.76906600  0.43242300  1
  C  1263  1  0.93869400  0.75776100  0.40347000  1
  C  1264  1  0.95977600  0.76587000  0.38924900  1
  C  1268  1  0.97810500  0.75555100  0.34953500  1
  C  1269  1  0.97078500  0.75282900  0.32090400  1
  C  1279  1  0.10723300  0.26912700  0.40222200  1
  C  1281  1  0.14177100  0.25743700  0.43043400  1
  C  1282  1  0.13233000  0.23200400  0.43214300  1
  C  1284  1  0.09700100  0.24388500  0.40426600  1
  C  1285  1  0.07522000  0.23623100  0.39090800  1
  C  1289  1  0.05511400  0.24800500  0.35254600  1
  C  1290  1  0.05984500  0.24860100  0.32325300  1
  C  1300  1  0.10494000  0.73406200  0.63472700  1
  C  1302  1  0.13824400  0.74453700  0.60455300  1
  C  1303  1  0.13003400  0.77043100  0.60379500  1
  C  1305  1  0.09598500  0.75987700  0.63375300  1
  C  1306  1  0.07589500  0.76863800  0.64894600  1
  C  1310  1  0.05747700  0.75786700  0.68862300  1
  C  1311  1  0.06543100  0.75199400  0.71660200  1
  C  1321  1  0.63370500  0.73150800  0.10755300  1
  C  1323  1  0.60509700  0.74325500  0.14173900  1
  C  1324  1  0.60355200  0.76869000  0.13227100  1
  C  1326  1  0.63180900  0.75674500  0.09727900  1
  C  1327  1  0.64544500  0.76436500  0.07564400  1
  C  1331  1  0.68490100  0.75341400  0.05724800  1
  C  1332  1  0.71391000  0.75289500  0.06349800  1
  C  1342  1  0.40103400  0.26707300  0.10664500  1
  C  1344  1  0.43090900  0.25640700  0.14012700  1
  C  1345  1  0.43217200  0.23070000  0.13140100  1
  C  1347  1  0.40251900  0.24148200  0.09717000  1
  C  1348  1  0.38794900  0.23298100  0.07651500  1
  C  1352  1  0.34883900  0.24396200  0.05710600  1
  C  1353  1  0.32049100  0.24915600  0.06417300  1
  C  1363  1  0.40112600  0.73322900  0.92909600  1
  C  1365  1  0.43062900  0.74415000  0.89537100  1
  C  1366  1  0.43197600  0.76979700  0.90427100  1
  C  1368  1  0.40273700  0.75873500  0.93876900  1
  C  1369  1  0.38850600  0.76703700  0.95973500  1
  C  1373  1  0.34977800  0.75551800  0.97950300  1
  C  1374  1  0.32112800  0.75124900  0.97306500  1
  C  1384  1  0.63475400  0.26824400  0.92865500  1
  C  1386  1  0.60554800  0.25705700  0.89476900  1
  C  1387  1  0.60415000  0.23147300  0.90384100  1
  C  1389  1  0.63310900  0.24280300  0.93847400  1
  C  1390  1  0.64730300  0.23472500  0.95958900  1
  C  1394  1  0.68692400  0.24515200  0.97807000  1
  C  1395  1  0.71556700  0.24799300  0.97084900  1
  C  1405  1  0.10688800  0.61710500  0.75111100  1
  C  1407  1  0.14056300  0.58747300  0.76185600  1
  C  1408  1  0.13172700  0.58606700  0.78752200  1
  C  1410  1  0.09729900  0.61546200  0.77664800  1
  C  1411  1  0.07641300  0.62974300  0.78506700  1
  C  1415  1  0.05659900  0.66854500  0.77384200  1
  C  1416  1  0.06316300  0.69711200  0.76921400  1
  C  1426  1  0.10765000  0.38437300  0.28656300  1
  C  1428  1  0.14154600  0.41336300  0.27490400  1
  C  1429  1  0.13225800  0.41463000  0.24939000  1
  C  1431  1  0.09757100  0.38594100  0.26121900  1
  C  1432  1  0.07627400  0.37184100  0.25346500  1
  C  1436  1  0.05801800  0.33232600  0.26458700  1
  C  1437  1  0.06495300  0.30353900  0.26662500  1
  C  1447  1  0.92908100  0.38351800  0.75060300  1
  C  1449  1  0.89552200  0.41323000  0.76148900  1
  C  1450  1  0.90435200  0.41447200  0.78716400  1
  C  1452  1  0.93866500  0.38498600  0.77615400  1
  C  1453  1  0.95934900  0.37033900  0.78450200  1
  C  1457  1  0.97910000  0.33140200  0.77363300  1
  C  1458  1  0.97234200  0.30291600  0.76879400  1
  C  1468  1  0.92885700  0.61693400  0.28596900  1
  C  1470  1  0.89506300  0.58761800  0.27479200  1
  C  1471  1  0.90405700  0.58635100  0.24917400  1
  C  1473  1  0.93861900  0.61541000  0.26049400  1
  C  1474  1  0.95969500  0.62957900  0.25236400  1
  C  1478  1  0.97934300  0.66826300  0.26418700  1
  C  1479  1  0.97303600  0.69701000  0.26798300  1
  C  1489  1  0.75039500  0.08931800  0.63487900  1
  C  1491  1  0.76141800  0.12303300  0.60540700  1
  C  1492  1  0.78704800  0.11408500  0.60408400  1
  C  1494  1  0.77588800  0.07961100  0.63330700  1
  C  1495  1  0.78409500  0.05869900  0.64772500  1
  C  1499  1  0.77400000  0.04048000  0.68758200  1
  C  1500  1  0.77058800  0.04814500  0.71604900  1
  C  1510  1  0.28601200  0.08969000  0.40148100  1
  C  1512  1  0.27474000  0.12374600  0.43045400  1
  C  1513  1  0.24917400  0.11463200  0.43189300  1
  C  1515  1  0.26059400  0.07981200  0.40318800  1
  C  1516  1  0.25257200  0.05849000  0.38933900  1
  C  1520  1  0.26440900  0.03864800  0.35077700  1
  C  1521  1  0.26730200  0.04449000  0.32182600  1
  C  1531  1  0.75119900  0.91162300  0.40083700  1
  C  1533  1  0.76176100  0.87803100  0.43062900  1
  C  1534  1  0.78744000  0.88681300  0.43209300  1
  C  1536  1  0.77675000  0.92117100  0.40255000  1
  C  1537  1  0.78529500  0.94191700  0.38814000  1
  C  1541  1  0.77448400  0.96147900  0.34906400  1
  C  1542  1  0.76959400  0.95456000  0.32062600  1
  C  1552  1  0.28684700  0.91088100  0.63372800  1
  C  1554  1  0.27510400  0.87685300  0.60492500  1
  C  1555  1  0.24960800  0.88618600  0.60360800  1
  C  1557  1  0.26152600  0.92100100  0.63210600  1
  C  1558  1  0.25384900  0.94244500  0.64601200  1
  C  1562  1  0.26500500  0.96075400  0.68547000  1
  C  1563  1  0.26632700  0.95415900  0.71437700  1
  C  1573  1  0.75115100  0.61791600  0.92934300  1
  C  1575  1  0.76181400  0.58822700  0.89568900  1
  C  1576  1  0.78747800  0.58676500  0.90451400  1
  C  1578  1  0.77669800  0.61623700  0.93890600  1
  C  1579  1  0.78517700  0.63058800  0.95972000  1
  C  1583  1  0.77424800  0.66957500  0.97938000  1
  C  1584  1  0.76945000  0.69805700  0.97257900  1
  C  1594  1  0.28655400  0.38427400  0.92854100  1
  C  1596  1  0.27491200  0.41328000  0.89465400  1
  C  1597  1  0.24935700  0.41442200  0.90384400  1
  C  1599  1  0.26116900  0.38572900  0.93853200  1
  C  1600  1  0.25340000  0.37160200  0.95980300  1
  C  1604  1  0.26464700  0.33215600  0.97810700  1
  C  1605  1  0.26669300  0.30335400  0.97125600  1
  C  1615  1  0.75058400  0.38374600  0.10674600  1
  C  1617  1  0.76143500  0.41355900  0.14022200  1
  C  1618  1  0.78709000  0.41485000  0.13134800  1
  C  1620  1  0.77611400  0.38526600  0.09711500  1
  C  1621  1  0.78448100  0.37057400  0.07647200  1
  C  1625  1  0.77379500  0.33150100  0.05688300  1
  C  1626  1  0.76894400  0.30305300  0.06380000  1
  C  1636  1  0.28608500  0.61634000  0.10722100  1
  C  1638  1  0.27486100  0.58703000  0.14100400  1
  C  1639  1  0.24926600  0.58573200  0.13194900  1
  C  1641  1  0.26064000  0.61476400  0.09738600  1
  C  1642  1  0.25255100  0.62890400  0.07627900  1
  C  1646  1  0.26436700  0.66764400  0.05674800  1
  C  1647  1  0.26789500  0.69642500  0.06305000  1
  C  1657  1  0.63381500  0.08969100  0.28680500  1
  C  1659  1  0.60518500  0.12386500  0.27507200  1
  C  1660  1  0.60372300  0.11446200  0.24960800  1
  C  1662  1  0.63201500  0.07949000  0.26153200  1
  C  1663  1  0.64571000  0.05789600  0.25389200  1
  C  1667  1  0.68512300  0.03946400  0.26494500  1
  C  1668  1  0.71412400  0.04573400  0.26565500  1
  C  1678  1  0.40056700  0.08918100  0.75130200  1
  C  1680  1  0.43036500  0.12274600  0.76193500  1
  C  1681  1  0.43169800  0.11401700  0.78763800  1
  C  1683  1  0.40210600  0.07971500  0.77689500  1
  C  1684  1  0.38762300  0.05900400  0.78540900  1
  C  1688  1  0.34864200  0.03937600  0.77436400  1
  C  1689  1  0.32025600  0.04627200  0.76915600  1
  C  1699  1  0.40149500  0.91147900  0.28545100  1
  C  1701  1  0.43105900  0.87782700  0.27449100  1
  C  1702  1  0.43235400  0.88673600  0.24884800  1
  C  1704  1  0.40304700  0.92116500  0.25994600  1
  C  1705  1  0.38874900  0.94209800  0.25166400  1
  C  1709  1  0.35007300  0.96188600  0.26334300  1
  C  1710  1  0.32146300  0.95543600  0.26786800  1
  C  1720  1  0.63442000  0.91107400  0.75000900  1
  C  1722  1  0.60510800  0.87731800  0.76130600  1
  C  1723  1  0.60380300  0.88642900  0.78688200  1
  C  1725  1  0.63286200  0.92094100  0.77543900  1
  C  1726  1  0.64718300  0.94198800  0.78346400  1
  C  1730  1  0.68693400  0.96018500  0.77301000  1
  C  1731  1  0.71550700  0.95271800  0.77007100  1
  C  1741  1  0.10693500  0.73312800  0.40156000  1
  C  1743  1  0.14062400  0.74415000  0.43106500  1
  C  1744  1  0.13162200  0.76975800  0.43245000  1
  C  1746  1  0.09715900  0.75859200  0.40321100  1
  C  1747  1  0.07614600  0.76681700  0.38900800  1
  C  1751  1  0.05654900  0.75530800  0.35019600  1
  C  1752  1  0.06302500  0.75136300  0.32150700  1
  C  1762  1  0.10718300  0.26825500  0.63430500  1
  C  1764  1  0.14100800  0.25718400  0.60498500  1
  C  1765  1  0.13201200  0.23157100  0.60361500  1
  C  1767  1  0.09739800  0.24280100  0.63263800  1
  C  1768  1  0.07637600  0.23464000  0.64691500  1
  C  1772  1  0.05805300  0.24486100  0.68666600  1
  C  1773  1  0.06547000  0.24782000  0.71524700  1
  C  1783  1  0.92868500  0.73164500  0.63407500  1
  C  1785  1  0.89434900  0.74323000  0.60557100  1
  C  1786  1  0.90372500  0.76869200  0.60394100  1
  C  1788  1  0.93885200  0.75692400  0.63212100  1
  C  1789  1  0.96047200  0.76466200  0.64569000  1
  C  1793  1  0.98043700  0.75293700  0.68414500  1
  C  1794  1  0.97542600  0.75193800  0.71337900  1
  C  1804  1  0.93345700  0.26591600  0.40230700  1
  C  1806  1  0.90042700  0.25598400  0.43303400  1
  C  1807  1  0.90735500  0.22972400  0.43267600  1
  C  1809  1  0.94098700  0.23962200  0.40203300  1
  C  1810  1  0.96036000  0.23040300  0.38618200  1
  C  1814  1  0.97849700  0.24183700  0.34660300  1
  C  1815  1  0.97043200  0.24829600  0.31878400  1
  N  818  1  0.41566900  0.27471100  0.90667600  1
  N  821  1  0.41908500  0.22656000  0.92571500  1
  N  834  1  0.44706800  0.21321700  0.89015800  1
  N  836  1  0.38581200  0.28770900  0.93968500  1
  N  839  1  0.62095000  0.72742500  0.90836400  1
  N  842  1  0.61826500  0.77613100  0.92595400  1
  N  855  1  0.58898000  0.78841200  0.89107200  1
  N  857  1  0.65192800  0.71530400  0.94068800  1
  N  860  1  0.62110000  0.27355800  0.12852500  1
  N  863  1  0.61814500  0.22503100  0.11047100  1
  N  876  1  0.58934200  0.21239700  0.14562300  1
  N  878  1  0.65159000  0.28599100  0.09587100  1
  N  881  1  0.41517600  0.72640500  0.12906100  1
  N  884  1  0.41814400  0.77482700  0.11068600  1
  N  897  1  0.44674600  0.78772900  0.14591400  1
  N  899  1  0.38488400  0.71373800  0.09629500  1
  N  902  1  0.90790600  0.39764500  0.29102700  1
  N  905  1  0.92564900  0.40046500  0.24238000  1
  N  918  1  0.89062400  0.42950300  0.22997600  1
  N  920  1  0.94046100  0.36697300  0.30326300  1
  N  923  1  0.90695600  0.60252200  0.74396100  1
  N  926  1  0.92558200  0.59982900  0.79231200  1
  N  939  1  0.89032700  0.57141000  0.80555500  1
  N  941  1  0.93966600  0.63270600  0.73095900  1
  N  944  1  0.12828500  0.60309700  0.29156100  1
  N  947  1  0.11052800  0.60046400  0.24291300  1
  N  960  1  0.14546700  0.57131800  0.23044100  1
  N  962  1  0.09588800  0.63393800  0.30386300  1
  N  965  1  0.12862300  0.39756600  0.74420200  1
  N  968  1  0.11049800  0.40026800  0.79272100  1
  N  981  1  0.14563300  0.42901100  0.80553900  1
  N  983  1  0.09601200  0.36711200  0.73158900  1
  N  986  1  0.29175800  0.88995100  0.41509300  1
  N  989  1  0.24321200  0.90799700  0.41795500  1
  N  1002  1  0.23059600  0.87292600  0.44688700  1
  N  1004  1  0.30416400  0.92252300  0.38446700  1
  N  1007  1  0.74427500  0.88936500  0.62095300  1
  N  1010  1  0.79269000  0.90772300  0.61788300  1
  N  1023  1  0.80558000  0.87237000  0.58943900  1
  N  1025  1  0.73158900  0.92223900  0.65108100  1
  N  1028  1  0.29124900  0.11040900  0.62116200  1
  N  1031  1  0.24262500  0.09266400  0.61807600  1
  N  1044  1  0.23038700  0.12767300  0.58892400  1
  N  1046  1  0.30330200  0.07792500  0.65199900  1
  N  1049  1  0.74351100  0.11153500  0.41596300  1
  N  1052  1  0.79174700  0.09263100  0.41887700  1
  N  1065  1  0.80518800  0.12802300  0.44703200  1
  N  1067  1  0.73039000  0.07868700  0.38597600  1
  N  1070  1  0.29123500  0.39668400  0.12818500  1
  N  1073  1  0.24265400  0.39980300  0.11032500  1
  N  1086  1  0.23029800  0.42881400  0.14540900  1
  N  1088  1  0.30341000  0.36602000  0.09557600  1
  N  1091  1  0.74371800  0.60271700  0.12932100  1
  N  1094  1  0.79204400  0.59998900  0.11062900  1
  N  1107  1  0.80538500  0.57178300  0.14600900  1
  N  1109  1  0.73063300  0.63270600  0.09647600  1
  N  1112  1  0.29154200  0.60270300  0.90831900  1
  N  1115  1  0.24289400  0.60007800  0.92608200  1
  N  1128  1  0.23044300  0.57086300  0.89119700  1
  N  1130  1  0.30378600  0.63371600  0.94057800  1
  N  1133  1  0.74416500  0.39806500  0.90740100  1
  N  1136  1  0.79264500  0.40085100  0.92562600  1
  N  1149  1  0.80550100  0.42956600  0.89048400  1
  N  1151  1  0.73155600  0.36757300  0.93997500  1
  N  1154  1  0.41566900  0.88914700  0.74371200  1
  N  1157  1  0.41880000  0.90805100  0.79193400  1
  N  1170  1  0.44688500  0.87256900  0.80527900  1
  N  1172  1  0.38576900  0.92209700  0.73066000  1
  N  1175  1  0.62137000  0.89041400  0.29089600  1
  N  1178  1  0.61865800  0.90798900  0.24218600  1
  N  1191  1  0.58936400  0.87309700  0.22993600  1
  N  1193  1  0.65228300  0.92279700  0.30302800  1
  N  1196  1  0.62069500  0.11067700  0.74442900  1
  N  1199  1  0.61777300  0.09257500  0.79294000  1
  N  1212  1  0.58897200  0.12771600  0.80561100  1
  N  1214  1  0.65122200  0.07808000  0.73196900  1
  N  1217  1  0.41553300  0.11117500  0.29197200  1
  N  1220  1  0.41838300  0.09275200  0.24355900  1
  N  1233  1  0.44703200  0.12791400  0.23058800  1
  N  1235  1  0.38513700  0.07852700  0.30469000  1
  N  1238  1  0.90773300  0.27354200  0.62046900  1
  N  1241  1  0.92600600  0.22509700  0.61749500  1
  N  1254  1  0.89092100  0.21231800  0.58867100  1
  N  1256  1  0.94023500  0.28605800  0.65109300  1
  N  1259  1  0.90731800  0.72637600  0.41556100  1
  N  1262  1  0.92555900  0.77484800  0.41850700  1
  N  1275  1  0.89033100  0.78765200  0.44714200  1
  N  1277  1  0.94000700  0.71384400  0.38512700  1
  N  1280  1  0.12927700  0.27472800  0.41533200  1
  N  1283  1  0.11028400  0.22658400  0.41893100  1
  N  1296  1  0.14612100  0.21323600  0.44656100  1
  N  1298  1  0.09593700  0.28779400  0.38590000  1
  N  1301  1  0.12586100  0.72766600  0.62020500  1
  N  1304  1  0.10922000  0.77673300  0.61852300  1
  N  1317  1  0.14404900  0.78873800  0.58900100  1
  N  1319  1  0.09386300  0.71569400  0.65161900  1
  N  1322  1  0.62033800  0.72593600  0.12944900  1
  N  1325  1  0.61702300  0.77408100  0.11037400  1
  N  1338  1  0.58905700  0.78750300  0.14591700  1
  N  1340  1  0.65016100  0.71284900  0.09644600  1
  N  1343  1  0.41521600  0.27332200  0.12784100  1
  N  1346  1  0.41784900  0.22461200  0.11024600  1
  N  1359  1  0.44713600  0.21230500  0.14511600  1
  N  1361  1  0.38425500  0.28547400  0.09551600  1
  N  1364  1  0.41506800  0.72714000  0.90769600  1
  N  1367  1  0.41790900  0.77571100  0.92564600  1
  N  1380  1  0.44680800  0.78829800  0.89055300  1
  N  1382  1  0.38447700  0.71474700  0.94027200  1
  N  1385  1  0.62097300  0.27417900  0.90710800  1
  N  1388  1  0.61807000  0.22570400  0.92535400  1
  N  1401  1  0.58939400  0.21289100  0.89015400  1
  N  1403  1  0.65132800  0.28677600  0.93984400  1
  N  1406  1  0.12822700  0.60311200  0.74492100  1
  N  1409  1  0.11041900  0.60019000  0.79353500  1
  N  1422  1  0.14545000  0.57115600  0.80595600  1
  N  1424  1  0.09571600  0.63386500  0.73272000  1
  N  1427  1  0.12931700  0.39807300  0.29221900  1
  N  1430  1  0.11061100  0.40079800  0.24390000  1
  N  1443  1  0.14587300  0.42919400  0.23061300  1
  N  1445  1  0.09658100  0.36794100  0.30528100  1
  N  1448  1  0.90780000  0.39762800  0.74448500  1
  N  1451  1  0.92558000  0.40020400  0.79312800  1
  N  1464  1  0.89065300  0.42934500  0.80564500  1
  N  1466  1  0.94017500  0.36678400  0.73213700  1
  N  1469  1  0.90738000  0.60305400  0.29191800  1
  N  1472  1  0.92550900  0.60036000  0.24340100  1
  N  1485  1  0.89035200  0.57164900  0.23056300  1
  N  1487  1  0.94001300  0.63347100  0.30454800  1
  N  1490  1  0.74436400  0.11073600  0.62094400  1
  N  1493  1  0.79292100  0.09270900  0.61817400  1
  N  1506  1  0.80557200  0.12777700  0.58925600  1
  N  1508  1  0.73191300  0.07816100  0.65154200  1
  N  1511  1  0.29189100  0.11134500  0.41511200  1
  N  1514  1  0.24347200  0.09298900  0.41814800  1
  N  1527  1  0.23055700  0.12836300  0.44655700  1
  N  1529  1  0.30460500  0.07845000  0.38502300  1
  N  1532  1  0.74491900  0.89034100  0.41487500  1
  N  1535  1  0.79355800  0.90805500  0.41791500  1
  N  1548  1  0.80578600  0.87306300  0.44709200  1
  N  1550  1  0.73287400  0.92279700  0.38400200  1
  N  1553  1  0.29246200  0.88913700  0.62013200  1
  N  1556  1  0.24417600  0.90792800  0.61731200  1
  N  1569  1  0.23078100  0.87255500  0.58910900  1
  N  1571  1  0.30554300  0.92195600  0.65017100  1
  N  1574  1  0.74492300  0.60391200  0.90802200  1
  N  1577  1  0.79354400  0.60091300  0.92579200  1
  N  1590  1  0.80585800  0.57178800  0.89078600  1
  N  1592  1  0.73277900  0.63468100  0.94054600  1
  N  1595  1  0.29224200  0.39803600  0.90692100  1
  N  1598  1  0.24384300  0.40054200  0.92545100  1
  N  1611  1  0.23057200  0.42894200  0.89019400  1
  N  1613  1  0.30527900  0.36787400  0.93962900  1
  N  1616  1  0.74445400  0.39788400  0.12800500  1
  N  1619  1  0.79306400  0.40055200  0.11014500  1
  N  1632  1  0.80556600  0.42976100  0.14500800  1
  N  1634  1  0.73215600  0.36693300  0.09571500  1
  N  1637  1  0.29199900  0.60248500  0.12872400  1
  N  1640  1  0.24353000  0.59970800  0.11046600  1
  N  1653  1  0.23063600  0.57103800  0.14563300  1
  N  1655  1  0.30464600  0.63293900  0.09613300  1
  N  1658  1  0.62039400  0.11154900  0.29239800  1
  N  1661  1  0.61725000  0.09260600  0.24419200  1
  N  1674  1  0.58923600  0.12813100  0.23080600  1
  N  1676  1  0.65021700  0.07855300  0.30549500  1
  N  1679  1  0.41468600  0.11041600  0.74503900  1
  N  1682  1  0.41743600  0.09282600  0.79374300  1
  N  1695  1  0.44669600  0.12774300  0.80599800  1
  N  1697  1  0.38382900  0.07798200  0.73290300  1
  N  1700  1  0.41549000  0.89010900  0.29152000  1
  N  1703  1  0.41823100  0.90807800  0.24295100  1
  N  1716  1  0.44716900  0.87303200  0.23032700  1
  N  1718  1  0.38484000  0.92260000  0.30395200  1
  N  1721  1  0.62054600  0.88957100  0.74413400  1
  N  1724  1  0.61781700  0.90789700  0.79259100  1
  N  1737  1  0.58907200  0.87279800  0.80552200  1
  N  1739  1  0.65103100  0.92215100  0.73144700  1
  N  1742  1  0.12836700  0.72711100  0.41548200  1
  N  1745  1  0.11021700  0.77560400  0.41840100  1
  N  1758  1  0.14528900  0.78830400  0.44727300  1
  N  1760  1  0.09586400  0.71465200  0.38483800  1
  N  1763  1  0.12868400  0.27425200  0.62048300  1
  N  1766  1  0.11054200  0.22574300  0.61757600  1
  N  1779  1  0.14574400  0.21301100  0.58887700  1
  N  1781  1  0.09602600  0.28672000  0.65097700  1
  N  1784  1  0.90677200  0.72597500  0.62077400  1
  N  1787  1  0.92563800  0.77417900  0.61734700  1
  N  1800  1  0.88998800  0.78742600  0.58943100  1
  N  1802  1  0.93992300  0.71300500  0.65047200  1
  N  1805  1  0.91327600  0.27276700  0.41766400  1
  N  1808  1  0.92738700  0.22292700  0.41711200  1
  N  1821  1  0.89293900  0.21163400  0.44733300  1
  N  1823  1  0.94499500  0.28422600  0.38560900  1
  O  825  1  0.39939400  0.21807000  0.97280100  1
  O  826  1  0.36500600  0.23619700  0.95731800  1
  O  846  1  0.64127900  0.78750900  0.97073100  1
  O  847  1  0.67373900  0.76567100  0.95646400  1
  O  867  1  0.64018000  0.21430100  0.06503000  1
  O  868  1  0.67307000  0.23559700  0.07903500  1
  O  888  1  0.39709100  0.78444400  0.06451100  1
  O  889  1  0.36342600  0.76486500  0.07990900  1
  O  909  1  0.97073500  0.37798800  0.23122000  1
  O  910  1  0.95681700  0.34531500  0.25293500  1
  O  930  1  0.97197700  0.62073200  0.80140400  1
  O  931  1  0.95639600  0.65440600  0.78201600  1
  O  951  1  0.06542600  0.62287100  0.23212300  1
  O  952  1  0.07969000  0.65589000  0.25353500  1
  O  972  1  0.06499300  0.37819900  0.80320900  1
  O  973  1  0.07914600  0.34537600  0.78191700  1
  O  993  1  0.23309700  0.95375800  0.39627200  1
  O  994  1  0.25299700  0.93815800  0.36286700  1
  O  1014  1  0.80282900  0.95369600  0.63917700  1
  O  1015  1  0.78212200  0.93968300  0.67241400  1
  O  1035  1  0.23125300  0.04771100  0.64072600  1
  O  1036  1  0.25287700  0.06177600  0.67340900  1
  O  1056  1  0.80030300  0.04576800  0.39870400  1
  O  1057  1  0.78168800  0.06136200  0.36462200  1
  O  1077  1  0.23149400  0.37744300  0.06516900  1
  O  1078  1  0.25297200  0.34464700  0.07918100  1
  O  1098  1  0.80086800  0.62040800  0.06394500  1
  O  1099  1  0.78180600  0.65430400  0.07941400  1
  O  1119  1  0.23207900  0.62266400  0.97109800  1
  O  1120  1  0.25340400  0.65564300  0.95659700  1
  O  1140  1  0.80301800  0.37888700  0.97122100  1
  O  1141  1  0.78195000  0.34597000  0.95696200  1
  O  1161  1  0.39883100  0.95498800  0.80053800  1
  O  1162  1  0.36463000  0.93952700  0.78203900  1
  O  1182  1  0.64166700  0.95274300  0.23075200  1
  O  1183  1  0.67410100  0.93863400  0.25272500  1
  O  1203  1  0.63988800  0.04716600  0.80364900  1
  O  1204  1  0.67272800  0.06115900  0.78226600  1
  O  1224  1  0.39716500  0.04663300  0.23400600  1
  O  1225  1  0.36358400  0.06218700  0.25361000  1
  O  1245  1  0.97153600  0.21463100  0.63951400  1
  O  1246  1  0.95725500  0.23563000  0.67247400  1
  O  1266  1  0.97162000  0.78465000  0.39729200  1
  O  1267  1  0.95614600  0.76500200  0.36369400  1
  O  1287  1  0.06306400  0.21802700  0.39981100  1
  O  1288  1  0.07712400  0.23666200  0.36517500  1
  O  1308  1  0.06507600  0.78864300  0.64254400  1
  O  1309  1  0.07982300  0.76623800  0.67438900  1
  O  1329  1  0.63671700  0.78248300  0.06327200  1
  O  1330  1  0.67107900  0.76431100  0.07875800  1
  O  1350  1  0.39482100  0.21325400  0.06547600  1
  O  1351  1  0.36238600  0.23514900  0.07970800  1
  O  1371  1  0.39563900  0.78658300  0.97092600  1
  O  1372  1  0.36288200  0.76506200  0.95693500  1
  O  1392  1  0.63930200  0.21590000  0.97139100  1
  O  1393  1  0.67286500  0.23570300  0.95604300  1
  O  1413  1  0.06532600  0.62265300  0.80469100  1
  O  1414  1  0.07926300  0.65535500  0.78303200  1
  O  1434  1  0.06416100  0.37996700  0.23489700  1
  O  1435  1  0.07972300  0.34625800  0.25423300  1
  O  1455  1  0.97068100  0.37777100  0.80387100  1
  O  1456  1  0.95639300  0.34477700  0.78243400  1
  O  1476  1  0.97105000  0.62237100  0.23294100  1
  O  1477  1  0.95692300  0.65521500  0.25421800  1
  O  1497  1  0.80304000  0.04697300  0.63989600  1
  O  1498  1  0.78299800  0.06251400  0.67324700  1
  O  1518  1  0.23337900  0.04697600  0.39690200  1
  O  1519  1  0.25405700  0.06099800  0.36365400  1
  O  1539  1  0.80494000  0.95298100  0.39520700  1
  O  1540  1  0.78332300  0.93884600  0.36254700  1
  O  1560  1  0.23546600  0.95467800  0.63764700  1
  O  1561  1  0.25433700  0.93914700  0.67162100  1
  O  1581  1  0.80480800  0.62350700  0.97080300  1
  O  1582  1  0.78318800  0.65618900  0.95673200  1
  O  1602  1  0.23476800  0.37966700  0.97186200  1
  O  1603  1  0.25426800  0.34602100  0.95637100  1
  O  1623  1  0.80380900  0.37802700  0.06508900  1
  O  1624  1  0.78249800  0.34501800  0.07954100  1
  O  1644  1  0.23322300  0.62160700  0.06482100  1
  O  1645  1  0.25425800  0.65454700  0.07907700  1
  O  1665  1  0.63708400  0.04558800  0.23568000  1
  O  1666  1  0.67134100  0.06102200  0.25409200  1
  O  1686  1  0.39452000  0.04802500  0.80516100  1
  O  1687  1  0.36204700  0.06205600  0.78319800  1
  O  1707  1  0.39577200  0.95325600  0.23205900  1
  O  1708  1  0.36313700  0.93929600  0.25378700  1
  O  1728  1  0.63926200  0.95387700  0.80226800  1
  O  1729  1  0.67272000  0.93827000  0.78248400  1
  O  1749  1  0.06480700  0.78624000  0.39624300  1
  O  1750  1  0.07900000  0.76502500  0.36337800  1
  O  1770  1  0.06458900  0.21579600  0.63893800  1
  O  1771  1  0.08005600  0.23558500  0.67246000  1
  O  1791  1  0.97256900  0.78300300  0.63698700  1
  O  1792  1  0.95837300  0.76404700  0.67140500  1
  O  1812  1  0.97042800  0.20979200  0.39184300  1
  O  1813  1  0.95611500  0.23362200  0.36088600  1
