# generated using pymatgen
data_H15C17N4O3
_symmetry_space_group_name_H-M   'P 1'
_cell_length_a   22.35840000
_cell_length_b   60.77660000
_cell_length_c   60.77660000
_cell_angle_alpha   90.00000000
_cell_angle_beta   90.00000000
_cell_angle_gamma   90.00000000
_symmetry_Int_Tables_number   1
_chemical_formula_structural   H15C17N4O3
_chemical_formula_sum   'H480 C544 N128 O96'
_cell_volume   82587.34853287
_cell_formula_units_Z   32
loop_
 _symmetry_equiv_pos_site_id
 _symmetry_equiv_pos_as_xyz
  1  'x, y, z'
loop_
 _atom_site_type_symbol
 _atom_site_label
 _atom_site_symmetry_multiplicity
 _atom_site_fract_x
 _atom_site_fract_y
 _atom_site_fract_z
 _atom_site_occupancy
  C  1  1  0.22518000  0.08416100  0.00722000  1
  C  2  1  0.20779600  0.10130400  0.02158200  1
  C  3  1  0.15009000  0.10221400  0.03087000  1
  C  4  1  0.10891200  0.08538500  0.02542500  1
  C  5  1  0.12504400  0.06751600  0.01153900  1
  C  6  1  0.18369700  0.06709400  0.00245100  1
  C  9  1  0.28338600  0.08522000  0.99749700  1
  C  10  1  0.30048400  0.10363100  0.98451500  1
  C  11  1  0.36045400  0.10627200  0.97722900  1
  C  12  1  0.40243300  0.08958100  0.98257500  1
  C  13  1  0.38530000  0.07022600  0.99396900  1
  C  14  1  0.32581400  0.06848600  0.00162400  1
  C  23  1  0.43095900  0.05258600  0.99697100  1
  C  26  1  0.38274600  0.12522100  0.96375700  1
  C  29  1  0.13067900  0.12064400  0.04544100  1
  C  32  1  0.07812700  0.05031300  0.00798600  1
  C  35  1  0.72519000  0.41502300  0.99196700  1
  C  36  1  0.70781800  0.39788800  0.97759300  1
  C  37  1  0.65008600  0.39696400  0.96832600  1
  C  38  1  0.60889100  0.41378200  0.97379200  1
  C  39  1  0.62501700  0.43164800  0.98768200  1
  C  40  1  0.68368400  0.43207700  0.99675700  1
  C  43  1  0.78340200  0.41396700  0.00168400  1
  C  44  1  0.80050400  0.39556300  0.01467800  1
  C  45  1  0.86047000  0.39293100  0.02196900  1
  C  46  1  0.90244500  0.40962100  0.01661600  1
  C  47  1  0.88531300  0.42896600  0.00520300  1
  C  48  1  0.82582300  0.43070200  0.99755100  1
  C  57  1  0.93096900  0.44660400  0.00219200  1
  C  60  1  0.88276800  0.37399700  0.03546200  1
  C  63  1  0.63066600  0.37855000  0.95373700  1
  C  66  1  0.57809100  0.44884700  0.99124500  1
  C  69  1  0.47500200  0.24201400  0.83567200  1
  C  70  1  0.45720600  0.22838700  0.85335100  1
  C  71  1  0.40031300  0.21844600  0.85412600  1
  C  72  1  0.35989000  0.22273500  0.83672100  1
  C  73  1  0.37585300  0.23635700  0.81862100  1
  C  74  1  0.43400900  0.24587300  0.81821800  1
  C  77  1  0.53302900  0.25193100  0.83657800  1
  C  78  1  0.54998500  0.26516100  0.85483000  1
  C  79  1  0.60996700  0.27241600  0.85748600  1
  C  80  1  0.65204700  0.26694300  0.84087400  1
  C  81  1  0.63500900  0.25541900  0.82158600  1
  C  82  1  0.57559500  0.24766900  0.81991400  1
  C  91  1  0.68070500  0.25235700  0.80396500  1
  C  94  1  0.63211200  0.28595400  0.87640400  1
  C  97  1  0.38113100  0.20543600  0.87374200  1
  C  100  1  0.32910600  0.23940100  0.80125500  1
  C  103  1  0.97497000  0.25712200  0.16348600  1
  C  104  1  0.95711100  0.27064400  0.14573400  1
  C  105  1  0.90032500  0.28066400  0.14496800  1
  C  106  1  0.86004200  0.27656900  0.16246500  1
  C  107  1  0.87596800  0.26297100  0.18059100  1
  C  108  1  0.93404800  0.25339000  0.18098900  1
  C  111  1  0.03300500  0.24720200  0.16260700  1
  C  112  1  0.04999900  0.23395200  0.14437600  1
  C  113  1  0.11001100  0.22673500  0.14171800  1
  C  114  1  0.15206800  0.23223200  0.15832800  1
  C  115  1  0.13499000  0.24376000  0.17760900  1
  C  116  1  0.07556300  0.25149800  0.17926800  1
  C  125  1  0.18067300  0.24684500  0.19523300  1
  C  128  1  0.13219500  0.21319100  0.12281200  1
  C  131  1  0.88120900  0.29348600  0.12521800  1
  C  134  1  0.82924400  0.25999300  0.19797700  1
  C  137  1  0.77321200  0.91369500  0.99141300  1
  C  138  1  0.78898000  0.89722500  0.97604800  1
  C  139  1  0.84617300  0.89647600  0.96633200  1
  C  140  1  0.88831600  0.91279500  0.97230000  1
  C  141  1  0.87393400  0.92989000  0.98736800  1
  C  142  1  0.81579500  0.93016000  0.99690500  1
  C  145  1  0.71596000  0.91220100  0.00175500  1
  C  146  1  0.70133300  0.89363600  0.01490900  1
  C  147  1  0.64210700  0.89033100  0.02269900  1
  C  148  1  0.59830400  0.90644600  0.01756500  1
  C  149  1  0.61289600  0.92589200  0.00585300  1
  C  150  1  0.67183600  0.92837800  0.99781100  1
  C  159  1  0.56496600  0.94269800  0.00282700  1
  C  162  1  0.62220800  0.87114400  0.03632100  1
  C  165  1  0.86442100  0.87885900  0.95062200  1
  C  168  1  0.92220700  0.94640300  0.99167600  1
  C  171  1  0.27319300  0.58548200  0.00777300  1
  C  172  1  0.28896000  0.60196200  0.02312600  1
  C  173  1  0.34618100  0.60273000  0.03282000  1
  C  174  1  0.38833100  0.58641300  0.02685400  1
  C  175  1  0.37393800  0.56930300  0.01180100  1
  C  176  1  0.31578500  0.56902100  0.00227700  1
  C  179  1  0.21593900  0.58697200  0.99743000  1
  C  180  1  0.20132700  0.60552900  0.98426000  1
  C  181  1  0.14209800  0.60883800  0.97647300  1
  C  182  1  0.09828000  0.59273500  0.98162300  1
  C  183  1  0.11285600  0.57329400  0.99335100  1
  C  184  1  0.17180000  0.57080500  0.00138900  1
  C  193  1  0.06491300  0.55649500  0.99639300  1
  C  196  1  0.12222100  0.62801500  0.96283400  1
  C  199  1  0.36444400  0.62036400  0.04850900  1
  C  202  1  0.42221500  0.55279000  0.00750100  1
  C  205  1  0.52394400  0.75687300  0.16530900  1
  C  206  1  0.54209100  0.77120600  0.14824300  1
  C  207  1  0.60032400  0.78004000  0.14736700  1
  C  208  1  0.64111400  0.77426800  0.16421100  1
  C  209  1  0.62415400  0.76047200  0.18204000  1
  C  210  1  0.56508600  0.75175900  0.18238600  1
  C  213  1  0.46534400  0.74749800  0.16413600  1
  C  214  1  0.44793400  0.73468100  0.14565000  1
  C  215  1  0.38767500  0.72779000  0.14286000  1
  C  216  1  0.34567100  0.73339600  0.15945900  1
  C  217  1  0.36308000  0.74454900  0.17891900  1
  C  218  1  0.42290000  0.75180600  0.18081800  1
  C  227  1  0.31736400  0.74769200  0.19651300  1
  C  230  1  0.36510200  0.71450200  0.12382500  1
  C  233  1  0.62069800  0.79470700  0.12916500  1
  C  236  1  0.67072700  0.75663800  0.19929200  1
  C  239  1  0.02394200  0.74232300  0.83386800  1
  C  240  1  0.04210100  0.72799000  0.85093400  1
  C  241  1  0.10032700  0.71915000  0.85180100  1
  C  242  1  0.14110900  0.72492400  0.83495600  1
  C  243  1  0.12413900  0.73872000  0.81712700  1
  C  244  1  0.06507000  0.74743100  0.81678400  1
  C  247  1  0.96533600  0.75169200  0.83504200  1
  C  248  1  0.94792600  0.76451100  0.85352600  1
  C  249  1  0.88766100  0.77139000  0.85632300  1
  C  250  1  0.84565400  0.76578000  0.83972600  1
  C  251  1  0.86306600  0.75463100  0.82026100  1
  C  252  1  0.92289200  0.74738100  0.81836100  1
  C  261  1  0.81734700  0.75148800  0.80266900  1
  C  264  1  0.86509200  0.78469200  0.87534800  1
  C  267  1  0.12071300  0.70448500  0.87000400  1
  C  270  1  0.17070500  0.74255400  0.79987200  1
  C  273  1  0.72472000  0.58406500  0.50704200  1
  C  274  1  0.70671100  0.60119000  0.52132500  1
  C  275  1  0.64842200  0.60220400  0.53008900  1
  C  276  1  0.60741000  0.58544900  0.52429000  1
  C  277  1  0.62426100  0.56753900  0.51058100  1
  C  278  1  0.68339100  0.56704700  0.50193600  1
  C  281  1  0.78334000  0.58516100  0.49768200  1
  C  282  1  0.80090600  0.60364300  0.48489000  1
  C  283  1  0.86125500  0.60644200  0.47811600  1
  C  284  1  0.90318300  0.58984000  0.48378300  1
  C  285  1  0.88559600  0.57035700  0.49485800  1
  C  286  1  0.82569300  0.56845500  0.50202200  1
  C  295  1  0.93125800  0.55275200  0.49802200  1
  C  298  1  0.88399300  0.62547900  0.46488100  1
  C  301  1  0.62821000  0.62048200  0.54468100  1
  C  304  1  0.57747800  0.55036500  0.50677700  1
  C  307  1  0.22469800  0.91511500  0.49212700  1
  C  308  1  0.20668200  0.89799000  0.47784200  1
  C  309  1  0.14836800  0.89696500  0.46910300  1
  C  310  1  0.10735400  0.91371700  0.47491300  1
  C  311  1  0.12421500  0.93162800  0.48861700  1
  C  312  1  0.18336500  0.93212500  0.49724500  1
  C  315  1  0.28332400  0.91401900  0.50148200  1
  C  316  1  0.30089700  0.89553700  0.51427300  1
  C  317  1  0.36124500  0.89274100  0.52104700  1
  C  318  1  0.40316700  0.90934600  0.51538700  1
  C  319  1  0.38557600  0.92882800  0.50430400  1
  C  320  1  0.32567000  0.93072600  0.49714300  1
  C  329  1  0.43122700  0.94643600  0.50114500  1
  C  332  1  0.38398700  0.87370600  0.53428400  1
  C  335  1  0.12813400  0.87868500  0.45451700  1
  C  338  1  0.07743700  0.94880200  0.49242500  1
  C  341  1  0.97554300  0.74117600  0.33557000  1
  C  342  1  0.95996200  0.72584000  0.35208900  1
  C  343  1  0.90263200  0.71625600  0.35303900  1
  C  344  1  0.86019000  0.72229300  0.33685700  1
  C  345  1  0.87444600  0.73727400  0.31967100  1
  C  346  1  0.93269100  0.74671600  0.31921800  1
  C  349  1  0.03278400  0.75153100  0.33699800  1
  C  350  1  0.04747500  0.76466900  0.35556600  1
  C  351  1  0.10676000  0.77238300  0.35889300  1
  C  352  1  0.15054300  0.76721600  0.34278500  1
  C  353  1  0.13586200  0.75556500  0.32331000  1
  C  354  1  0.07687300  0.74756900  0.32081300  1
  C  363  1  0.18378200  0.75254100  0.30650300  1
  C  366  1  0.12673000  0.78594500  0.37810600  1
  C  369  1  0.88456600  0.70061000  0.37072800  1
  C  372  1  0.82589400  0.74159800  0.30328300  1
  C  375  1  0.47554600  0.75799500  0.66358900  1
  C  376  1  0.45997000  0.77332700  0.64706600  1
  C  377  1  0.40265700  0.78292400  0.64612300  1
  C  378  1  0.36021700  0.77689600  0.66231200  1
  C  379  1  0.37447500  0.76192100  0.67950100  1
  C  380  1  0.43271400  0.75247500  0.67995600  1
  C  383  1  0.53280600  0.74765100  0.66217400  1
  C  384  1  0.54752500  0.73450100  0.64361800  1
  C  385  1  0.60682400  0.72679800  0.64030200  1
  C  386  1  0.65058200  0.73197700  0.65641400  1
  C  387  1  0.63586800  0.74363500  0.67588200  1
  C  388  1  0.57687000  0.75162600  0.67836600  1
  C  397  1  0.68376900  0.74667400  0.69269600  1
  C  400  1  0.62682200  0.71321700  0.62110400  1
  C  403  1  0.38458400  0.79856400  0.62842900  1
  C  406  1  0.32592900  0.75760900  0.69589600  1
  C  409  1  0.27317500  0.41393500  0.49184200  1
  C  410  1  0.28960000  0.39739000  0.47665000  1
  C  411  1  0.34728600  0.39653900  0.46735600  1
  C  412  1  0.38922700  0.41283800  0.47352700  1
  C  413  1  0.37412500  0.43004500  0.48836200  1
  C  414  1  0.31554400  0.43041400  0.49751900  1
  C  417  1  0.21546600  0.41246000  0.50183600  1
  C  418  1  0.20024900  0.39387000  0.51486900  1
  C  419  1  0.14056300  0.39043300  0.52210000  1
  C  420  1  0.09684400  0.40641900  0.51651100  1
  C  421  1  0.11199800  0.42595700  0.50505100  1
  C  422  1  0.17142900  0.42858400  0.49755600  1
  C  431  1  0.06406900  0.44269700  0.50172100  1
  C  434  1  0.12007500  0.37122700  0.53556600  1
  C  437  1  0.36629600  0.37889400  0.45182700  1
  C  440  1  0.42225900  0.44655000  0.49280800  1
  C  443  1  0.77318000  0.08524000  0.50734500  1
  C  444  1  0.78960800  0.10178600  0.52253500  1
  C  445  1  0.84732000  0.10265200  0.53180600  1
  C  446  1  0.88926600  0.08635600  0.52563000  1
  C  447  1  0.87415400  0.06914400  0.51080200  1
  C  448  1  0.81556000  0.06877000  0.50165700  1
  C  451  1  0.71548000  0.08672300  0.49734300  1
  C  452  1  0.70029500  0.10531700  0.48431300  1
  C  453  1  0.64061800  0.10876400  0.47707500  1
  C  454  1  0.59687800  0.09278100  0.48265600  1
  C  455  1  0.61200600  0.07324000  0.49411400  1
  C  456  1  0.67142400  0.07060300  0.50161400  1
  C  465  1  0.56406000  0.05650300  0.49743000  1
  C  468  1  0.62016000  0.12797600  0.46360900  1
  C  471  1  0.86634900  0.12030500  0.54732400  1
  C  474  1  0.92228800  0.05264000  0.50635400  1
  C  477  1  0.02312600  0.25742600  0.66513200  1
  C  478  1  0.03966100  0.27269200  0.64867200  1
  C  479  1  0.09733200  0.28201500  0.64793200  1
  C  480  1  0.13908800  0.27583300  0.66429500  1
  C  481  1  0.12397400  0.26082700  0.68135400  1
  C  482  1  0.06543200  0.25163500  0.68159300  1
  C  485  1  0.96538600  0.24746400  0.66359600  1
  C  486  1  0.95012500  0.23454100  0.64493600  1
  C  487  1  0.89045600  0.22728500  0.64150700  1
  C  488  1  0.84682000  0.23271100  0.65758000  1
  C  489  1  0.86199700  0.24411000  0.67715000  1
  C  490  1  0.92138900  0.25164800  0.67976100  1
  C  499  1  0.81413000  0.24733400  0.69393600  1
  C  502  1  0.86990000  0.21396100  0.62221300  1
  C  505  1  0.11650900  0.29759600  0.63035300  1
  C  508  1  0.17202400  0.25623700  0.69785900  1
  C  511  1  0.52311600  0.24176400  0.33405400  1
  C  512  1  0.53967400  0.22649000  0.35050500  1
  C  513  1  0.59733200  0.21715600  0.35122100  1
  C  514  1  0.63905800  0.22334100  0.33484900  1
  C  515  1  0.62392600  0.23836100  0.31780300  1
  C  516  1  0.56538400  0.24755400  0.31758100  1
  C  519  1  0.46535400  0.25171000  0.33559500  1
  C  520  1  0.45008100  0.26463600  0.35425000  1
  C  521  1  0.39040200  0.27187800  0.35768000  1
  C  522  1  0.34677200  0.26644300  0.34160700  1
  C  523  1  0.36196600  0.25504700  0.32203700  1
  C  524  1  0.42136900  0.24752000  0.31942500  1
  C  533  1  0.31410400  0.25181600  0.30524700  1
  C  536  1  0.36983400  0.28521300  0.37696400  1
  C  539  1  0.61654200  0.20156800  0.36879000  1
  C  542  1  0.67195700  0.24296300  0.30129300  1
  C  545  1  0.04683700  0.01391600  0.99668100  1
  C  546  1  0.06127800  0.99465100  0.00850300  1
  C  547  1  0.01682100  0.97849500  0.01283800  1
  C  548  1  0.95741500  0.98152200  0.00524600  1
  C  549  1  0.94341000  0.00084500  0.99349400  1
  C  550  1  0.98744600  0.01679400  0.98921400  1
  C  552  1  0.08974100  0.95684300  0.03178500  1
  C  553  1  0.13357300  0.97294000  0.02773900  1
  C  559  1  0.20749500  0.98259300  0.05322100  1
  C  567  1  0.54681800  0.48525200  0.00253800  1
  C  568  1  0.56126500  0.50451300  0.99070700  1
  C  569  1  0.51681600  0.52067100  0.98636900  1
  C  570  1  0.45741600  0.51765100  0.99397300  1
  C  571  1  0.44339400  0.49833100  0.00572700  1
  C  572  1  0.48742700  0.48238100  0.01000800  1
  C  574  1  0.58973700  0.54230900  0.96741000  1
  C  575  1  0.63356000  0.52620700  0.97145300  1
  C  581  1  0.70752300  0.51653900  0.94599400  1
  C  589  1  0.29673400  0.25096800  0.76510500  1
  C  590  1  0.31093800  0.23919400  0.74578800  1
  C  591  1  0.26624800  0.23484400  0.72973000  1
  C  592  1  0.20688300  0.24243700  0.73287900  1
  C  593  1  0.19309400  0.25412200  0.75226100  1
  C  594  1  0.23734200  0.25837200  0.76813600  1
  C  596  1  0.33898100  0.21602600  0.70787600  1
  C  597  1  0.38305700  0.22010100  0.72387200  1
  C  603  1  0.45782300  0.19491900  0.73345100  1
  C  611  1  0.79671800  0.24835400  0.23408700  1
  C  612  1  0.81091600  0.26009000  0.25342500  1
  C  613  1  0.76620800  0.26442200  0.26948200  1
  C  614  1  0.70682500  0.25685500  0.26630600  1
  C  615  1  0.69308100  0.24516800  0.24691900  1
  C  616  1  0.73733500  0.24094800  0.23103800  1
  C  618  1  0.83893200  0.28319800  0.29137700  1
  C  619  1  0.88303000  0.27913500  0.27538400  1
  C  625  1  0.95789400  0.30428100  0.26580900  1
  C  633  1  0.95289200  0.48503000  0.99494800  1
  C  634  1  0.93651500  0.50274100  0.00870900  1
  C  635  1  0.97848100  0.51956200  0.01381700  1
  C  636  1  0.03716100  0.51879800  0.00500900  1
  C  637  1  0.05294500  0.50110700  0.99118100  1
  C  638  1  0.01140000  0.48449100  0.98614100  1
  C  640  1  0.90425400  0.53762900  0.03561100  1
  C  641  1  0.86286000  0.52089800  0.03072600  1
  C  647  1  0.79558400  0.51023400  0.05816800  1
  C  655  1  0.45290700  0.01416100  0.00421400  1
  C  656  1  0.43650500  0.99642600  0.99048900  1
  C  657  1  0.47847300  0.97960200  0.98539700  1
  C  658  1  0.53717100  0.98038400  0.99418500  1
  C  659  1  0.55298600  0.99810300  0.00797300  1
  C  660  1  0.51143800  0.01471900  0.01300300  1
  C  662  1  0.40418700  0.96147000  0.96368300  1
  C  663  1  0.36278800  0.97820800  0.96854800  1
  C  669  1  0.29550700  0.98842000  0.94093300  1
  C  677  1  0.70255200  0.24528000  0.76549300  1
  C  678  1  0.68620600  0.25916200  0.74787000  1
  C  679  1  0.72819800  0.26437600  0.73109000  1
  C  680  1  0.78683500  0.25552100  0.73177800  1
  C  681  1  0.80259200  0.24158000  0.74938200  1
  C  682  1  0.76105100  0.23646100  0.76597700  1
  C  684  1  0.65398000  0.28627300  0.71313900  1
  C  685  1  0.61255600  0.28128100  0.72982800  1
  C  691  1  0.54515600  0.30874000  0.74034600  1
  C  699  1  0.20249900  0.25390000  0.23370800  1
  C  700  1  0.18618500  0.23999700  0.25131900  1
  C  701  1  0.22819800  0.23477300  0.26808800  1
  C  702  1  0.28683100  0.24363200  0.26740100  1
  C  703  1  0.30252600  0.25761700  0.24982300  1
  C  704  1  0.26097400  0.26274100  0.23323300  1
  C  706  1  0.15403100  0.21283300  0.28601800  1
  C  707  1  0.11258800  0.21783700  0.26933900  1
  C  713  1  0.04518500  0.19043300  0.25868200  1
  C  721  1  0.70100000  0.74560300  0.23583900  1
  C  722  1  0.68679400  0.75780800  0.25488700  1
  C  723  1  0.73138000  0.76236600  0.27093300  1
  C  724  1  0.79068200  0.75463400  0.26799000  1
  C  725  1  0.80443500  0.74246300  0.24890500  1
  C  726  1  0.76025500  0.73794700  0.23307800  1
  C  728  1  0.65882100  0.78184000  0.29227400  1
  C  729  1  0.61486900  0.77758800  0.27627400  1
  C  735  1  0.54126300  0.80303700  0.26621100  1
  C  743  1  0.20098300  0.75359700  0.76332800  1
  C  744  1  0.18679700  0.74138700  0.74428000  1
  C  745  1  0.23139700  0.73683400  0.72823900  1
  C  746  1  0.29069000  0.74457300  0.73118600  1
  C  747  1  0.30442500  0.75674500  0.75027000  1
  C  748  1  0.26022800  0.76126100  0.76609100  1
  C  750  1  0.15886200  0.71735200  0.70689400  1
  C  751  1  0.11490000  0.72159500  0.72289300  1
  C  757  1  0.04125300  0.69616200  0.73295000  1
  C  765  1  0.29573500  0.75450200  0.23505400  1
  C  766  1  0.31200200  0.74055500  0.25263300  1
  C  767  1  0.27000900  0.73533900  0.26941000  1
  C  768  1  0.21140600  0.74422200  0.26873700  1
  C  769  1  0.19571000  0.75822100  0.25116900  1
  C  770  1  0.23729600  0.76337700  0.23460300  1
  C  772  1  0.34409900  0.71332500  0.28728600  1
  C  773  1  0.38551500  0.71830900  0.27059300  1
  C  779  1  0.45272800  0.69092200  0.25973300  1
  C  787  1  0.79570400  0.74470400  0.76412600  1
  C  788  1  0.81195800  0.75866800  0.74655800  1
  C  789  1  0.76994700  0.76389400  0.72978900  1
  C  790  1  0.71134200  0.75501200  0.73046300  1
  C  791  1  0.69569500  0.74097600  0.74800600  1
  C  792  1  0.73728400  0.73581400  0.76457000  1
  C  794  1  0.84400600  0.78593700  0.71193000  1
  C  795  1  0.88543800  0.78094200  0.72861600  1
  C  801  1  0.95268100  0.80826500  0.73960500  1
  C  809  1  0.54697200  0.51375500  0.49615100  1
  C  810  1  0.56094700  0.49487000  0.50864000  1
  C  811  1  0.51614500  0.47898700  0.51345600  1
  C  812  1  0.45686600  0.48191700  0.50569100  1
  C  813  1  0.44336100  0.50084100  0.49323200  1
  C  814  1  0.48773800  0.51651900  0.48847700  1
  C  816  1  0.58851600  0.45776200  0.53315700  1
  C  817  1  0.63268800  0.47360500  0.52864100  1
  C  823  1  0.70678700  0.48381900  0.55383500  1
  C  831  1  0.04696100  0.98542000  0.50303700  1
  C  832  1  0.06093800  0.00429900  0.49053700  1
  C  833  1  0.01614400  0.02018500  0.48572000  1
  C  834  1  0.95687600  0.01726100  0.49349900  1
  C  835  1  0.94335600  0.99834100  0.50596100  1
  C  836  1  0.98773000  0.98266200  0.51071800  1
  C  838  1  0.08851100  0.04139400  0.46600200  1
  C  839  1  0.13267300  0.02554500  0.47051300  1
  C  845  1  0.20679400  0.01532200  0.44533400  1
  C  853  1  0.45258800  0.98503700  0.49466900  1
  C  854  1  0.43642100  0.00243900  0.50885200  1
  C  855  1  0.47845700  0.01914600  0.51423700  1
  C  856  1  0.53698600  0.01858600  0.50528000  1
  C  857  1  0.55257000  0.00120100  0.49103900  1
  C  858  1  0.51095700  0.98469400  0.48572800  1
  C  860  1  0.40449600  0.03676600  0.53651700  1
  C  861  1  0.36303900  0.02013700  0.53136400  1
  C  867  1  0.29591900  0.00906600  0.55869800  1
  C  875  1  0.95262800  0.51415000  0.50448000  1
  C  876  1  0.93646100  0.49675400  0.49029100  1
  C  877  1  0.97850600  0.48005300  0.48489500  1
  C  878  1  0.03704500  0.48061600  0.49384600  1
  C  879  1  0.05259500  0.49798100  0.50811600  1
  C  880  1  0.01098400  0.51448700  0.51342900  1
  C  882  1  0.90455600  0.46243900  0.46260700  1
  C  883  1  0.86308800  0.47906300  0.46776900  1
  C  889  1  0.79593200  0.49020800  0.44047700  1
  C  897  1  0.36043500  0.15522700  0.93860400  1
  C  898  1  0.35356600  0.14746100  0.91684300  1
  C  899  1  0.37739500  0.15953800  0.89887700  1
  C  900  1  0.40773800  0.17965500  0.90260400  1
  C  901  1  0.41536000  0.18709800  0.92439300  1
  C  902  1  0.39224000  0.17500000  0.94219600  1
  C  904  1  0.34259100  0.13173700  0.87417300  1
  C  905  1  0.31976500  0.11957500  0.89197600  1
  C  911  1  0.32750000  0.08126100  0.89352100  1
  C  919  1  0.86049200  0.34400200  0.06063400  1
  C  920  1  0.85340500  0.35173400  0.08239800  1
  C  921  1  0.87714600  0.33965000  0.10037400  1
  C  922  1  0.90775200  0.31959000  0.09665100  1
  C  923  1  0.91563900  0.31218900  0.07485900  1
  C  924  1  0.89251600  0.32427800  0.05704800  1
  C  926  1  0.84193600  0.36737300  0.12508100  1
  C  927  1  0.81928400  0.37956400  0.10726700  1
  C  933  1  0.82702200  0.41787800  0.10575200  1
  C  941  1  0.60920200  0.31122200  0.90627300  1
  C  942  1  0.60418600  0.33286200  0.89798000  1
  C  943  1  0.62842300  0.35089500  0.90984800  1
  C  944  1  0.65645000  0.34740700  0.93047100  1
  C  945  1  0.66182200  0.32574400  0.93852200  1
  C  946  1  0.63888800  0.30784700  0.92651900  1
  C  948  1  0.59726900  0.37519200  0.88108400  1
  C  949  1  0.57348800  0.35733800  0.86926200  1
  C  955  1  0.58182100  0.35491300  0.83100200  1
  C  963  1  0.10931700  0.18793900  0.09293100  1
  C  964  1  0.10422300  0.16630100  0.10121700  1
  C  965  1  0.12844700  0.14826400  0.08935000  1
  C  966  1  0.15653600  0.15175100  0.06873800  1
  C  967  1  0.16195500  0.17341400  0.06069100  1
  C  968  1  0.13903400  0.19131200  0.07269100  1
  C  970  1  0.09716600  0.12396600  0.11809700  1
  C  971  1  0.07340400  0.14182500  0.12991900  1
  C  977  1  0.08166900  0.14423800  0.16818100  1
  C  985  1  0.64706400  0.84182700  0.06181200  1
  C  986  1  0.64995600  0.85022800  0.08346300  1
  C  987  1  0.62447600  0.83834500  0.10125300  1
  C  988  1  0.59732500  0.81760400  0.09753100  1
  C  989  1  0.59416100  0.80942500  0.07586000  1
  C  990  1  0.61823800  0.82145100  0.05818700  1
  C  992  1  0.65230600  0.86739900  0.12575300  1
  C  993  1  0.67726100  0.87924300  0.10813100  1
  C  999  1  0.66720700  0.91743300  0.10562200  1
  C  1007  1  0.14707200  0.65733300  0.93734100  1
  C  1008  1  0.14995200  0.64893900  0.91568800  1
  C  1009  1  0.12448900  0.66083300  0.89790100  1
  C  1010  1  0.09734900  0.68157500  0.90163100  1
  C  1011  1  0.09418800  0.68974600  0.92330600  1
  C  1012  1  0.11826400  0.67771100  0.94097400  1
  C  1014  1  0.15231800  0.63178900  0.87338800  1
  C  1015  1  0.17725100  0.61993400  0.89100700  1
  C  1021  1  0.16722400  0.58174200  0.89350000  1
  C  1029  1  0.38733300  0.68848200  0.09450500  1
  C  1030  1  0.39026300  0.66696700  0.10325200  1
  C  1031  1  0.36526300  0.64894700  0.09157400  1
  C  1032  1  0.33870700  0.65229000  0.07066500  1
  C  1033  1  0.33545200  0.67383300  0.06215000  1
  C  1034  1  0.35900400  0.69173800  0.07397700  1
  C  1036  1  0.39329500  0.62492100  0.12099800  1
  C  1037  1  0.41790400  0.64275900  0.13261300  1
  C  1043  1  0.40847900  0.64599700  0.17077900  1
  C  1051  1  0.88730800  0.81072500  0.90465500  1
  C  1052  1  0.89022400  0.83223600  0.89590000  1
  C  1053  1  0.86522200  0.85025800  0.90757400  1
  C  1054  1  0.83867000  0.84691900  0.92848400  1
  C  1055  1  0.83547000  0.82538200  0.93701500  1
  C  1056  1  0.85902300  0.80747500  0.92519300  1
  C  1058  1  0.89322200  0.87427500  0.87814000  1
  C  1059  1  0.91784000  0.85643600  0.86652900  1
  C  1065  1  0.90840200  0.85318200  0.82836500  1
  C  1073  1  0.86187200  0.65472400  0.43878700  1
  C  1074  1  0.85877400  0.64594100  0.41729200  1
  C  1075  1  0.88385000  0.65755100  0.39924700  1
  C  1076  1  0.91066100  0.67842000  0.40255400  1
  C  1077  1  0.91407200  0.68697100  0.42407900  1
  C  1078  1  0.89043800  0.67521000  0.44200900  1
  C  1080  1  0.85538700  0.62814300  0.37527300  1
  C  1081  1  0.83070700  0.61659100  0.39313800  1
  C  1087  1  0.83987400  0.57841200  0.39632800  1
  C  1095  1  0.36188500  0.84445600  0.56037500  1
  C  1096  1  0.35880400  0.85323900  0.58187200  1
  C  1097  1  0.38388100  0.84162500  0.59991500  1
  C  1098  1  0.41067500  0.82075300  0.59660400  1
  C  1099  1  0.41407900  0.81220400  0.57507800  1
  C  1100  1  0.39044300  0.82397000  0.55715000  1
  C  1102  1  0.35543100  0.87103200  0.62389300  1
  C  1103  1  0.33075500  0.88258800  0.60602900  1
  C  1109  1  0.33988400  0.92076900  0.60284700  1
  C  1117  1  0.10182600  0.81144400  0.40740200  1
  C  1118  1  0.09878900  0.83309000  0.39899600  1
  C  1119  1  0.12434200  0.85088800  0.41084200  1
  C  1120  1  0.15174600  0.84717100  0.43153900  1
  C  1121  1  0.15512600  0.82550200  0.43970700  1
  C  1122  1  0.13097300  0.80782100  0.42771400  1
  C  1124  1  0.09608800  0.87538600  0.38184300  1
  C  1125  1  0.07108500  0.85775400  0.37002700  1
  C  1131  1  0.08076000  0.85534900  0.33182000  1
  C  1139  1  0.60198800  0.68771300  0.59180700  1
  C  1140  1  0.59892000  0.66606700  0.60020900  1
  C  1141  1  0.62446400  0.64826900  0.58836300  1
  C  1142  1  0.65187500  0.65198600  0.56766700  1
  C  1143  1  0.65525200  0.67365700  0.55949600  1
  C  1144  1  0.63111300  0.69133800  0.57149100  1
  C  1146  1  0.59616900  0.62376900  0.61735400  1
  C  1147  1  0.57117400  0.64140300  0.62917100  1
  C  1153  1  0.58081400  0.64379700  0.66738000  1
  C  1161  1  0.14425700  0.34275000  0.56207600  1
  C  1162  1  0.14572900  0.35175900  0.58350100  1
  C  1163  1  0.11942500  0.34030500  0.60140700  1
  C  1164  1  0.09291200  0.31939400  0.59803900  1
  C  1165  1  0.09113700  0.31061600  0.57658000  1
  C  1166  1  0.11593700  0.32222900  0.55877100  1
  C  1168  1  0.14554500  0.37005000  0.62532300  1
  C  1169  1  0.17131600  0.38146900  0.60758100  1
  C  1175  1  0.16117900  0.41957300  0.60399500  1
  C  1183  1  0.64437400  0.15643800  0.43709100  1
  C  1184  1  0.64581400  0.14742300  0.41567000  1
  C  1185  1  0.61950900  0.15887400  0.39776200  1
  C  1186  1  0.59302000  0.17979000  0.40112500  1
  C  1187  1  0.59126400  0.18857400  0.42258200  1
  C  1188  1  0.61607400  0.17696400  0.44039300  1
  C  1190  1  0.64558200  0.12911700  0.37385300  1
  C  1191  1  0.67134400  0.11769900  0.39159800  1
  C  1197  1  0.66121400  0.07959800  0.39519800  1
  C  1205  1  0.89389600  0.18786700  0.59335200  1
  C  1206  1  0.89535400  0.16633500  0.60210300  1
  C  1207  1  0.86895200  0.14857600  0.59045700  1
  C  1208  1  0.84236700  0.15220100  0.56960100  1
  C  1209  1  0.84052900  0.17376600  0.56109100  1
  C  1210  1  0.86541900  0.19142700  0.57290100  1
  C  1212  1  0.89520200  0.12429300  0.61989000  1
  C  1213  1  0.92107400  0.14189000  0.63150100  1
  C  1219  1  0.91131200  0.14505600  0.66965600  1
  C  1227  1  0.39379200  0.31132500  0.40581600  1
  C  1228  1  0.39525900  0.33285200  0.39705600  1
  C  1229  1  0.36885800  0.35061300  0.40870000  1
  C  1230  1  0.34227300  0.34699200  0.42955800  1
  C  1231  1  0.34047500  0.32543300  0.43808000  1
  C  1232  1  0.36535600  0.30776800  0.42627100  1
  C  1234  1  0.39510800  0.37489300  0.37926400  1
  C  1235  1  0.42097800  0.35729200  0.36765500  1
  C  1241  1  0.41122200  0.35412500  0.32950200  1
  H  7  1  0.23760100  0.11362200  0.02500800  1
  H  16  1  0.31336700  0.05508400  0.01071500  1
  H  19  1  0.19668900  0.05596700  0.97376400  1
  H  20  1  0.23715400  0.11332800  0.96630300  1
  H  21  1  0.05162100  0.07875700  0.04754600  1
  H  22  1  0.48223400  0.09904100  0.98724800  1
  H  24  1  0.46815900  0.05952400  0.00641200  1
  H  25  1  0.44758500  0.04866300  0.98045800  1
  H  27  1  0.40353900  0.11793000  0.94914600  1
  H  28  1  0.41805200  0.13355700  0.97306300  1
  H  30  1  0.10119200  0.13119900  0.03569400  1
  H  31  1  0.10407500  0.11362600  0.05879100  1
  H  33  1  0.03880400  0.05857700  0.00109800  1
  H  34  1  0.06619700  0.04436300  0.02444200  1
  H  41  1  0.73762400  0.38557100  0.97416400  1
  H  50  1  0.81337400  0.44409800  0.98845200  1
  H  53  1  0.69667700  0.44319000  0.02544900  1
  H  54  1  0.73716700  0.38586900  0.03288700  1
  H  55  1  0.55155000  0.42040700  0.95168500  1
  H  56  1  0.98224700  0.40016000  0.01194400  1
  H  58  1  0.96816600  0.43966600  0.99274700  1
  H  59  1  0.94760700  0.45053200  0.01870100  1
  H  61  1  0.90353800  0.38130300  0.05007100  1
  H  62  1  0.91808800  0.36565700  0.02616800  1
  H  64  1  0.60106200  0.36801500  0.96345900  1
  H  65  1  0.60418400  0.38559600  0.94037000  1
  H  67  1  0.53879000  0.44058100  0.99814500  1
  H  68  1  0.56612200  0.45479200  0.97479100  1
  H  75  1  0.48633600  0.22575300  0.86608800  1
  H  84  1  0.56333100  0.23839800  0.80661400  1
  H  87  1  0.44694100  0.27426200  0.80629700  1
  H  88  1  0.48666000  0.28358600  0.86412000  1
  H  89  1  0.30449300  0.19991100  0.83052500  1
  H  90  1  0.73183600  0.26230000  0.85036000  1
  H  92  1  0.71776100  0.24284000  0.81090600  1
  H  93  1  0.69756700  0.26884500  0.80007900  1
  H  95  1  0.65294800  0.30053300  0.86907600  1
  H  96  1  0.66741000  0.27669200  0.88479600  1
  H  98  1  0.36107100  0.21701300  0.88537300  1
  H  99  1  0.34627100  0.19379700  0.86889700  1
  H  101  1  0.28904100  0.24582600  0.80941300  1
  H  102  1  0.31868900  0.22284100  0.79521900  1
  H  109  1  0.98615800  0.27318600  0.13295100  1
  H  118  1  0.06328600  0.26078600  0.19255300  1
  H  121  1  0.94699900  0.22504400  0.19301300  1
  H  122  1  0.98674200  0.21547300  0.13513000  1
  H  123  1  0.80503900  0.29952800  0.16859400  1
  H  124  1  0.23185900  0.23689200  0.14885400  1
  H  126  1  0.21769300  0.25638100  0.18829400  1
  H  127  1  0.19759800  0.23036200  0.19911100  1
  H  129  1  0.15298700  0.19860600  0.13014900  1
  H  130  1  0.16752800  0.22244400  0.11443200  1
  H  132  1  0.86255000  0.28171900  0.11346400  1
  H  133  1  0.84533900  0.30483300  0.12975800  1
  H  135  1  0.78907000  0.25364900  0.18983300  1
  H  136  1  0.81906200  0.27656200  0.20404400  1
  H  143  1  0.75846800  0.88525300  0.97226000  1
  H  152  1  0.68256400  0.94185100  0.98852800  1
  H  155  1  0.80487300  0.93967900  0.02627100  1
  H  156  1  0.76694800  0.88452400  0.03230500  1
  H  157  1  0.94426000  0.92032300  0.95000000  1
  H  158  1  0.51939000  0.89569800  0.01359700  1
  H  160  1  0.52795800  0.93476600  0.99412900  1
  H  161  1  0.54929000  0.94695000  0.01937900  1
  H  163  1  0.60026400  0.87823400  0.05080300  1
  H  164  1  0.58809600  0.86213700  0.02703700  1
  H  166  1  0.89772000  0.86870600  0.95906600  1
  H  167  1  0.88655200  0.88686100  0.93672900  1
  H  169  1  0.96127100  0.93729100  0.99758900  1
  H  170  1  0.93356300  0.95334900  0.97556100  1
  H  177  1  0.25846500  0.61394500  0.02689900  1
  H  186  1  0.18251700  0.55733900  0.01068300  1
  H  189  1  0.30485900  0.55948700  0.97291700  1
  H  190  1  0.26694100  0.61461500  0.96685000  1
  H  191  1  0.44433300  0.57891300  0.04914300  1
  H  192  1  0.01938400  0.60349400  0.98560300  1
  H  194  1  0.02794000  0.56442800  0.00511200  1
  H  195  1  0.04917000  0.55225300  0.97984600  1
  H  197  1  0.10028800  0.62091600  0.94835300  1
  H  198  1  0.08810000  0.63703000  0.97210700  1
  H  200  1  0.39768400  0.63052200  0.04004300  1
  H  201  1  0.38664600  0.61237700  0.06239600  1
  H  203  1  0.46126000  0.56189700  0.00157000  1
  H  204  1  0.43359900  0.54586500  0.02362300  1
  H  211  1  0.51250000  0.77489500  0.13593400  1
  H  220  1  0.43559300  0.76074200  0.19429200  1
  H  223  1  0.55100500  0.72310400  0.19340000  1
  H  224  1  0.51086100  0.71624900  0.13600800  1
  H  225  1  0.69939200  0.79603600  0.17088500  1
  H  226  1  0.26637800  0.73869500  0.14976100  1
  H  228  1  0.28071100  0.75745100  0.18961700  1
  H  229  1  0.29986800  0.73125500  0.20024100  1
  H  231  1  0.34245600  0.70024000  0.13105300  1
  H  232  1  0.33113600  0.72420000  0.11519000  1
  H  234  1  0.65182600  0.78516900  0.11906200  1
  H  235  1  0.64577400  0.80824500  0.13657600  1
  H  237  1  0.70965600  0.74937700  0.19109700  1
  H  238  1  0.68361200  0.77304400  0.20512200  1
  H  245  1  0.01251000  0.72429700  0.86324200  1
  H  254  1  0.93558500  0.73844500  0.80488700  1
  H  257  1  0.05096900  0.77608500  0.80576700  1
  H  258  1  0.01084900  0.78294700  0.86316300  1
  H  259  1  0.19938200  0.70315500  0.82827600  1
  H  260  1  0.76636400  0.76048200  0.84942500  1
  H  262  1  0.78071200  0.74171900  0.80956100  1
  H  263  1  0.79982800  0.76792400  0.79895200  1
  H  265  1  0.84244800  0.79895000  0.86811200  1
  H  266  1  0.83112300  0.77500000  0.88399000  1
  H  268  1  0.15183000  0.71402600  0.88010800  1
  H  269  1  0.14580100  0.69095000  0.86259300  1
  H  271  1  0.20963800  0.74981500  0.80806700  1
  H  272  1  0.18358900  0.72614900  0.79404100  1
  H  279  1  0.73645600  0.61344500  0.52503100  1
  H  288  1  0.81290200  0.55498500  0.51094500  1
  H  291  1  0.69732500  0.55593300  0.47331000  1
  H  292  1  0.73816000  0.61328500  0.46637500  1
  H  293  1  0.54875000  0.57899900  0.54599100  1
  H  294  1  0.98240800  0.59951500  0.48925400  1
  H  296  1  0.96768400  0.55958200  0.50794000  1
  H  297  1  0.94912300  0.54914900  0.48161100  1
  H  299  1  0.90681200  0.61825900  0.45065000  1
  H  300  1  0.91783300  0.63411700  0.47463600  1
  H  302  1  0.59749300  0.63067500  0.53505600  1
  H  303  1  0.60271400  0.61316700  0.55816700  1
  H  305  1  0.53881700  0.55858500  0.49934800  1
  H  306  1  0.56420800  0.54471600  0.52320400  1
  H  313  1  0.23641500  0.88572900  0.47414300  1
  H  322  1  0.31287400  0.94419700  0.48822100  1
  H  325  1  0.19731600  0.94323800  0.52587200  1
  H  326  1  0.23815100  0.88589200  0.53278700  1
  H  327  1  0.04864400  0.92015500  0.45322500  1
  H  328  1  0.48238800  0.89967300  0.50991000  1
  H  330  1  0.46767100  0.93960600  0.49123500  1
  H  331  1  0.44907000  0.95004600  0.51755900  1
  H  333  1  0.40680300  0.88092800  0.54851500  1
  H  334  1  0.41783200  0.86507100  0.52453100  1
  H  336  1  0.09741200  0.86850000  0.46414600  1
  H  337  1  0.10264000  0.88600000  0.44103100  1
  H  339  1  0.03879000  0.94058500  0.49986500  1
  H  340  1  0.06413600  0.95444400  0.47599900  1
  H  347  1  0.99064700  0.72203900  0.36399700  1
  H  356  1  0.06608600  0.73830700  0.30733200  1
  H  359  1  0.94338000  0.77607800  0.30966200  1
  H  360  1  0.98194800  0.78211500  0.36466800  1
  H  361  1  0.80364300  0.70009200  0.32963700  1
  H  362  1  0.22940200  0.76310600  0.35353200  1
  H  364  1  0.22061500  0.74369400  0.31438200  1
  H  365  1  0.19976800  0.76908700  0.30238100  1
  H  367  1  0.14881000  0.80041800  0.37105200  1
  H  368  1  0.16074000  0.77661000  0.38711400  1
  H  370  1  0.85163600  0.70913300  0.38097700  1
  H  371  1  0.86204000  0.68675300  0.36281100  1
  H  373  1  0.78726000  0.74780600  0.31244600  1
  H  374  1  0.81383200  0.72544200  0.29659300  1
  H  381  1  0.49066000  0.77712600  0.63515900  1
  H  390  1  0.56606200  0.76089500  0.69183800  1
  H  393  1  0.44342000  0.72311900  0.68953200  1
  H  394  1  0.48202400  0.71704100  0.63451500  1
  H  395  1  0.30369200  0.79910500  0.66953200  1
  H  396  1  0.72945600  0.73608200  0.64568100  1
  H  398  1  0.72059600  0.75552600  0.68481800  1
  H  399  1  0.69977600  0.73013300  0.69682200  1
  H  401  1  0.64886900  0.69874600  0.62817600  1
  H  402  1  0.66086200  0.72254100  0.61210100  1
  H  404  1  0.35166000  0.79003600  0.61818300  1
  H  405  1  0.36205100  0.81242300  0.63634200  1
  H  407  1  0.28728100  0.75140600  0.68673800  1
  H  408  1  0.31389100  0.77376600  0.70258600  1
  H  415  1  0.25922500  0.38542300  0.47270300  1
  H  424  1  0.18254700  0.44208300  0.48837400  1
  H  427  1  0.30371500  0.44009500  0.52677700  1
  H  428  1  0.26519500  0.38488300  0.53266900  1
  H  429  1  0.44640300  0.42009900  0.45155000  1
  H  430  1  0.01855200  0.39543500  0.51165400  1
  H  432  1  0.02799300  0.43483700  0.49244600  1
  H  433  1  0.04685300  0.44661300  0.51815200  1
  H  435  1  0.09616300  0.37827900  0.54964200  1
  H  436  1  0.08747700  0.36190700  0.52586500  1
  H  438  1  0.39950300  0.36886100  0.46046300  1
  H  439  1  0.38873400  0.38690000  0.43799900  1
  H  441  1  0.46081500  0.43747900  0.49921500  1
  H  442  1  0.43469900  0.45316800  0.47665700  1
  H  449  1  0.75924800  0.11376300  0.52647200  1
  H  458  1  0.68252600  0.05710100  0.51079500  1
  H  461  1  0.80373700  0.05909000  0.47239700  1
  H  462  1  0.76527000  0.11429900  0.46652500  1
  H  463  1  0.94649300  0.07911200  0.54759400  1
  H  464  1  0.51860300  0.10378200  0.48751800  1
  H  466  1  0.52798000  0.06436400  0.50670300  1
  H  467  1  0.54685600  0.05259900  0.48099400  1
  H  469  1  0.59622200  0.12092800  0.44953600  1
  H  470  1  0.58758400  0.13730300  0.47331400  1
  H  472  1  0.89952400  0.13033900  0.53867100  1
  H  473  1  0.88883000  0.11230600  0.56114500  1
  H  475  1  0.96082600  0.06170900  0.49993100  1
  H  476  1  0.93476200  0.04603600  0.52250500  1
  H  483  1  0.00937700  0.27667900  0.63668700  1
  H  492  1  0.93255000  0.26074800  0.69331300  1
  H  495  1  0.05326700  0.22232600  0.69107000  1
  H  496  1  0.01498200  0.21677600  0.63579400  1
  H  497  1  0.19584400  0.29784500  0.67185200  1
  H  498  1  0.76839700  0.23748900  0.64668000  1
  H  500  1  0.77772900  0.25642300  0.68606200  1
  H  501  1  0.79742600  0.23086000  0.69796400  1
  H  503  1  0.84629200  0.19977400  0.62917800  1
  H  504  1  0.83703100  0.22368800  0.61305000  1
  H  506  1  0.15035400  0.28907300  0.62050800  1
  H  507  1  0.13820600  0.31153400  0.63844100  1
  H  509  1  0.21091200  0.25021000  0.68872200  1
  H  510  1  0.18384300  0.27227900  0.70487100  1
  H  517  1  0.50939800  0.22249300  0.36249000  1
  H  526  1  0.43254300  0.23842100  0.30587600  1
  H  529  1  0.55316000  0.27686500  0.30811500  1
  H  530  1  0.51492400  0.28240800  0.36339500  1
  H  531  1  0.69576900  0.20132600  0.32725400  1
  H  532  1  0.26835000  0.26165800  0.35250600  1
  H  534  1  0.27772300  0.24271500  0.31311900  1
  H  535  1  0.29736700  0.26828600  0.30122600  1
  H  537  1  0.34622100  0.29939500  0.36998900  1
  H  538  1  0.33696700  0.27548900  0.38613200  1
  H  540  1  0.65043900  0.21008100  0.37861800  1
  H  541  1  0.63818400  0.18762500  0.36068800  1
  H  543  1  0.71087700  0.24896100  0.31043200  1
  H  544  1  0.68372000  0.22693100  0.29424500  1
  H  555  1  0.09984900  0.94278500  0.04020000  1
  H  556  1  0.97593200  0.03066200  0.98068100  1
  H  557  1  0.90107600  0.00318400  0.98753800  1
  H  560  1  0.25394300  0.97896000  0.05729700  1
  H  561  1  0.17982900  0.97828200  0.06741400  1
  H  562  1  0.20385500  0.00023900  0.04999200  1
  H  564  1  0.90906200  0.95984800  0.02283700  1
  H  566  1  0.09359300  0.03497500  0.97793000  1
  H  577  1  0.59985000  0.55636400  0.95899000  1
  H  578  1  0.47590600  0.46851400  0.01854200  1
  H  579  1  0.40105900  0.49599700  0.01168400  1
  H  582  1  0.75397300  0.52017500  0.94192300  1
  H  583  1  0.67987100  0.52083000  0.93179300  1
  H  584  1  0.70390600  0.49889600  0.94924300  1
  H  586  1  0.40904300  0.53930400  0.97636100  1
  H  588  1  0.59358400  0.46419800  0.02129200  1
  H  599  1  0.34893200  0.20766200  0.69377200  1
  H  600  1  0.22602100  0.26688600  0.78203900  1
  H  601  1  0.15080500  0.26009200  0.75467700  1
  H  604  1  0.50423200  0.19093900  0.72965100  1
  H  605  1  0.43031500  0.18061100  0.72939400  1
  H  606  1  0.45469000  0.19830300  0.75108000  1
  H  608  1  0.15814100  0.22505000  0.71114500  1
  H  610  1  0.34328900  0.26969600  0.78622200  1
  H  621  1  0.84887400  0.29154000  0.30549400  1
  H  622  1  0.72603000  0.23245000  0.21712500  1
  H  623  1  0.65078800  0.23920900  0.24448700  1
  H  626  1  0.00429700  0.30825300  0.26963200  1
  H  627  1  0.93039800  0.31860300  0.26982900  1
  H  628  1  0.95483500  0.30087200  0.24818300  1
  H  630  1  0.65807400  0.27417900  0.28808100  1
  H  632  1  0.84322600  0.22964600  0.21293700  1
  H  643  1  0.89266600  0.55065900  0.04532200  1
  H  644  1  0.02421700  0.47180100  0.97615000  1
  H  645  1  0.09480500  0.50040300  0.98441000  1
  H  648  1  0.74856300  0.51186300  0.06263300  1
  H  649  1  0.82246800  0.51709700  0.07153100  1
  H  650  1  0.80558000  0.49271700  0.05633500  1
  H  652  1  0.08668200  0.53849200  0.02443500  1
  H  654  1  0.90533000  0.46522700  0.97505800  1
  H  665  1  0.39257000  0.94840900  0.95401800  1
  H  666  1  0.52427200  0.02742600  0.02296900  1
  H  667  1  0.59486700  0.99882300  0.01472700  1
  H  670  1  0.24841900  0.98682000  0.93655900  1
  H  671  1  0.32213700  0.98119300  0.92769200  1
  H  672  1  0.30586900  0.00594300  0.94237200  1
  H  674  1  0.58667400  0.96067900  0.97476300  1
  H  676  1  0.40534000  0.03396300  0.02410400  1
  H  687  1  0.64239800  0.29605000  0.70015700  1
  H  688  1  0.77386000  0.22639800  0.77861000  1
  H  689  1  0.84443300  0.23478800  0.75004000  1
  H  692  1  0.49808200  0.31313500  0.73874500  1
  H  693  1  0.57185100  0.32208100  0.73333800  1
  H  694  1  0.55535000  0.30705900  0.75786200  1
  H  696  1  0.83676700  0.27503700  0.71230700  1
  H  698  1  0.65497600  0.22531200  0.78522100  1
  H  709  1  0.14247800  0.20303500  0.29898700  1
  H  710  1  0.27375100  0.27282500  0.22061400  1
  H  711  1  0.34435600  0.26442100  0.24916800  1
  H  714  1  0.99813600  0.18600900  0.26029900  1
  H  715  1  0.07197200  0.17705300  0.26556600  1
  H  716  1  0.05523600  0.19224700  0.24116800  1
  H  718  1  0.33680800  0.22412700  0.28686700  1
  H  720  1  0.15487500  0.27386800  0.21399200  1
  H  731  1  0.64888700  0.79053100  0.30617900  1
  H  732  1  0.77161800  0.72916700  0.21934900  1
  H  733  1  0.84668800  0.73639700  0.24664700  1
  H  736  1  0.49487800  0.80725600  0.26978800  1
  H  737  1  0.56912800  0.81725200  0.27027000  1
  H  738  1  0.54481400  0.79949800  0.24862400  1
  H  740  1  0.83935400  0.77252100  0.28933000  1
  H  742  1  0.65384500  0.72682400  0.21491000  1
  H  753  1  0.14894100  0.70866100  0.69298700  1
  H  754  1  0.27158000  0.77004100  0.77982300  1
  H  755  1  0.34667000  0.76281600  0.75253000  1
  H  758  1  0.99487600  0.69194400  0.72935900  1
  H  759  1  0.06911500  0.68194200  0.72891400  1
  H  760  1  0.04475700  0.69971500  0.75053700  1
  H  762  1  0.33938000  0.72668600  0.70985000  1
  H  764  1  0.15380800  0.77236900  0.78425700  1
  H  775  1  0.35563300  0.70349900  0.30023700  1
  H  776  1  0.22454500  0.77349300  0.22200500  1
  H  777  1  0.15390100  0.76504300  0.25052900  1
  H  780  1  0.49973500  0.68643200  0.26133100  1
  H  781  1  0.42580700  0.67751900  0.26649900  1
  H  782  1  0.44273900  0.69288700  0.24223100  1
  H  784  1  0.16176800  0.72466800  0.28827200  1
  H  786  1  0.34370800  0.77449000  0.21548100  1
  H  797  1  0.85552300  0.79578000  0.69899100  1
  H  798  1  0.72455600  0.72567900  0.77715600  1
  H  799  1  0.65389200  0.73414700  0.74864200  1
  H  802  1  0.99966700  0.81278000  0.73798900  1
  H  803  1  0.92568200  0.82170700  0.73295900  1
  H  804  1  0.94282800  0.80617700  0.75710400  1
  H  806  1  0.66168800  0.77454600  0.71091600  1
  H  808  1  0.84370900  0.72470600  0.78368100  1
  H  819  1  0.59830000  0.44394900  0.54201900  1
  H  820  1  0.47655200  0.53013800  0.47949400  1
  H  821  1  0.40116800  0.50305900  0.48709500  1
  H  824  1  0.75316100  0.48018500  0.55802200  1
  H  825  1  0.67903400  0.48001500  0.56814800  1
  H  826  1  0.70350400  0.50136700  0.55007000  1
  H  828  1  0.40793500  0.46066600  0.52360600  1
  H  830  1  0.59437300  0.53440500  0.47713900  1
  H  841  1  0.09829800  0.05520400  0.45713600  1
  H  842  1  0.97654000  0.96904700  0.51970300  1
  H  843  1  0.90116400  0.99612800  0.51210000  1
  H  846  1  0.25316600  0.01895900  0.44114700  1
  H  847  1  0.17904600  0.01911100  0.43101600  1
  H  848  1  0.20352700  0.99777500  0.44911200  1
  H  850  1  0.90793100  0.03849700  0.47557100  1
  H  852  1  0.09437000  0.96477600  0.52205100  1
  H  863  1  0.39301900  0.04960300  0.54650000  1
  H  864  1  0.52363700  0.97221800  0.47545100  1
  H  865  1  0.59431300  0.00065600  0.48415500  1
  H  868  1  0.24891200  0.01061100  0.56320800  1
  H  869  1  0.32283500  0.01575400  0.57214300  1
  H  870  1  0.30596900  0.99158400  0.55661200  1
  H  872  1  0.58704500  0.03788200  0.52493500  1
  H  874  1  0.40450900  0.96562600  0.47455100  1
  H  885  1  0.89308600  0.44960900  0.45261600  1
  H  886  1  0.02364900  0.52695400  0.52372100  1
  H  887  1  0.09433600  0.49852400  0.51500200  1
  H  890  1  0.74893600  0.48865300  0.43595500  1
  H  891  1  0.82288900  0.48359200  0.42701000  1
  H  892  1  0.80590200  0.50768900  0.44263600  1
  H  894  1  0.08710700  0.46130200  0.47421000  1
  H  896  1  0.90453600  0.53354900  0.52460600  1
  H  907  1  0.33880200  0.12611000  0.85840600  1
  H  908  1  0.39866800  0.18067500  0.95786000  1
  H  909  1  0.43731900  0.20156300  0.92738500  1
  H  912  1  0.30127200  0.06648400  0.89030500  1
  H  913  1  0.34112300  0.08100200  0.91079800  1
  H  914  1  0.36718500  0.08079500  0.88302000  1
  H  916  1  0.45338600  0.18364300  0.87441400  1
  H  918  1  0.32642600  0.15186800  0.96927600  1
  H  929  1  0.83799700  0.37297700  0.14085300  1
  H  930  1  0.89910600  0.31863100  0.04138300  1
  H  931  1  0.93776500  0.29775900  0.07187300  1
  H  934  1  0.80078500  0.43265300  0.10896900  1
  H  935  1  0.84070300  0.41815300  0.08848100  1
  H  936  1  0.86667100  0.41833400  0.11627200  1
  H  938  1  0.95268100  0.31566100  0.12502600  1
  H  940  1  0.82644000  0.34734200  0.02997200  1
  H  951  1  0.59487200  0.39085100  0.87505900  1
  H  952  1  0.64396600  0.29227200  0.93261000  1
  H  953  1  0.68232000  0.32289900  0.95330200  1
  H  956  1  0.55601200  0.35800000  0.81609800  1
  H  957  1  0.59446700  0.33753400  0.83115800  1
  H  958  1  0.62209200  0.36509900  0.83040000  1
  H  960  1  0.70717000  0.37425600  0.93466200  1
  H  962  1  0.57597100  0.28038200  0.90304000  1
  H  973  1  0.09472000  0.10830600  0.12411600  1
  H  974  1  0.14414700  0.20688900  0.06660500  1
  H  975  1  0.18248600  0.17625500  0.04591600  1
  H  978  1  0.05582600  0.14115400  0.18307700  1
  H  979  1  0.09434700  0.16161300  0.16803200  1
  H  980  1  0.12191800  0.13404100  0.16879000  1
  H  982  1  0.20714700  0.12487500  0.06455300  1
  H  984  1  0.07612200  0.21878500  0.09616100  1
  H  995  1  0.65298800  0.87353000  0.14139300  1
  H  996  1  0.61440800  0.81533000  0.04257600  1
  H  997  1  0.57421300  0.79457700  0.07283700  1
  H  1000  1  0.69210600  0.93250700  0.10889200  1
  H  1001  1  0.65557200  0.91718000  0.08814900  1
  H  1002  1  0.62633600  0.91777900  0.11549300  1
  H  1004  1  0.54408800  0.81340700  0.12369600  1
  H  1006  1  0.68169200  0.84539600  0.03126400  1
  H  1017  1  0.15299900  0.62566500  0.85774600  1
  H  1018  1  0.11443400  0.68382500  0.95658700  1
  H  1019  1  0.07424700  0.70459300  0.92633500  1
  H  1022  1  0.19212800  0.56667200  0.89022100  1
  H  1023  1  0.15560900  0.58198700  0.91097500  1
  H  1024  1  0.12634600  0.58139800  0.88363400  1
  H  1026  1  0.04410400  0.68578300  0.87546800  1
  H  1028  1  0.18172900  0.65375600  0.96788400  1
  H  1039  1  0.39430800  0.60936300  0.12732600  1
  H  1040  1  0.35549700  0.70722600  0.06752800  1
  H  1041  1  0.31614800  0.67657800  0.04713300  1
  H  1044  1  0.43356300  0.64294300  0.18585600  1
  H  1045  1  0.39713700  0.66349000  0.17023300  1
  H  1046  1  0.36745400  0.63622800  0.17138700  1
  H  1048  1  0.28619100  0.62592700  0.06621700  1
  H  1050  1  0.42250200  0.71907800  0.09736500  1
  H  1061  1  0.89422200  0.88983200  0.87180600  1
  H  1062  1  0.85554100  0.79198900  0.93164900  1
  H  1063  1  0.81618400  0.82264200  0.95203600  1
  H  1066  1  0.93347800  0.85623400  0.81328500  1
  H  1067  1  0.89707600  0.83568800  0.82891600  1
  H  1068  1  0.86736900  0.86294700  0.82775400  1
  H  1070  1  0.78614200  0.87328000  0.93293800  1
  H  1072  1  0.92250000  0.78013200  0.90180700  1
  H  1083  1  0.85424800  0.62179500  0.35972200  1
  H  1084  1  0.89404600  0.68167800  0.45748700  1
  H  1085  1  0.93350700  0.70197200  0.42678900  1
  H  1088  1  0.81461600  0.56336500  0.39332200  1
  H  1089  1  0.85151200  0.57893600  0.41379400  1
  H  1090  1  0.88073300  0.57776300  0.38646600  1
  H  1092  1  0.96277600  0.68280200  0.37607600  1
  H  1094  1  0.82657900  0.65196000  0.46937000  1
  H  1105  1  0.35429500  0.87737700  0.63944500  1
  H  1106  1  0.39403800  0.81750200  0.54167200  1
  H  1107  1  0.43350800  0.79720500  0.57236600  1
  H  1110  1  0.31461400  0.93581200  0.60585800  1
  H  1111  1  0.35151300  0.92024900  0.58538000  1
  H  1112  1  0.38074600  0.92142000  0.61270600  1
  H  1114  1  0.46279800  0.81636800  0.62308200  1
  H  1116  1  0.32658400  0.84722200  0.52979400  1
  H  1127  1  0.09526100  0.89102900  0.37572000  1
  H  1128  1  0.13495500  0.79220800  0.43381800  1
  H  1129  1  0.17525600  0.82248600  0.45452300  1
  H  1132  1  0.05565100  0.85860000  0.31679000  1
  H  1133  1  0.09265400  0.83789800  0.33202100  1
  H  1134  1  0.12147900  0.86530200  0.33143300  1
  H  1136  1  0.20463700  0.87343600  0.43568700  1
  H  1138  1  0.06716000  0.78091100  0.40384300  1
  H  1149  1  0.59532400  0.60812500  0.62347200  1
  H  1150  1  0.63508500  0.70695100  0.56538500  1
  H  1151  1  0.67537200  0.67667000  0.54467800  1
  H  1154  1  0.55569000  0.64054600  0.68240600  1
  H  1155  1  0.59272200  0.66124600  0.66718400  1
  H  1156  1  0.62152600  0.63383900  0.66776800  1
  H  1158  1  0.70472800  0.62571300  0.56350600  1
  H  1160  1  0.56729800  0.71824700  0.59535400  1
  H  1171  1  0.14533200  0.37658900  0.64079900  1
  H  1172  1  0.11315000  0.31567600  0.54330600  1
  H  1173  1  0.07180500  0.29560700  0.57382100  1
  H  1176  1  0.18581200  0.43474800  0.60705300  1
  H  1177  1  0.15051000  0.41884900  0.58645200  1
  H  1178  1  0.11977600  0.42013700  0.61355000  1
  H  1180  1  0.03871300  0.31530900  0.62399300  1
  H  1182  1  0.18084300  0.34563800  0.53176500  1
  H  1193  1  0.64535000  0.12257300  0.35838000  1
  H  1194  1  0.61329900  0.18352100  0.45585600  1
  H  1195  1  0.57194100  0.20358500  0.42534000  1
  H  1198  1  0.68583800  0.06442000  0.39214100  1
  H  1199  1  0.65057400  0.08032800  0.41274400  1
  H  1200  1  0.61979300  0.07903000  0.38565300  1
  H  1202  1  0.53875400  0.18386500  0.37518700  1
  H  1204  1  0.68096900  0.15355200  0.46740000  1
  H  1215  1  0.89501600  0.10873800  0.62623800  1
  H  1216  1  0.86261600  0.20696900  0.56653700  1
  H  1217  1  0.82115400  0.17670800  0.54612400  1
  H  1220  1  0.93605600  0.14180200  0.68476500  1
  H  1221  1  0.90077400  0.16261800  0.66914200  1
  H  1222  1  0.86983800  0.13554000  0.67016200  1
  H  1224  1  0.78857500  0.12618300  0.56522600  1
  H  1226  1  0.93033400  0.21816300  0.59659000  1
  H  1237  1  0.39492400  0.39044600  0.37291500  1
  H  1238  1  0.36257800  0.29222600  0.43264300  1
  H  1239  1  0.32111800  0.32249400  0.45305100  1
  H  1242  1  0.43597000  0.35737600  0.31439100  1
  H  1243  1  0.40068000  0.33656400  0.33001500  1
  H  1244  1  0.36975100  0.36364100  0.32899200  1
  H  1246  1  0.28849400  0.37301200  0.43394200  1
  H  1248  1  0.43027100  0.28103200  0.40258900  1
  N  551  1  0.03331500  0.96025700  0.02432000  1
  N  554  1  0.11770000  0.99109500  0.01608600  1
  N  563  1  0.91201000  0.96522000  0.00685800  1
  N  565  1  0.09081400  0.03063000  0.99422900  1
  N  573  1  0.53331600  0.53890300  0.97488000  1
  N  576  1  0.61768200  0.50806200  0.98311800  1
  N  585  1  0.41200600  0.53395400  0.99234500  1
  N  587  1  0.59078800  0.46853500  0.00499100  1
  N  595  1  0.28255000  0.22341800  0.71143100  1
  N  598  1  0.36737700  0.23170300  0.74208100  1
  N  607  1  0.16139200  0.24099600  0.71659300  1
  N  609  1  0.34099000  0.25343300  0.78170500  1
  N  617  1  0.78249700  0.27582000  0.28779800  1
  N  620  1  0.86736000  0.26756300  0.25715300  1
  N  629  1  0.66133000  0.25824700  0.28259400  1
  N  631  1  0.84100300  0.24589900  0.21749600  1
  N  639  1  0.96023000  0.53626400  0.02712200  1
  N  642  1  0.88050000  0.50422700  0.01734100  1
  N  651  1  0.08033200  0.53568600  0.00793700  1
  N  653  1  0.91179500  0.46753000  0.99163100  1
  N  661  1  0.46019100  0.96286500  0.97213900  1
  N  664  1  0.38045600  0.99491100  0.98188900  1
  N  673  1  0.58035600  0.96349900  0.99126100  1
  N  675  1  0.41180000  0.03165900  0.00753000  1
  N  683  1  0.70995600  0.27778300  0.71446900  1
  N  686  1  0.63018300  0.26779200  0.74642000  1
  N  695  1  0.82999600  0.25852500  0.71489300  1
  N  697  1  0.66148200  0.24189400  0.78299400  1
  N  705  1  0.20999500  0.22133800  0.28469300  1
  N  708  1  0.13017800  0.23135000  0.25276200  1
  N  717  1  0.32999500  0.24063700  0.28428700  1
  N  719  1  0.16141900  0.25728800  0.21621000  1
  N  727  1  0.71513100  0.77421100  0.28896600  1
  N  730  1  0.63050000  0.76557200  0.25832800  1
  N  739  1  0.83619200  0.75645900  0.28422400  1
  N  741  1  0.65713900  0.74315400  0.21908400  1
  N  749  1  0.21516500  0.72498600  0.71020400  1
  N  752  1  0.13051400  0.73361800  0.74083600  1
  N  761  1  0.33621600  0.74274600  0.71495600  1
  N  763  1  0.15711500  0.75604100  0.78008100  1
  N  771  1  0.28818000  0.72187600  0.28599800  1
  N  774  1  0.36796000  0.73186000  0.25404200  1
  N  783  1  0.16822700  0.74118300  0.28560500  1
  N  785  1  0.33683100  0.75791200  0.21757200  1
  N  793  1  0.78809400  0.77737600  0.71321300  1
  N  796  1  0.86790600  0.76737100  0.74515300  1
  N  805  1  0.66817800  0.75803300  0.71358900  1
  N  807  1  0.83681600  0.74128700  0.78160300  1
  N  815  1  0.53220600  0.46108400  0.52553400  1
  N  818  1  0.61724600  0.49141400  0.51639400  1
  N  827  1  0.41136500  0.46567700  0.50752200  1
  N  829  1  0.59099800  0.53041900  0.49351400  1
  N  837  1  0.03220600  0.03808200  0.47363400  1
  N  840  1  0.11723000  0.00774400  0.48277400  1
  N  849  1  0.91137400  0.03350000  0.49165800  1
  N  851  1  0.09097900  0.96875400  0.50567500  1
  N  859  1  0.46037000  0.03557500  0.52791000  1
  N  862  1  0.38050900  0.00374900  0.51760200  1
  N  871  1  0.58011000  0.03545500  0.50840900  1
  N  873  1  0.41153100  0.96756800  0.49114000  1
  N  881  1  0.96042800  0.46363100  0.47121400  1
  N  884  1  0.88055200  0.49544500  0.48153900  1
  N  893  1  0.08015200  0.46373900  0.49073500  1
  N  895  1  0.91156200  0.53161600  0.50801800  1
  N  903  1  0.37064200  0.15108900  0.87828500  1
  N  906  1  0.32562100  0.12804100  0.91254300  1
  N  915  1  0.42931800  0.19309400  0.88527800  1
  N  917  1  0.33919900  0.14212300  0.95627400  1
  N  925  1  0.87012400  0.34804700  0.12097400  1
  N  928  1  0.82535100  0.37113400  0.08669300  1
  N  937  1  0.92928700  0.30617000  0.11399800  1
  N  939  1  0.83923800  0.35709800  0.04296100  1
  N  947  1  0.62388800  0.37128900  0.90074800  1
  N  950  1  0.57749100  0.33694500  0.87827400  1
  N  959  1  0.67852700  0.36472400  0.94382200  1
  N  961  1  0.58836000  0.29341200  0.89326300  1
  N  969  1  0.12384000  0.12786700  0.09844100  1
  N  972  1  0.07747700  0.16221800  0.12091500  1
  N  981  1  0.17857500  0.13443000  0.05538800  1
  N  983  1  0.08847200  0.20574900  0.10593600  1
  N  991  1  0.62676600  0.84758700  0.12163500  1
  N  994  1  0.67545000  0.87010800  0.08775200  1
  N  1003  1  0.57390400  0.80428300  0.11463000  1
  N  1005  1  0.66770800  0.85508200  0.04413800  1
  N  1013  1  0.12678000  0.65160100  0.87751500  1
  N  1016  1  0.17544500  0.62906100  0.91139000  1
  N  1025  1  0.07392600  0.69490400  0.88453800  1
  N  1027  1  0.16772500  0.64407300  0.95501000  1
  N  1035  1  0.36787400  0.62870100  0.10109500  1
  N  1038  1  0.41580100  0.66300200  0.12318900  1
  N  1047  1  0.31667100  0.63494000  0.05734300  1
  N  1049  1  0.40890100  0.70633900  0.10730400  1
  N  1057  1  0.86781400  0.87050100  0.89804400  1
  N  1060  1  0.91575300  0.83619700  0.87596000  1
  N  1069  1  0.81665000  0.86427300  0.94180600  1
  N  1071  1  0.90889200  0.79286600  0.89186400  1
  N  1079  1  0.88105500  0.64800900  0.37901400  1
  N  1082  1  0.83299900  0.62603500  0.41336900  1
  N  1091  1  0.93255700  0.69171700  0.38516800  1
  N  1093  1  0.84023800  0.64198700  0.45666700  1
  N  1101  1  0.38109000  0.85116400  0.62015000  1
  N  1104  1  0.33303200  0.87314500  0.58579800  1
  N  1113  1  0.43257500  0.80745500  0.61398900  1
  N  1115  1  0.34024100  0.85719500  0.54249800  1
  N  1123  1  0.12186700  0.87127400  0.40161300  1
  N  1126  1  0.07306300  0.83737300  0.37915600  1
  N  1135  1  0.17509200  0.86428600  0.44484900  1
  N  1137  1  0.08120800  0.79377200  0.39415300  1
  N  1145  1  0.62196400  0.62788300  0.59758700  1
  N  1148  1  0.57317500  0.66178400  0.62004800  1
  N  1157  1  0.67519000  0.63487100  0.55435000  1
  N  1159  1  0.58133300  0.70538600  0.60504800  1
  N  1167  1  0.12049400  0.35008500  0.62154800  1
  N  1170  1  0.17074000  0.37179100  0.58744300  1
  N  1179  1  0.06962300  0.30629400  0.61532500  1
  N  1181  1  0.16556500  0.35559900  0.54422400  1
  N  1189  1  0.62055400  0.14908700  0.37762400  1
  N  1192  1  0.67080300  0.12738500  0.41173100  1
  N  1201  1  0.56969400  0.19288200  0.38384000  1
  N  1203  1  0.66567000  0.14359100  0.45494600  1
  N  1211  1  0.87004800  0.12831600  0.59999100  1
  N  1214  1  0.92049000  0.16214100  0.62206500  1
  N  1223  1  0.81919400  0.13506200  0.55628100  1
  N  1225  1  0.91527600  0.20555400  0.60640600  1
  N  1233  1  0.36995400  0.37087300  0.39916300  1
  N  1236  1  0.42039500  0.33704200  0.37709400  1
  N  1245  1  0.31913100  0.36413300  0.44287900  1
  N  1247  1  0.41519900  0.29363400  0.39276600  1
  O  8  1  0.05185400  0.08676500  0.03347000  1
  O  15  1  0.46021100  0.09152200  0.97542100  1
  O  17  1  0.20081800  0.05040300  0.98889300  1
  O  18  1  0.25808100  0.11890700  0.97941000  1
  O  42  1  0.55182300  0.41239500  0.96575800  1
  O  49  1  0.96022800  0.40768500  0.02376900  1
  O  51  1  0.70080500  0.44876300  0.01032300  1
  O  52  1  0.75810800  0.38028400  0.01978500  1
  O  76  1  0.30327100  0.21430000  0.83794200  1
  O  83  1  0.70980800  0.27411200  0.84281900  1
  O  85  1  0.45108000  0.25898100  0.80115800  1
  O  86  1  0.50741000  0.27054800  0.86994500  1
  O  110  1  0.80352000  0.28509000  0.16128400  1
  O  117  1  0.20984700  0.22507700  0.15639500  1
  O  119  1  0.95111600  0.24034200  0.19809600  1
  O  120  1  0.00743200  0.22851100  0.12927700  1
  O  144  1  0.94473400  0.91157800  0.96362700  1
  O  151  1  0.54108900  0.90380000  0.02511800  1
  O  153  1  0.80013700  0.94613000  0.01152300  1
  O  154  1  0.74518800  0.87874900  0.01946900  1
  O  178  1  0.44476500  0.58764700  0.03550800  1
  O  185  1  0.04105800  0.59538700  0.97408000  1
  O  187  1  0.30012400  0.55304300  0.98766900  1
  O  188  1  0.24520100  0.62040500  0.97968400  1
  O  212  1  0.69856200  0.78195200  0.16289900  1
  O  219  1  0.28753700  0.72669400  0.15734000  1
  O  221  1  0.54725600  0.73823100  0.19900100  1
  O  222  1  0.49027800  0.72942000  0.13040400  1
  O  246  1  0.19855800  0.71724000  0.83626200  1
  O  253  1  0.78752000  0.77248000  0.84184200  1
  O  255  1  0.04722900  0.76095500  0.80017000  1
  O  256  1  0.99027100  0.76977800  0.86877000  1
  O  280  1  0.54988600  0.58691600  0.53187100  1
  O  287  1  0.96140900  0.59197100  0.47719300  1
  O  289  1  0.70107400  0.55037400  0.48845400  1
  O  290  1  0.75863100  0.61889400  0.47956600  1
  O  314  1  0.04981400  0.91224200  0.46734900  1
  O  321  1  0.46139600  0.90721700  0.52197200  1
  O  323  1  0.20105600  0.94879700  0.51072800  1
  O  324  1  0.25862600  0.88028300  0.51959600  1
  O  348  1  0.80363000  0.71377600  0.33829500  1
  O  355  1  0.20782700  0.77468400  0.34546800  1
  O  357  1  0.94816000  0.76132900  0.30322000  1
  O  358  1  0.00362500  0.76926300  0.37044700  1
  O  382  1  0.30366500  0.78541900  0.66087600  1
  O  389  1  0.70787200  0.72450700  0.65374800  1
  O  391  1  0.44818900  0.73787400  0.69596300  1
  O  392  1  0.50369400  0.72989300  0.62873200  1
  O  416  1  0.44610400  0.41150400  0.46527400  1
  O  423  1  0.03909400  0.40358900  0.52342200  1
  O  425  1  0.29932800  0.44645300  0.51197300  1
  O  426  1  0.24394700  0.37902200  0.51975600  1
  O  450  1  0.94615800  0.08770100  0.53386500  1
  O  457  1  0.53913000  0.09562500  0.47574900  1
  O  459  1  0.79934300  0.05273200  0.48719900  1
  O  460  1  0.74400800  0.12016200  0.47943300  1
  O  484  1  0.19585800  0.28420300  0.66312800  1
  O  491  1  0.78912500  0.22572700  0.65477800  1
  O  493  1  0.04912600  0.23709000  0.69754000  1
  O  494  1  0.99378200  0.22974800  0.63004200  1
  O  518  1  0.69582200  0.21495900  0.33599100  1
  O  525  1  0.28907100  0.27342100  0.34440400  1
  O  527  1  0.54905000  0.26210200  0.30164100  1
  O  528  1  0.49373100  0.26943400  0.36914700  1
  O  558  1  0.19146500  0.96984000  0.03420400  1
  O  580  1  0.69145300  0.52931200  0.96499400  1
  O  602  1  0.44098300  0.21376800  0.72059100  1
  O  624  1  0.94095800  0.28545500  0.27868600  1
  O  646  1  0.80511200  0.52197500  0.03795400  1
  O  668  1  0.30498500  0.97709600  0.96138800  1
  O  690  1  0.55475300  0.28844500  0.72875400  1
  O  712  1  0.05480600  0.21065000  0.27041200  1
  O  734  1  0.55707600  0.78421400  0.27928700  1
  O  756  1  0.05711300  0.71497200  0.71986600  1
  O  778  1  0.44324200  0.71105300  0.27162300  1
  O  800  1  0.94314800  0.78821300  0.72758600  1
  O  822  1  0.69050200  0.47053800  0.53521400  1
  O  844  1  0.19048700  0.02861600  0.46394300  1
  O  866  1  0.30533000  0.02109800  0.53864600  1
  O  888  1  0.80538600  0.47810200  0.46048100  1
  O  910  1  0.29078000  0.10007300  0.88869400  1
  O  932  1  0.79027900  0.39906100  0.11054400  1
  O  954  1  0.54509200  0.36043500  0.84961300  1
  O  976  1  0.04496600  0.13873000  0.14955900  1
  O  998  1  0.70451300  0.89907300  0.11144900  1
  O  1020  1  0.20451300  0.60010700  0.88767900  1
  O  1042  1  0.44538800  0.63975300  0.15244900  1
  O  1064  1  0.94531200  0.85943900  0.84669100  1
  O  1086  1  0.80301500  0.59678700  0.39017500  1
  O  1108  1  0.30304500  0.90238800  0.60899900  1
  O  1130  1  0.04357000  0.86106300  0.35024700  1
  O  1152  1  0.54363800  0.63809100  0.64894700  1
  O  1174  1  0.19825600  0.40140600  0.61057900  1
  O  1196  1  0.69827800  0.09776100  0.38860000  1
  O  1218  1  0.94817000  0.13863900  0.65137100  1
  O  1240  1  0.44808200  0.36054200  0.34778500  1
