# generated using pymatgen
data_H8C9N2
_symmetry_space_group_name_H-M   'P 1'
_cell_length_a   59.45840000
_cell_length_b   59.45840000
_cell_length_c   59.45840000
_cell_angle_alpha   90.00000000
_cell_angle_beta   90.00000000
_cell_angle_gamma   90.00000000
_symmetry_Int_Tables_number   1
_chemical_formula_structural   H8C9N2
_chemical_formula_sum   'H1536 C1728 N384'
_cell_volume   210203.36063297
_cell_formula_units_Z   192
loop_
 _symmetry_equiv_pos_site_id
 _symmetry_equiv_pos_as_xyz
  1  'x, y, z'
loop_
 _atom_site_type_symbol
 _atom_site_label
 _atom_site_symmetry_multiplicity
 _atom_site_fract_x
 _atom_site_fract_y
 _atom_site_fract_z
 _atom_site_occupancy
  H  5  1  0.11337000  0.31439600  0.40463100  1
  H  6  1  0.09017100  0.31327300  0.38632100  1
  H  9  1  0.05136500  0.30299300  0.39904000  1
  H  10  1  0.04659500  0.29474600  0.42678600  1
  H  11  1  0.05812800  0.34379700  0.38997900  1
  H  12  1  0.05920400  0.36407800  0.41144700  1
  H  15  1  0.04808500  0.32572900  0.45944200  1
  H  16  1  0.05457200  0.35322800  0.45204900  1
  H  18  1  0.08283600  0.29370400  0.45493800  1
  H  19  1  0.10835900  0.30386600  0.44517300  1
  H  21  1  0.09325300  0.36429500  0.44006100  1
  H  22  1  0.11490500  0.34451000  0.43708700  1
  H  27  1  0.88967900  0.68866500  0.40461700  1
  H  28  1  0.91288900  0.68977500  0.38631500  1
  H  31  1  0.95167700  0.70007800  0.39903500  1
  H  32  1  0.95644800  0.70832400  0.42678200  1
  H  33  1  0.94490900  0.65927100  0.38997300  1
  H  34  1  0.94385300  0.63899300  0.41144600  1
  H  37  1  0.95496700  0.67733900  0.45943400  1
  H  38  1  0.94848000  0.64983900  0.45204000  1
  H  40  1  0.92020500  0.70935800  0.45494000  1
  H  41  1  0.89468400  0.69919500  0.44517200  1
  H  43  1  0.90979200  0.63876900  0.44006900  1
  H  44  1  0.88814200  0.65855600  0.43709200  1
  H  49  1  0.88966400  0.31439800  0.59843700  1
  H  50  1  0.91287000  0.31326300  0.61673700  1
  H  53  1  0.95166700  0.30297700  0.60400500  1
  H  54  1  0.95642800  0.29473700  0.57625500  1
  H  55  1  0.94491300  0.34378000  0.61307900  1
  H  56  1  0.94384000  0.36406600  0.59161400  1
  H  59  1  0.95494000  0.32572500  0.54361200  1
  H  60  1  0.94845800  0.35322500  0.55101000  1
  H  62  1  0.92017600  0.29370800  0.54811300  1
  H  63  1  0.89466100  0.30387500  0.55788900  1
  H  65  1  0.90978200  0.36429700  0.56300500  1
  H  66  1  0.88812700  0.34451600  0.56598400  1
  H  71  1  0.11339900  0.68865300  0.59844500  1
  H  72  1  0.09019200  0.68978600  0.61674500  1
  H  75  1  0.05140100  0.70008800  0.60401700  1
  H  76  1  0.04663700  0.70833200  0.57626800  1
  H  77  1  0.05814500  0.65927900  0.61308200  1
  H  78  1  0.05920900  0.63900000  0.59161200  1
  H  81  1  0.04811900  0.67735300  0.54361900  1
  H  82  1  0.05459000  0.64984800  0.55101000  1
  H  84  1  0.08289600  0.70935300  0.54812100  1
  H  85  1  0.10840600  0.69917600  0.55789800  1
  H  87  1  0.09326500  0.63876100  0.56300400  1
  H  88  1  0.11492600  0.65853600  0.56598200  1
  H  93  1  0.40462200  0.11337100  0.31440000  1
  H  94  1  0.38631500  0.09016700  0.31328500  1
  H  97  1  0.39903900  0.05136900  0.30299300  1
  H  98  1  0.42678600  0.04660000  0.29474600  1
  H  99  1  0.38997900  0.05813400  0.34379800  1
  H  100  1  0.41145100  0.05920400  0.36407600  1
  H  103  1  0.45944100  0.04809200  0.32572500  1
  H  104  1  0.45205000  0.05457600  0.35322700  1
  H  106  1  0.45493700  0.08284600  0.29370400  1
  H  107  1  0.44516800  0.10836700  0.30386800  1
  H  109  1  0.44006200  0.09325900  0.36429700  1
  H  110  1  0.43708700  0.11491000  0.34451000  1
  H  115  1  0.40462200  0.88966900  0.68866000  1
  H  116  1  0.38631400  0.91286700  0.68979700  1
  H  119  1  0.39903200  0.95166900  0.70008400  1
  H  120  1  0.42678100  0.95644000  0.70832400  1
  H  121  1  0.38995800  0.94491600  0.65928100  1
  H  122  1  0.41142200  0.94385000  0.63899300  1
  H  125  1  0.45942400  0.95496300  0.67732600  1
  H  126  1  0.45202200  0.94847800  0.64982700  1
  H  128  1  0.45493800  0.92019800  0.70934600  1
  H  129  1  0.44517000  0.89467800  0.69918100  1
  H  131  1  0.44004400  0.90979900  0.63875900  1
  H  132  1  0.43707200  0.88814400  0.65854100  1
  H  137  1  0.59844000  0.88967400  0.31439100  1
  H  138  1  0.61673500  0.91289000  0.31328500  1
  H  141  1  0.60400400  0.95167500  0.30298200  1
  H  142  1  0.57625300  0.95643700  0.29473500  1
  H  143  1  0.61306600  0.94490600  0.34379000  1
  H  144  1  0.59159000  0.94384300  0.36406500  1
  H  147  1  0.54360400  0.95494300  0.32571200  1
  H  148  1  0.55099400  0.94846100  0.35321500  1
  H  150  1  0.54811100  0.92018300  0.29369600  1
  H  151  1  0.55788800  0.89466700  0.30386300  1
  H  153  1  0.56298000  0.90977600  0.36428700  1
  H  154  1  0.56596400  0.88812500  0.34450100  1
  H  159  1  0.59843500  0.11339800  0.68865500  1
  H  160  1  0.61674000  0.09019600  0.68979700  1
  H  163  1  0.60401700  0.05139800  0.70008900  1
  H  164  1  0.57626800  0.04663200  0.70833200  1
  H  165  1  0.61308200  0.05813900  0.65928300  1
  H  166  1  0.59161400  0.05920900  0.63899800  1
  H  169  1  0.54361900  0.04811200  0.67735100  1
  H  170  1  0.55101000  0.05458500  0.64984600  1
  H  172  1  0.54811800  0.08288600  0.70935500  1
  H  173  1  0.55789300  0.10839900  0.69918000  1
  H  175  1  0.56300700  0.09325900  0.63876100  1
  H  176  1  0.56598200  0.11492000  0.65853600  1
  H  181  1  0.31440000  0.40464100  0.11338100  1
  H  182  1  0.31327100  0.38633100  0.09018200  1
  H  185  1  0.30299000  0.39905400  0.05137700  1
  H  186  1  0.29474700  0.42680300  0.04660800  1
  H  187  1  0.34379300  0.38998700  0.05813700  1
  H  188  1  0.36407800  0.41145400  0.05921300  1
  H  191  1  0.32573400  0.45945200  0.04809800  1
  H  192  1  0.35323400  0.45205700  0.05458400  1
  H  194  1  0.29371100  0.45495200  0.08285300  1
  H  195  1  0.30387300  0.44518400  0.10837400  1
  H  197  1  0.36430000  0.44006600  0.09326400  1
  H  198  1  0.34451500  0.43709400  0.11491600  1
  H  203  1  0.68865800  0.40460400  0.88967900  1
  H  204  1  0.68978500  0.38629900  0.91288200  1
  H  207  1  0.70008100  0.39901700  0.95167700  1
  H  208  1  0.70832400  0.42676600  0.95644800  1
  H  209  1  0.65927600  0.38995000  0.94492100  1
  H  210  1  0.63899300  0.41141900  0.94386000  1
  H  213  1  0.67733400  0.45941200  0.95497000  1
  H  214  1  0.64983400  0.45201700  0.94848500  1
  H  216  1  0.70935100  0.45492300  0.92020600  1
  H  217  1  0.69918600  0.44515500  0.89468600  1
  H  219  1  0.63876400  0.44004000  0.90980400  1
  H  220  1  0.65854600  0.43706500  0.88814900  1
  H  225  1  0.31439600  0.59844500  0.88967600  1
  H  226  1  0.31326400  0.61674700  0.91288000  1
  H  229  1  0.30297800  0.60402100  0.95167900  1
  H  230  1  0.29473500  0.57627000  0.95644200  1
  H  231  1  0.34378300  0.61308700  0.94492300  1
  H  232  1  0.36406600  0.59162000  0.94384800  1
  H  235  1  0.32572000  0.54362400  0.95495300  1
  H  236  1  0.35322200  0.55101900  0.94847100  1
  H  238  1  0.29370300  0.54812600  0.92019300  1
  H  239  1  0.30386800  0.55789900  0.89467400  1
  H  241  1  0.36429200  0.56301000  0.90979200  1
  H  242  1  0.34451000  0.56598900  0.88813900  1
  H  247  1  0.68866000  0.59843200  0.11339800  1
  H  248  1  0.68977600  0.61672900  0.09018600  1
  H  251  1  0.70008600  0.60399900  0.05140100  1
  H  252  1  0.70833200  0.57625200  0.04663700  1
  H  253  1  0.65927600  0.61305900  0.05815500  1
  H  254  1  0.63900000  0.59158500  0.05921500  1
  H  257  1  0.67735800  0.54359900  0.04812200  1
  H  258  1  0.64985300  0.55098500  0.05459500  1
  H  260  1  0.70936000  0.54810300  0.08289600  1
  H  261  1  0.69918500  0.55788100  0.10840700  1
  H  263  1  0.63876800  0.56297700  0.09327500  1
  H  264  1  0.65854600  0.56595500  0.11493300  1
  H  269  1  0.31439600  0.11337000  0.59842300  1
  H  270  1  0.31327300  0.09017100  0.61673400  1
  H  273  1  0.30299300  0.05136500  0.60401400  1
  H  274  1  0.29474600  0.04659500  0.57626800  1
  H  275  1  0.34379700  0.05812800  0.61307600  1
  H  276  1  0.36407800  0.05920400  0.59160700  1
  H  279  1  0.32572900  0.04808500  0.54361200  1
  H  280  1  0.35322800  0.05457200  0.55100500  1
  H  282  1  0.29370400  0.08283600  0.54811600  1
  H  283  1  0.30386600  0.10835900  0.55788100  1
  H  285  1  0.36429500  0.09325300  0.56299400  1
  H  286  1  0.34451000  0.11490500  0.56596700  1
  H  291  1  0.68866500  0.88967900  0.59843700  1
  H  292  1  0.68977500  0.91288900  0.61673900  1
  H  295  1  0.70007800  0.95167700  0.60401900  1
  H  296  1  0.70832400  0.95644800  0.57627200  1
  H  297  1  0.65927100  0.94490900  0.61308100  1
  H  298  1  0.63899300  0.94385300  0.59160900  1
  H  301  1  0.67733900  0.95496700  0.54362000  1
  H  302  1  0.64983900  0.94848000  0.55101400  1
  H  304  1  0.70935800  0.92020500  0.54811400  1
  H  305  1  0.69919500  0.89468400  0.55788200  1
  H  307  1  0.63876900  0.90979200  0.56298500  1
  H  308  1  0.65855600  0.88814200  0.56596200  1
  H  313  1  0.31439800  0.88966400  0.40461700  1
  H  314  1  0.31326300  0.91287000  0.38631700  1
  H  317  1  0.30297700  0.95166700  0.39904900  1
  H  318  1  0.29473700  0.95642800  0.42679900  1
  H  319  1  0.34378000  0.94491300  0.38997500  1
  H  320  1  0.36406600  0.94384000  0.41144100  1
  H  323  1  0.32572500  0.95494000  0.45944200  1
  H  324  1  0.35322500  0.94845800  0.45204400  1
  H  326  1  0.29370800  0.92017600  0.45494200  1
  H  327  1  0.30387500  0.89466100  0.44516500  1
  H  329  1  0.36429700  0.90978200  0.44004900  1
  H  330  1  0.34451600  0.88812700  0.43707000  1
  H  335  1  0.68865300  0.11339900  0.40460900  1
  H  336  1  0.68978600  0.09019200  0.38630900  1
  H  339  1  0.70008800  0.05140100  0.39903700  1
  H  340  1  0.70833200  0.04663700  0.42678600  1
  H  341  1  0.65927900  0.05814500  0.38997200  1
  H  342  1  0.63900000  0.05920900  0.41144200  1
  H  345  1  0.67735300  0.04811900  0.45943500  1
  H  346  1  0.64984800  0.05459000  0.45204400  1
  H  348  1  0.70935300  0.08289600  0.45493300  1
  H  349  1  0.69917600  0.10840600  0.44515700  1
  H  351  1  0.63876100  0.09326500  0.44005100  1
  H  352  1  0.65853600  0.11492600  0.43707200  1
  H  357  1  0.11337100  0.40462200  0.68865500  1
  H  358  1  0.09016700  0.38631500  0.68977000  1
  H  361  1  0.05136900  0.39903900  0.70006100  1
  H  362  1  0.04660000  0.42678600  0.70830900  1
  H  363  1  0.05813400  0.38997900  0.65925600  1
  H  364  1  0.05920400  0.41145100  0.63897800  1
  H  367  1  0.04809200  0.45944100  0.67732900  1
  H  368  1  0.05457600  0.45205000  0.64982700  1
  H  370  1  0.08284600  0.45493700  0.70935000  1
  H  371  1  0.10836700  0.44516800  0.69918600  1
  H  373  1  0.09325900  0.44006200  0.63875700  1
  H  374  1  0.11491000  0.43708700  0.65854400  1
  H  379  1  0.88966900  0.40462200  0.31439500  1
  H  380  1  0.91286700  0.38631400  0.31325800  1
  H  383  1  0.95166900  0.39903200  0.30297000  1
  H  384  1  0.95644000  0.42678100  0.29473000  1
  H  385  1  0.94491600  0.38995800  0.34377300  1
  H  386  1  0.94385000  0.41142200  0.36406100  1
  H  389  1  0.95496300  0.45942400  0.32572900  1
  H  390  1  0.94847800  0.45202200  0.35322700  1
  H  392  1  0.92019800  0.45493800  0.29370800  1
  H  393  1  0.89467800  0.44517000  0.30387300  1
  H  395  1  0.90979900  0.44004400  0.36429500  1
  H  396  1  0.88814400  0.43707200  0.34451300  1
  H  401  1  0.88967400  0.59844000  0.68866300  1
  H  402  1  0.91289000  0.61673500  0.68977000  1
  H  405  1  0.95167500  0.60400400  0.70007300  1
  H  406  1  0.95643700  0.57625300  0.70831900  1
  H  407  1  0.94490600  0.61306600  0.65926400  1
  H  408  1  0.94384300  0.59159000  0.63899000  1
  H  411  1  0.95494300  0.54360400  0.67734200  1
  H  412  1  0.94846100  0.55099400  0.64983900  1
  H  414  1  0.92018300  0.54811100  0.70935800  1
  H  415  1  0.89466700  0.55788800  0.69919100  1
  H  417  1  0.90977600  0.56298000  0.63876800  1
  H  418  1  0.88812500  0.56596400  0.65855300  1
  H  423  1  0.11339800  0.59843500  0.31440000  1
  H  424  1  0.09019600  0.61674000  0.31325800  1
  H  427  1  0.05139800  0.60401700  0.30296500  1
  H  428  1  0.04663200  0.57626800  0.29472200  1
  H  429  1  0.05813900  0.61308200  0.34377100  1
  H  430  1  0.05920900  0.59161400  0.36405600  1
  H  433  1  0.04811200  0.54361900  0.32570300  1
  H  434  1  0.05458500  0.55101000  0.35320800  1
  H  436  1  0.08288600  0.54811800  0.29369900  1
  H  437  1  0.10839900  0.55789300  0.30387500  1
  H  439  1  0.09325900  0.56300700  0.36429300  1
  H  440  1  0.11492000  0.56598200  0.34451800  1
  H  445  1  0.40464100  0.31440000  0.88967200  1
  H  446  1  0.38633100  0.31327100  0.91287200  1
  H  449  1  0.39905400  0.30299000  0.95167700  1
  H  450  1  0.42680300  0.29474700  0.95644500  1
  H  451  1  0.38998700  0.34379300  0.94491600  1
  H  452  1  0.41145400  0.36407800  0.94384100  1
  H  455  1  0.45945200  0.32573400  0.95495500  1
  H  456  1  0.45205700  0.35323400  0.94847000  1
  H  458  1  0.45495200  0.29371100  0.92020100  1
  H  459  1  0.44518400  0.30387300  0.89467900  1
  H  461  1  0.44006600  0.36430000  0.90979100  1
  H  462  1  0.43709400  0.34451500  0.88813900  1
  H  467  1  0.40460400  0.68865800  0.11337500  1
  H  468  1  0.38629900  0.68978500  0.09017200  1
  H  471  1  0.39901700  0.70008100  0.05137700  1
  H  472  1  0.42676600  0.70832400  0.04660600  1
  H  473  1  0.38995000  0.65927600  0.05813400  1
  H  474  1  0.41141900  0.63899300  0.05919500  1
  H  477  1  0.45941200  0.67733400  0.04808400  1
  H  478  1  0.45201700  0.64983400  0.05456900  1
  H  480  1  0.45492300  0.70935100  0.08284900  1
  H  481  1  0.44515500  0.69918600  0.10836800  1
  H  483  1  0.44004000  0.63876400  0.09325100  1
  H  484  1  0.43706500  0.65854600  0.11490500  1
  H  489  1  0.59844500  0.31439600  0.11337900  1
  H  490  1  0.61674700  0.31326400  0.09017400  1
  H  493  1  0.60402100  0.30297800  0.05137600  1
  H  494  1  0.57627000  0.29473500  0.04661200  1
  H  495  1  0.61308700  0.34378300  0.05813100  1
  H  496  1  0.59162000  0.36406600  0.05920600  1
  H  499  1  0.54362400  0.32572000  0.04810100  1
  H  500  1  0.55101900  0.35322200  0.05458300  1
  H  502  1  0.54812600  0.29370300  0.08286100  1
  H  503  1  0.55789900  0.30386800  0.10837900  1
  H  505  1  0.56301000  0.36429200  0.09326200  1
  H  506  1  0.56598900  0.34451000  0.11491600  1
  H  511  1  0.59843200  0.68866000  0.88965600  1
  H  512  1  0.61672900  0.68977600  0.91286800  1
  H  515  1  0.60399900  0.70008600  0.95165400  1
  H  516  1  0.57625200  0.70833200  0.95641800  1
  H  517  1  0.61305900  0.65927600  0.94489900  1
  H  518  1  0.59158500  0.63900000  0.94384000  1
  H  521  1  0.54359900  0.67735800  0.95493300  1
  H  522  1  0.55098500  0.64985300  0.94845800  1
  H  524  1  0.54810300  0.70936000  0.92015800  1
  H  525  1  0.55788100  0.69918500  0.89464700  1
  H  527  1  0.56297700  0.63876800  0.90977900  1
  H  528  1  0.56595500  0.65854600  0.88812000  1
  H  533  1  0.88781600  0.68753600  0.59676800  1
  H  534  1  0.91015900  0.68785900  0.61605400  1
  H  537  1  0.94970800  0.69875600  0.60419200  1
  H  538  1  0.95532800  0.70717800  0.57655400  1
  H  539  1  0.94245600  0.65760300  0.61246300  1
  H  540  1  0.94188900  0.63770600  0.59052900  1
  H  543  1  0.95376400  0.67791900  0.54381500  1
  H  544  1  0.94787100  0.64969300  0.54995800  1
  H  546  1  0.92096800  0.70811900  0.54724500  1
  H  547  1  0.89434300  0.69936300  0.55617900  1
  H  549  1  0.90821100  0.63814400  0.56118600  1
  H  550  1  0.88656800  0.65795400  0.56447500  1
  H  555  1  0.11523500  0.31551500  0.59677400  1
  H  556  1  0.09288900  0.31519200  0.61605400  1
  H  559  1  0.05333800  0.30432500  0.60419200  1
  H  560  1  0.04771700  0.29589800  0.57655600  1
  H  561  1  0.06059800  0.34547700  0.61245700  1
  H  562  1  0.06118500  0.36537000  0.59052000  1
  H  565  1  0.04930000  0.32515000  0.54380700  1
  H  566  1  0.05520100  0.35337500  0.54994600  1
  H  568  1  0.08208000  0.29493900  0.54725100  1
  H  569  1  0.10870800  0.30368500  0.55618900  1
  H  571  1  0.09485600  0.36491200  0.56118900  1
  H  572  1  0.11649600  0.34509700  0.56448200  1
  H  577  1  0.11526300  0.68754600  0.40629700  1
  H  578  1  0.09292300  0.68787200  0.38700800  1
  H  581  1  0.05336500  0.69873200  0.39886500  1
  H  582  1  0.04773900  0.70716000  0.42650000  1
  H  583  1  0.06062400  0.65757900  0.39060100  1
  H  584  1  0.06121800  0.63768300  0.41253500  1
  H  587  1  0.04931500  0.67790600  0.45924900  1
  H  588  1  0.05521400  0.64967900  0.45311000  1
  H  590  1  0.08209400  0.70811400  0.45581100  1
  H  591  1  0.10872400  0.69936800  0.44688000  1
  H  593  1  0.09486400  0.63813900  0.44186000  1
  H  594  1  0.11651100  0.65795100  0.43858600  1
  H  599  1  0.88778500  0.31551600  0.40629100  1
  H  600  1  0.91012700  0.31518700  0.38700300  1
  H  603  1  0.94968400  0.30432200  0.39886400  1
  H  604  1  0.95530700  0.29589900  0.42650200  1
  H  605  1  0.94242500  0.34547500  0.39059200  1
  H  606  1  0.94183500  0.36537300  0.41252400  1
  H  609  1  0.95373100  0.32515800  0.45924400  1
  H  610  1  0.94783200  0.35338300  0.45310000  1
  H  612  1  0.92095000  0.29495100  0.45580900  1
  H  613  1  0.89431900  0.30369800  0.44687500  1
  H  615  1  0.90818300  0.36492600  0.44185200  1
  H  616  1  0.88653600  0.34511200  0.43857600  1
  H  621  1  0.59675800  0.88780900  0.68752900  1
  H  622  1  0.61604400  0.91015200  0.68785600  1
  H  625  1  0.60418200  0.94969900  0.69875200  1
  H  626  1  0.57654400  0.95532000  0.70717300  1
  H  627  1  0.61245800  0.94245000  0.65760100  1
  H  628  1  0.59052500  0.94188500  0.63770300  1
  H  631  1  0.54380900  0.95376100  0.67790900  1
  H  632  1  0.54995400  0.94786800  0.64968400  1
  H  634  1  0.54723500  0.92096300  0.70810800  1
  H  635  1  0.55616700  0.89433800  0.69935300  1
  H  637  1  0.56118200  0.90820800  0.63813400  1
  H  638  1  0.56446900  0.88656300  0.65794400  1
  H  643  1  0.59677400  0.11524400  0.31551500  1
  H  644  1  0.61605400  0.09289700  0.31518800  1
  H  647  1  0.60419000  0.05334600  0.30432000  1
  H  648  1  0.57655300  0.04772700  0.29589400  1
  H  649  1  0.61245700  0.06060400  0.34547500  1
  H  650  1  0.59052000  0.06119400  0.36536800  1
  H  653  1  0.54380700  0.04930700  0.32514800  1
  H  654  1  0.54994700  0.05520700  0.35337300  1
  H  656  1  0.54725100  0.08208900  0.29493900  1
  H  657  1  0.55618900  0.10871700  0.30368600  1
  H  659  1  0.56119100  0.09486000  0.36491100  1
  H  660  1  0.56448200  0.11650200  0.34509800  1
  H  665  1  0.40629700  0.11525500  0.68754500  1
  H  666  1  0.38700800  0.09291400  0.68786900  1
  H  669  1  0.39886400  0.05335600  0.69872700  1
  H  670  1  0.42649800  0.04773000  0.70715500  1
  H  671  1  0.39060100  0.06061800  0.65757600  1
  H  672  1  0.41253500  0.06121000  0.63768100  1
  H  675  1  0.45924900  0.04930800  0.67790200  1
  H  676  1  0.45311000  0.05520800  0.64967800  1
  H  678  1  0.45580900  0.08208400  0.70811200  1
  H  679  1  0.44687900  0.10871500  0.69936800  1
  H  681  1  0.44186200  0.09486100  0.63813700  1
  H  682  1  0.43858600  0.11650500  0.65795200  1
  H  687  1  0.40628100  0.88779000  0.31551000  1
  H  688  1  0.38699500  0.91013400  0.31518300  1
  H  691  1  0.39885500  0.94969100  0.30431900  1
  H  692  1  0.42649100  0.95531300  0.29589400  1
  H  693  1  0.39058700  0.94243000  0.34547300  1
  H  694  1  0.41252000  0.94183800  0.36536800  1
  H  697  1  0.45923700  0.95373600  0.32515000  1
  H  698  1  0.45309500  0.94783600  0.35337500  1
  H  700  1  0.45579800  0.92095500  0.29494100  1
  H  701  1  0.44686400  0.89432600  0.30368800  1
  H  703  1  0.44184800  0.90818500  0.36491600  1
  H  704  1  0.43856900  0.88653900  0.34510200  1
  H  709  1  0.68753300  0.59674800  0.88781600  1
  H  710  1  0.68785700  0.61603400  0.91015900  1
  H  713  1  0.69875100  0.60417400  0.94970800  1
  H  714  1  0.70717500  0.57653600  0.95532800  1
  H  715  1  0.65759900  0.61244500  0.94245700  1
  H  716  1  0.63770100  0.59051200  0.94188700  1
  H  719  1  0.67791400  0.54379700  0.95376600  1
  H  720  1  0.64968900  0.54993900  0.94787300  1
  H  722  1  0.70811500  0.54722600  0.92097300  1
  H  723  1  0.69936100  0.55615900  0.89434600  1
  H  725  1  0.63814000  0.56116900  0.90821500  1
  H  726  1  0.65795100  0.56445500  0.88656900  1
  H  731  1  0.31551800  0.59678400  0.11525100  1
  H  732  1  0.31519000  0.61606400  0.09290400  1
  H  735  1  0.30431900  0.60419900  0.05335400  1
  H  736  1  0.29589400  0.57656100  0.04773600  1
  H  737  1  0.34547200  0.61247000  0.06061000  1
  H  738  1  0.36536800  0.59053600  0.06119500  1
  H  741  1  0.32515200  0.54381900  0.04931300  1
  H  742  1  0.35337800  0.54996100  0.05521200  1
  H  744  1  0.29494600  0.54725800  0.08209900  1
  H  745  1  0.30369300  0.55619700  0.10872500  1
  H  747  1  0.36491700  0.56120400  0.09486500  1
  H  748  1  0.34510500  0.56449500  0.11650800  1
  H  753  1  0.68754800  0.40627700  0.11526400  1
  H  754  1  0.68787400  0.38699000  0.09292200  1
  H  757  1  0.69873600  0.39884700  0.05336600  1
  H  758  1  0.70716300  0.42648100  0.04774000  1
  H  759  1  0.65758200  0.39058200  0.06062600  1
  H  760  1  0.63768800  0.41251700  0.06121600  1
  H  763  1  0.67791100  0.45923000  0.04931700  1
  H  764  1  0.64968400  0.45309200  0.05521500  1
  H  766  1  0.70811700  0.45579300  0.08209800  1
  H  767  1  0.69937000  0.44686000  0.10872700  1
  H  769  1  0.63814200  0.44184300  0.09486700  1
  H  770  1  0.65795600  0.43856700  0.11651300  1
  H  775  1  0.31551300  0.40630100  0.88780100  1
  H  776  1  0.31518700  0.38701300  0.91014200  1
  H  779  1  0.30432700  0.39887200  0.94969900  1
  H  780  1  0.29590300  0.42650800  0.95532500  1
  H  781  1  0.34548000  0.39060600  0.94243700  1
  H  782  1  0.36537500  0.41254100  0.94184500  1
  H  785  1  0.32515700  0.45925600  0.95374400  1
  H  786  1  0.35338200  0.45311500  0.94784200  1
  H  788  1  0.29494600  0.45581600  0.92096800  1
  H  789  1  0.30369000  0.44688400  0.89433800  1
  H  791  1  0.36492100  0.44186500  0.90819100  1
  H  792  1  0.34510300  0.43858900  0.88654800  1
  H  797  1  0.68753600  0.88781600  0.40628600  1
  H  798  1  0.68785900  0.91015900  0.38700000  1
  H  801  1  0.69875600  0.94970800  0.39886200  1
  H  802  1  0.70717800  0.95532800  0.42650000  1
  H  803  1  0.65760300  0.94245600  0.39059100  1
  H  804  1  0.63770600  0.94188900  0.41252500  1
  H  807  1  0.67791900  0.95376400  0.45923900  1
  H  808  1  0.64969300  0.94787100  0.45309700  1
  H  810  1  0.70811900  0.92096800  0.45580900  1
  H  811  1  0.69936300  0.89434300  0.44687500  1
  H  813  1  0.63814400  0.90821100  0.44186900  1
  H  814  1  0.65795400  0.88656800  0.43857900  1
  H  819  1  0.31551500  0.11523500  0.40628100  1
  H  820  1  0.31519200  0.09288900  0.38700000  1
  H  823  1  0.30432500  0.05333800  0.39886200  1
  H  824  1  0.29589800  0.04771700  0.42649800  1
  H  825  1  0.34547700  0.06059800  0.39059700  1
  H  826  1  0.36537000  0.06118500  0.41253400  1
  H  829  1  0.32515000  0.04930000  0.45924700  1
  H  830  1  0.35337500  0.05520100  0.45310800  1
  H  832  1  0.29493900  0.08208000  0.45580300  1
  H  833  1  0.30368500  0.10870800  0.44686500  1
  H  835  1  0.36491200  0.09485600  0.44186500  1
  H  836  1  0.34509700  0.11649600  0.43857200  1
  H  841  1  0.68754600  0.11526300  0.59675700  1
  H  842  1  0.68787200  0.09292300  0.61604600  1
  H  845  1  0.69873200  0.05336500  0.60418900  1
  H  846  1  0.70716000  0.04773900  0.57655400  1
  H  847  1  0.65757900  0.06062400  0.61245300  1
  H  848  1  0.63768300  0.06121800  0.59051900  1
  H  851  1  0.67790600  0.04931500  0.54380500  1
  H  852  1  0.64967900  0.05521400  0.54994400  1
  H  854  1  0.70811400  0.08209400  0.54724300  1
  H  855  1  0.69936800  0.10872400  0.55617400  1
  H  857  1  0.63813900  0.09486400  0.56119400  1
  H  858  1  0.65795100  0.11651100  0.56446900  1
  H  863  1  0.31551600  0.88778500  0.59676300  1
  H  864  1  0.31518700  0.91012700  0.61605100  1
  H  867  1  0.30432200  0.94968400  0.60419000  1
  H  868  1  0.29589900  0.95530700  0.57655300  1
  H  869  1  0.34547500  0.94242500  0.61246200  1
  H  870  1  0.36537300  0.94183500  0.59053000  1
  H  873  1  0.32515800  0.95373100  0.54381000  1
  H  874  1  0.35338300  0.94783200  0.54995400  1
  H  876  1  0.29495100  0.92095000  0.54724500  1
  H  877  1  0.30369800  0.89431900  0.55617900  1
  H  879  1  0.36492600  0.90818300  0.56120200  1
  H  880  1  0.34511200  0.88653600  0.56447900  1
  H  885  1  0.88780900  0.59675800  0.31552500  1
  H  886  1  0.91015200  0.61604400  0.31519900  1
  H  889  1  0.94969900  0.60418200  0.30430200  1
  H  890  1  0.95532000  0.57654400  0.29588100  1
  H  891  1  0.94245000  0.61245800  0.34545300  1
  H  892  1  0.94188500  0.59052500  0.36535100  1
  H  895  1  0.95376100  0.54380900  0.32514500  1
  H  896  1  0.94786800  0.54995400  0.35337000  1
  H  898  1  0.92096300  0.54723500  0.29494600  1
  H  899  1  0.89433800  0.55616700  0.30370100  1
  H  901  1  0.90820800  0.56118200  0.36492100  1
  H  902  1  0.88656300  0.56446900  0.34511000  1
  H  907  1  0.11524400  0.59677400  0.68753900  1
  H  908  1  0.09289700  0.61605400  0.68786600  1
  H  911  1  0.05334600  0.60419000  0.69873400  1
  H  912  1  0.04772700  0.57655300  0.70716000  1
  H  913  1  0.06060400  0.61245700  0.65757900  1
  H  914  1  0.06119400  0.59052000  0.63768600  1
  H  917  1  0.04930700  0.54380700  0.67790600  1
  H  918  1  0.05520700  0.54994700  0.64968100  1
  H  920  1  0.08208900  0.54725100  0.70811500  1
  H  921  1  0.10871700  0.55618900  0.69936800  1
  H  923  1  0.09486000  0.56119100  0.63814400  1
  H  924  1  0.11650200  0.56448200  0.65795600  1
  H  929  1  0.11525500  0.40629700  0.31551000  1
  H  930  1  0.09291400  0.38700800  0.31518500  1
  H  933  1  0.05335600  0.39886400  0.30432700  1
  H  934  1  0.04773000  0.42649800  0.29589900  1
  H  935  1  0.06061800  0.39060100  0.34547900  1
  H  936  1  0.06121000  0.41253500  0.36537300  1
  H  939  1  0.04930800  0.45924900  0.32515200  1
  H  940  1  0.05520800  0.45311000  0.35337600  1
  H  942  1  0.08208400  0.45580900  0.29494200  1
  H  943  1  0.10871500  0.44687900  0.30368600  1
  H  945  1  0.09486100  0.44186200  0.36491700  1
  H  946  1  0.11650500  0.43858600  0.34510200  1
  H  951  1  0.88779000  0.40628100  0.68754500  1
  H  952  1  0.91013400  0.38699500  0.68787100  1
  H  955  1  0.94969100  0.39885500  0.69873600  1
  H  956  1  0.95531300  0.42649100  0.70716000  1
  H  957  1  0.94243000  0.39058700  0.65758100  1
  H  958  1  0.94183800  0.41252000  0.63768600  1
  H  961  1  0.95373600  0.45923700  0.67790400  1
  H  962  1  0.94783600  0.45309500  0.64967900  1
  H  964  1  0.92095500  0.45579800  0.70811400  1
  H  965  1  0.89432600  0.44686400  0.69936600  1
  H  967  1  0.90818500  0.44184800  0.63813900  1
  H  968  1  0.88653900  0.43856900  0.65795200  1
  H  973  1  0.59674800  0.68753300  0.11523900  1
  H  974  1  0.61603400  0.68785700  0.09289500  1
  H  977  1  0.60417400  0.69875100  0.05334600  1
  H  978  1  0.57653600  0.70717500  0.04772500  1
  H  979  1  0.61244500  0.65759900  0.06059700  1
  H  980  1  0.59051200  0.63770100  0.06116800  1
  H  983  1  0.54379700  0.67791400  0.04928800  1
  H  984  1  0.54993900  0.64968900  0.05518200  1
  H  986  1  0.54722600  0.70811500  0.08208100  1
  H  987  1  0.55615900  0.69936100  0.10870800  1
  H  989  1  0.56116900  0.63814000  0.09484000  1
  H  990  1  0.56445500  0.65795100  0.11648500  1
  H  995  1  0.59678400  0.31551800  0.88780400  1
  H  996  1  0.61606400  0.31519000  0.91015100  1
  H  999  1  0.60419900  0.30431900  0.94969900  1
  H  1000  1  0.57656100  0.29589400  0.95531800  1
  H  1001  1  0.61247000  0.34547200  0.94244400  1
  H  1002  1  0.59053600  0.36536800  0.94185800  1
  H  1005  1  0.54381900  0.32515200  0.95374100  1
  H  1006  1  0.54996100  0.35337800  0.94784200  1
  H  1008  1  0.54725800  0.29494600  0.92095600  1
  H  1009  1  0.55619700  0.30369300  0.89432900  1
  H  1011  1  0.56120400  0.36491700  0.90818800  1
  H  1012  1  0.56449500  0.34510500  0.88654600  1
  H  1017  1  0.40627700  0.68754800  0.88779000  1
  H  1018  1  0.38699000  0.68787400  0.91013200  1
  H  1021  1  0.39884700  0.69873600  0.94968900  1
  H  1022  1  0.42648100  0.70716300  0.95531300  1
  H  1023  1  0.39058200  0.65758200  0.94242900  1
  H  1024  1  0.41251700  0.63768800  0.94183800  1
  H  1027  1  0.45923000  0.67791100  0.95373700  1
  H  1028  1  0.45309200  0.64968400  0.94783900  1
  H  1030  1  0.45579300  0.70811700  0.92095600  1
  H  1031  1  0.44686000  0.69937000  0.89432800  1
  H  1033  1  0.44184300  0.63814200  0.90818800  1
  H  1034  1  0.43856700  0.65795600  0.88654100  1
  H  1039  1  0.40630100  0.31551300  0.11525400  1
  H  1040  1  0.38701300  0.31518700  0.09291200  1
  H  1043  1  0.39887200  0.30432700  0.05335400  1
  H  1044  1  0.42650800  0.29590300  0.04773000  1
  H  1045  1  0.39060600  0.34548000  0.06061600  1
  H  1046  1  0.41254100  0.36537500  0.06121000  1
  H  1049  1  0.45925600  0.32515700  0.04931000  1
  H  1050  1  0.45311500  0.35338200  0.05521100  1
  H  1052  1  0.45581600  0.29494600  0.08208600  1
  H  1053  1  0.44688400  0.30369000  0.10871700  1
  H  1055  1  0.44186500  0.36492100  0.09486300  1
  H  1056  1  0.43858900  0.34510300  0.11650600  1
  H  1061  1  0.61344100  0.81388700  0.90562300  1
  H  1062  1  0.59053900  0.81200100  0.88714500  1
  H  1065  1  0.55186300  0.80274600  0.89958500  1
  H  1066  1  0.54615700  0.79534100  0.92718400  1
  H  1067  1  0.55838200  0.84290500  0.88915900  1
  H  1068  1  0.55945500  0.86408800  0.90973200  1
  H  1071  1  0.54761100  0.82809800  0.95911300  1
  H  1072  1  0.55445100  0.85506700  0.95055200  1
  H  1074  1  0.58399500  0.79573400  0.95684400  1
  H  1075  1  0.60866200  0.80594700  0.94586100  1
  H  1077  1  0.59299900  0.86548600  0.93866800  1
  H  1078  1  0.61477400  0.84573400  0.93676100  1
  H  1083  1  0.38961500  0.18918800  0.90561500  1
  H  1084  1  0.41252900  0.19107500  0.88714800  1
  H  1087  1  0.45119300  0.20033500  0.89959400  1
  H  1088  1  0.45689400  0.20772700  0.92719600  1
  H  1089  1  0.44466000  0.16017700  0.88914600  1
  H  1090  1  0.44360100  0.13898700  0.90971300  1
  H  1093  1  0.45544600  0.17495300  0.95910600  1
  H  1094  1  0.44859800  0.14799100  0.95053300  1
  H  1096  1  0.41905100  0.20732500  0.95685200  1
  H  1097  1  0.39438700  0.19711300  0.94586100  1
  H  1099  1  0.41005000  0.13758100  0.93866100  1
  H  1100  1  0.38827500  0.15733400  0.93675400  1
  H  1105  1  0.38960300  0.81389000  0.09744100  1
  H  1106  1  0.41251200  0.81199000  0.11590900  1
  H  1109  1  0.45118100  0.80273100  0.10345700  1
  H  1110  1  0.45687700  0.79533400  0.07585400  1
  H  1111  1  0.44467200  0.84289200  0.11389700  1
  H  1112  1  0.44359900  0.86408000  0.09332900  1
  H  1115  1  0.45542800  0.82809800  0.04394000  1
  H  1116  1  0.44859100  0.85506500  0.05250700  1
  H  1118  1  0.41902600  0.79574100  0.04620700  1
  H  1119  1  0.39436800  0.80596000  0.05720100  1
  H  1121  1  0.41005000  0.86548900  0.06439800  1
  H  1122  1  0.38827000  0.84574400  0.06630900  1
  H  1127  1  0.61345400  0.18916400  0.09745000  1
  H  1128  1  0.59054400  0.19106600  0.11591500  1
  H  1131  1  0.55188000  0.20033000  0.10346300  1
  H  1132  1  0.54618200  0.20773000  0.07586100  1
  H  1133  1  0.55838400  0.16016900  0.11390000  1
  H  1134  1  0.55945200  0.13898200  0.09333000  1
  H  1137  1  0.54763000  0.17496900  0.04394400  1
  H  1138  1  0.55446200  0.14799900  0.05250800  1
  H  1140  1  0.58404500  0.20731800  0.04621200  1
  H  1141  1  0.60869600  0.19709100  0.05721100  1
  H  1143  1  0.59299900  0.13756700  0.06440300  1
  H  1144  1  0.61478400  0.15730800  0.06631300  1
  H  1149  1  0.90561800  0.61344200  0.81388200  1
  H  1150  1  0.88714500  0.59053600  0.81199500  1
  H  1153  1  0.89959000  0.55186500  0.80273300  1
  H  1154  1  0.92719100  0.54616200  0.79533400  1
  H  1155  1  0.88915300  0.55838700  0.84289200  1
  H  1156  1  0.90972200  0.55945300  0.86408000  1
  H  1159  1  0.95910700  0.54761000  0.82810000  1
  H  1160  1  0.95054200  0.55445100  0.85506700  1
  H  1162  1  0.95684900  0.58400500  0.79573800  1
  H  1163  1  0.94586100  0.60866800  0.80595200  1
  H  1165  1  0.93866100  0.59299800  0.86548600  1
  H  1166  1  0.93675700  0.61477600  0.84573400  1
  H  1171  1  0.90560500  0.38961700  0.18916800  1
  H  1172  1  0.88713400  0.41252400  0.19106500  1
  H  1175  1  0.89958400  0.45119400  0.20032200  1
  H  1176  1  0.92718400  0.45689400  0.20771800  1
  H  1177  1  0.88914400  0.44468100  0.16016200  1
  H  1178  1  0.90971200  0.44360900  0.13897400  1
  H  1181  1  0.95910100  0.45544300  0.17495100  1
  H  1182  1  0.95053200  0.44860100  0.14798500  1
  H  1184  1  0.95683700  0.41904400  0.20731500  1
  H  1185  1  0.94584400  0.39438300  0.19709700  1
  H  1187  1  0.93864800  0.41006000  0.13756700  1
  H  1188  1  0.93673700  0.38828200  0.15731500  1
  H  1193  1  0.09743200  0.38960200  0.81386800  1
  H  1194  1  0.11589600  0.41251900  0.81197900  1
  H  1197  1  0.10344700  0.45117900  0.80271700  1
  H  1198  1  0.07584300  0.45687900  0.79532600  1
  H  1199  1  0.11389500  0.44465200  0.84287700  1
  H  1200  1  0.09332800  0.44359100  0.86406600  1
  H  1203  1  0.04393600  0.45543100  0.82809500  1
  H  1204  1  0.05250600  0.44858800  0.85506000  1
  H  1206  1  0.04619200  0.41903200  0.79573100  1
  H  1207  1  0.05718500  0.39437000  0.80594500  1
  H  1209  1  0.06438400  0.41004000  0.86547600  1
  H  1210  1  0.06629100  0.38826300  0.84572400  1
  H  1215  1  0.09744500  0.61345400  0.18915900  1
  H  1216  1  0.11591500  0.59054700  0.19106000  1
  H  1219  1  0.10346700  0.55187800  0.20031700  1
  H  1220  1  0.07586900  0.54617700  0.20772300  1
  H  1221  1  0.11389300  0.55837900  0.16015600  1
  H  1222  1  0.09331900  0.55945300  0.13897400  1
  H  1225  1  0.04393900  0.54763200  0.17497100  1
  H  1226  1  0.05249900  0.55446300  0.14800000  1
  H  1228  1  0.04621600  0.58403500  0.20732100  1
  H  1229  1  0.05721000  0.60869100  0.19709700  1
  H  1231  1  0.06439600  0.59299900  0.13756700  1
  H  1232  1  0.06630900  0.61478400  0.15731000  1
  H  1237  1  0.81388500  0.90562800  0.61344200  1
  H  1238  1  0.81200000  0.88715300  0.59053700  1
  H  1241  1  0.80274100  0.89960200  0.55186500  1
  H  1242  1  0.79533900  0.92720300  0.54616300  1
  H  1243  1  0.84290000  0.88916800  0.55838400  1
  H  1244  1  0.86408600  0.90973900  0.55945700  1
  H  1247  1  0.82810200  0.95912300  0.54761600  1
  H  1248  1  0.85506800  0.95055900  0.55445800  1
  H  1250  1  0.79574000  0.95685600  0.58400800  1
  H  1251  1  0.80595300  0.94586800  0.60867100  1
  H  1253  1  0.86548700  0.93867100  0.59300300  1
  H  1254  1  0.84573700  0.93676400  0.61477900  1
  H  1259  1  0.18917100  0.90559600  0.38961700  1
  H  1260  1  0.19106800  0.88712600  0.41252500  1
  H  1263  1  0.20032800  0.89957200  0.45119300  1
  H  1264  1  0.20772300  0.92717400  0.45689400  1
  H  1265  1  0.16017000  0.88912700  0.44467700  1
  H  1266  1  0.13898100  0.90969500  0.44361300  1
  H  1269  1  0.17495300  0.95908600  0.45545000  1
  H  1270  1  0.14798800  0.95051500  0.44860800  1
  H  1272  1  0.20731500  0.95682900  0.41904900  1
  H  1273  1  0.19709700  0.94583800  0.39438800  1
  H  1275  1  0.13757000  0.93863600  0.41006500  1
  H  1276  1  0.15731700  0.93672900  0.38828700  1
  H  1281  1  0.81389000  0.09744600  0.38960500  1
  H  1282  1  0.81199100  0.11591800  0.41251200  1
  H  1285  1  0.80273600  0.10347300  0.45118300  1
  H  1286  1  0.79533400  0.07587400  0.45688400  1
  H  1287  1  0.84289500  0.11390600  0.44467200  1
  H  1288  1  0.86408100  0.09333600  0.44360100  1
  H  1291  1  0.82809500  0.04395100  0.45543400  1
  H  1292  1  0.85506300  0.05251500  0.44859600  1
  H  1294  1  0.79573600  0.04621900  0.41903900  1
  H  1295  1  0.80595500  0.05720700  0.39437700  1
  H  1297  1  0.86548700  0.06440300  0.41005500  1
  H  1298  1  0.84574100  0.06631300  0.38827500  1
  H  1303  1  0.18918300  0.09743100  0.61345700  1
  H  1304  1  0.19107100  0.11589300  0.59054100  1
  H  1307  1  0.20033500  0.10344100  0.55188000  1
  H  1308  1  0.20773200  0.07583900  0.54618200  1
  H  1309  1  0.16017500  0.11388200  0.55840000  1
  H  1310  1  0.13898900  0.09331200  0.55946300  1
  H  1313  1  0.17496900  0.04392400  0.54763500  1
  H  1314  1  0.14800200  0.05249000  0.55447200  1
  H  1316  1  0.20732800  0.04619000  0.58404400  1
  H  1317  1  0.19710600  0.05718800  0.60869600  1
  H  1319  1  0.13757900  0.06437800  0.59301500  1
  H  1320  1  0.15732600  0.06628700  0.61479500  1
  H  1325  1  0.81388700  0.61344100  0.09743100  1
  H  1326  1  0.81200100  0.59053900  0.11590900  1
  H  1329  1  0.80274600  0.55186300  0.10346800  1
  H  1330  1  0.79534100  0.54615700  0.07587100  1
  H  1331  1  0.84290500  0.55838200  0.11389500  1
  H  1332  1  0.86408800  0.55945500  0.09332200  1
  H  1335  1  0.82809800  0.54761100  0.04394200  1
  H  1336  1  0.85506700  0.55445100  0.05250300  1
  H  1338  1  0.79573400  0.58399500  0.04621000  1
  H  1339  1  0.80594700  0.60866200  0.05719200  1
  H  1341  1  0.86548600  0.59299900  0.06438700  1
  H  1342  1  0.84573400  0.61477400  0.06629300  1
  H  1347  1  0.18918800  0.38961500  0.09744000  1
  H  1348  1  0.19107500  0.41252900  0.11590700  1
  H  1351  1  0.20033500  0.45119300  0.10346100  1
  H  1352  1  0.20772700  0.45689400  0.07585800  1
  H  1353  1  0.16017700  0.44466000  0.11390800  1
  H  1354  1  0.13898700  0.44360100  0.09334100  1
  H  1357  1  0.17495300  0.45544600  0.04394900  1
  H  1358  1  0.14799100  0.44859800  0.05252200  1
  H  1360  1  0.20732500  0.41905100  0.04620300  1
  H  1361  1  0.19711300  0.39438700  0.05719300  1
  H  1363  1  0.13758100  0.41005000  0.06439300  1
  H  1364  1  0.15733400  0.38827500  0.06629900  1
  H  1369  1  0.81389000  0.38960300  0.90561300  1
  H  1370  1  0.81199000  0.41251200  0.88714500  1
  H  1373  1  0.80273100  0.45118100  0.89959700  1
  H  1374  1  0.79533400  0.45687700  0.92719900  1
  H  1375  1  0.84289200  0.44467200  0.88915800  1
  H  1376  1  0.86408000  0.44359900  0.90972500  1
  H  1379  1  0.82809800  0.45542800  0.95911400  1
  H  1380  1  0.85506500  0.44859100  0.95054700  1
  H  1382  1  0.79574100  0.41902600  0.95684700  1
  H  1383  1  0.80596000  0.39436800  0.94585300  1
  H  1385  1  0.86548900  0.41005000  0.93865600  1
  H  1386  1  0.84574400  0.38827000  0.93674600  1
  H  1391  1  0.18916400  0.61345400  0.90560500  1
  H  1392  1  0.19106600  0.59054400  0.88714000  1
  H  1395  1  0.20033000  0.55188000  0.89959200  1
  H  1396  1  0.20773000  0.54618200  0.92719300  1
  H  1397  1  0.16016900  0.55838400  0.88915400  1
  H  1398  1  0.13898200  0.55945200  0.90972300  1
  H  1401  1  0.17496900  0.54763000  0.95911100  1
  H  1402  1  0.14799900  0.55446200  0.95054500  1
  H  1404  1  0.20731800  0.58404500  0.95684200  1
  H  1405  1  0.19709100  0.60869600  0.94584300  1
  H  1407  1  0.13756700  0.59299900  0.93865100  1
  H  1408  1  0.15730800  0.61478400  0.93674200  1
  H  1413  1  0.61344200  0.90561800  0.18917300  1
  H  1414  1  0.59053600  0.88714500  0.19106000  1
  H  1417  1  0.55186500  0.89959000  0.20032200  1
  H  1418  1  0.54616200  0.92719100  0.20772000  1
  H  1419  1  0.55838700  0.88915300  0.16016200  1
  H  1420  1  0.55945300  0.90972200  0.13897500  1
  H  1423  1  0.54761000  0.95910700  0.17495400  1
  H  1424  1  0.55445100  0.95054200  0.14798800  1
  H  1426  1  0.58400500  0.95684900  0.20731600  1
  H  1427  1  0.60866800  0.94586100  0.19710300  1
  H  1429  1  0.59299800  0.93866100  0.13756900  1
  H  1430  1  0.61477600  0.93675700  0.15731900  1
  H  1435  1  0.38961700  0.90560500  0.81388700  1
  H  1436  1  0.41252400  0.88713400  0.81199000  1
  H  1439  1  0.45119400  0.89958400  0.80273300  1
  H  1440  1  0.45689400  0.92718400  0.79533600  1
  H  1441  1  0.44468100  0.88914400  0.84289200  1
  H  1442  1  0.44360900  0.90971200  0.86408000  1
  H  1445  1  0.45544300  0.95910100  0.82810300  1
  H  1446  1  0.44860100  0.95053200  0.85506800  1
  H  1448  1  0.41904400  0.95683700  0.79574000  1
  H  1449  1  0.39438300  0.94584400  0.80595700  1
  H  1451  1  0.41006000  0.93864800  0.86548700  1
  H  1452  1  0.38828200  0.93673700  0.84573900  1
  H  1457  1  0.38960200  0.09743200  0.18918600  1
  H  1458  1  0.41251900  0.11589600  0.19107500  1
  H  1461  1  0.45117900  0.10344700  0.20033700  1
  H  1462  1  0.45687900  0.07584300  0.20772800  1
  H  1463  1  0.44465200  0.11389500  0.16017700  1
  H  1464  1  0.44359100  0.09332800  0.13898800  1
  H  1467  1  0.45543100  0.04393600  0.17495900  1
  H  1468  1  0.44858800  0.05250600  0.14799400  1
  H  1470  1  0.41903200  0.04619200  0.20732300  1
  H  1471  1  0.39437000  0.05718500  0.19710900  1
  H  1473  1  0.41004000  0.06438400  0.13757900  1
  H  1474  1  0.38826300  0.06629100  0.15733000  1
  H  1479  1  0.61345400  0.09744500  0.81389500  1
  H  1480  1  0.59054700  0.11591500  0.81199500  1
  H  1483  1  0.55187800  0.10346700  0.80273800  1
  H  1484  1  0.54617700  0.07586900  0.79533100  1
  H  1485  1  0.55837900  0.11389300  0.84289900  1
  H  1486  1  0.55945300  0.09331900  0.86408100  1
  H  1489  1  0.54763200  0.04393900  0.82808300  1
  H  1490  1  0.55446300  0.05249900  0.85505500  1
  H  1492  1  0.58403500  0.04621600  0.79573300  1
  H  1493  1  0.60869100  0.05721000  0.80595700  1
  H  1495  1  0.59299900  0.06439600  0.86548700  1
  H  1496  1  0.61478400  0.06630900  0.84574400  1
  H  1501  1  0.90562800  0.81388500  0.38961200  1
  H  1502  1  0.88715300  0.81200000  0.41251700  1
  H  1505  1  0.89960200  0.80274100  0.45118900  1
  H  1506  1  0.92720300  0.79533900  0.45689100  1
  H  1507  1  0.88916800  0.84290000  0.44467100  1
  H  1508  1  0.90973900  0.86408600  0.44359800  1
  H  1511  1  0.95912300  0.82810200  0.45543800  1
  H  1512  1  0.95055900  0.85506800  0.44859600  1
  H  1514  1  0.95685600  0.79574000  0.41904600  1
  H  1515  1  0.94586800  0.80595300  0.39438300  1
  H  1517  1  0.93867100  0.86548700  0.41005100  1
  H  1518  1  0.93676400  0.84573700  0.38827500  1
  H  1523  1  0.90559600  0.18917100  0.61343700  1
  H  1524  1  0.88712600  0.19106800  0.59052900  1
  H  1527  1  0.89957200  0.20032800  0.55186100  1
  H  1528  1  0.92717400  0.20772300  0.54616000  1
  H  1529  1  0.88912700  0.16017000  0.55837700  1
  H  1530  1  0.90969500  0.13898100  0.55944200  1
  H  1533  1  0.95908600  0.17495300  0.54760500  1
  H  1534  1  0.95051500  0.14798800  0.55444600  1
  H  1536  1  0.95682900  0.20731500  0.58400500  1
  H  1537  1  0.94583800  0.19709700  0.60866600  1
  H  1539  1  0.93863600  0.13757000  0.59298900  1
  H  1540  1  0.93672900  0.15731700  0.61476800  1
  H  1545  1  0.09744600  0.81389000  0.61344900  1
  H  1546  1  0.11591800  0.81199100  0.59054200  1
  H  1549  1  0.10347300  0.80273600  0.55187200  1
  H  1550  1  0.07587400  0.79533400  0.54617000  1
  H  1551  1  0.11390600  0.84289500  0.55838200  1
  H  1552  1  0.09333600  0.86408100  0.55945300  1
  H  1555  1  0.04395100  0.82809500  0.54762000  1
  H  1556  1  0.05251500  0.85506300  0.55445800  1
  H  1558  1  0.04621900  0.79573600  0.58401500  1
  H  1559  1  0.05720700  0.80595500  0.60867800  1
  H  1561  1  0.06440300  0.86548700  0.59299900  1
  H  1562  1  0.06631300  0.84574100  0.61477900  1
  H  1567  1  0.09743100  0.18918300  0.38959700  1
  H  1568  1  0.11589300  0.19107100  0.41251400  1
  H  1571  1  0.10344100  0.20033500  0.45117400  1
  H  1572  1  0.07583900  0.20773200  0.45687200  1
  H  1573  1  0.11388200  0.16017500  0.44465400  1
  H  1574  1  0.09331200  0.13898900  0.44359100  1
  H  1577  1  0.04392400  0.17496900  0.45541900  1
  H  1578  1  0.05249000  0.14800200  0.44858300  1
  H  1580  1  0.04619000  0.20732800  0.41901100  1
  H  1581  1  0.05718800  0.19710600  0.39435800  1
  H  1583  1  0.06437800  0.13757900  0.41004000  1
  H  1584  1  0.06628700  0.15732600  0.38826000  1
  H  1589  1  0.38803900  0.18860400  0.09611500  1
  H  1590  1  0.41024800  0.18933400  0.11548400  1
  H  1593  1  0.44960000  0.19899600  0.10388200  1
  H  1594  1  0.45610500  0.20665000  0.07638800  1
  H  1595  1  0.44226400  0.15833100  0.11317300  1
  H  1596  1  0.44137600  0.13774800  0.09190200  1
  H  1599  1  0.45409600  0.17643900  0.04414000  1
  H  1600  1  0.44798500  0.14844500  0.05104700  1
  H  1602  1  0.42068200  0.20671600  0.04575200  1
  H  1603  1  0.39445100  0.19829500  0.05555500  1
  H  1605  1  0.40830100  0.13759200  0.06239900  1
  H  1606  1  0.38661500  0.15750500  0.06483600  1
  H  1611  1  0.61501500  0.81445200  0.09612400  1
  H  1612  1  0.59280600  0.81372400  0.11549200  1
  H  1615  1  0.55345200  0.80408300  0.10389500  1
  H  1616  1  0.54694400  0.79641900  0.07640500  1
  H  1617  1  0.56078900  0.84474900  0.11317100  1
  H  1618  1  0.56169400  0.86532400  0.09189500  1
  H  1621  1  0.54896700  0.82661800  0.04414200  1
  H  1622  1  0.55507900  0.85461400  0.05104100  1
  H  1624  1  0.58236800  0.79633700  0.04576700  1
  H  1625  1  0.60860200  0.80475300  0.05556900  1
  H  1627  1  0.59476000  0.86546100  0.06240400  1
  H  1628  1  0.61644400  0.84554600  0.06484300  1
  H  1633  1  0.61503200  0.18861300  0.90694300  1
  H  1634  1  0.59282800  0.18934100  0.88757000  1
  H  1637  1  0.55346600  0.19897600  0.89916600  1
  H  1638  1  0.54695900  0.20663900  0.92665800  1
  H  1639  1  0.56080600  0.15830900  0.88988900  1
  H  1640  1  0.56171700  0.13773100  0.91116100  1
  H  1643  1  0.54897700  0.17643800  0.95891700  1
  H  1644  1  0.55508900  0.14844200  0.95201900  1
  H  1646  1  0.58237400  0.20671900  0.95729400  1
  H  1647  1  0.60861200  0.19830500  0.94749900  1
  H  1649  1  0.59476900  0.13759200  0.94064400  1
  H  1650  1  0.61645600  0.15750800  0.93822200  1
  H  1655  1  0.38802300  0.81444800  0.90693500  1
  H  1656  1  0.41023000  0.81371800  0.88756500  1
  H  1659  1  0.44958800  0.80408100  0.89916500  1
  H  1660  1  0.45609400  0.79642200  0.92665800  1
  H  1661  1  0.44224900  0.84474700  0.88988300  1
  H  1662  1  0.44133900  0.86532800  0.91115300  1
  H  1665  1  0.45407400  0.82662700  0.95891200  1
  H  1666  1  0.44796000  0.85462100  0.95201000  1
  H  1668  1  0.42067600  0.79634300  0.95729100  1
  H  1669  1  0.39444000  0.80475800  0.94749300  1
  H  1671  1  0.40828000  0.86546900  0.94063600  1
  H  1672  1  0.38659600  0.84555200  0.93821200  1
  H  1677  1  0.09610900  0.38803900  0.18860200  1
  H  1678  1  0.11547600  0.41024800  0.18933200  1
  H  1681  1  0.10387100  0.44960200  0.19899300  1
  H  1682  1  0.07637600  0.45610200  0.20664700  1
  H  1683  1  0.11316300  0.44226400  0.15832900  1
  H  1684  1  0.09189300  0.44137400  0.13774500  1
  H  1687  1  0.04413000  0.45409200  0.17643600  1
  H  1688  1  0.05103700  0.44798200  0.14844200  1
  H  1690  1  0.04574400  0.42068100  0.20671400  1
  H  1691  1  0.05554700  0.39444900  0.19829300  1
  H  1693  1  0.06239400  0.40829700  0.13759000  1
  H  1694  1  0.06483100  0.38661100  0.15750300  1
  H  1699  1  0.09611800  0.61501800  0.81445200  1
  H  1700  1  0.11548700  0.59281100  0.81371700  1
  H  1703  1  0.10388900  0.55345600  0.80407100  1
  H  1704  1  0.07639700  0.54695000  0.79641200  1
  H  1705  1  0.11317100  0.56078900  0.84474000  1
  H  1706  1  0.09190000  0.56169400  0.86531900  1
  H  1709  1  0.04414200  0.54896500  0.82661700  1
  H  1710  1  0.05104400  0.55507400  0.85461300  1
  H  1712  1  0.04576000  0.58237200  0.79634000  1
  H  1713  1  0.05556200  0.60860500  0.80475900  1
  H  1715  1  0.06240900  0.59475000  0.86546400  1
  H  1716  1  0.06484100  0.61644100  0.84555400  1
  H  1721  1  0.90693800  0.61502800  0.18861300  1
  H  1722  1  0.88756700  0.59282300  0.18933400  1
  H  1725  1  0.89916000  0.55346300  0.19896600  1
  H  1726  1  0.92665000  0.54695200  0.20663200  1
  H  1727  1  0.88989100  0.56080700  0.15830000  1
  H  1728  1  0.91116600  0.56171700  0.13772600  1
  H  1731  1  0.95891700  0.54897900  0.17643600  1
  H  1732  1  0.95202200  0.55509400  0.14844000  1
  H  1734  1  0.95728900  0.58237000  0.20672300  1
  H  1735  1  0.94749300  0.60860900  0.19831000  1
  H  1737  1  0.94064900  0.59477900  0.13759500  1
  H  1738  1  0.93822100  0.61646000  0.15751600  1
  H  1743  1  0.90692800  0.38802300  0.81444700  1
  H  1744  1  0.88755700  0.41022800  0.81371800  1
  H  1747  1  0.89915500  0.44958800  0.80407800  1
  H  1748  1  0.92664600  0.45609500  0.79641900  1
  H  1749  1  0.88987400  0.44224900  0.84474500  1
  H  1750  1  0.91114500  0.44134200  0.86532400  1
  H  1753  1  0.95890200  0.45407900  0.82662300  1
  H  1754  1  0.95200000  0.44796500  0.85461800  1
  H  1756  1  0.95728300  0.42067700  0.79634200  1
  H  1757  1  0.94748400  0.39444200  0.80475600  1
  H  1759  1  0.94063100  0.40828500  0.86546700  1
  H  1760  1  0.93820700  0.38660000  0.84555100  1
  H  1765  1  0.18860200  0.09609500  0.38804300  1
  H  1766  1  0.18933200  0.11546400  0.41025000  1
  H  1769  1  0.19899500  0.10386200  0.44960300  1
  H  1770  1  0.20665000  0.07636700  0.45610700  1
  H  1771  1  0.15833000  0.11315300  0.44226900  1
  H  1772  1  0.13774600  0.09188400  0.44137700  1
  H  1775  1  0.17643800  0.04412100  0.45409900  1
  H  1776  1  0.14844400  0.05102800  0.44799100  1
  H  1778  1  0.20671400  0.04573300  0.42068700  1
  H  1779  1  0.19829300  0.05553400  0.39445400  1
  H  1781  1  0.13758900  0.06238300  0.40830700  1
  H  1782  1  0.15750100  0.06481700  0.38661800  1
  H  1787  1  0.81445000  0.09613200  0.61502200  1
  H  1788  1  0.81371700  0.11549800  0.59281300  1
  H  1791  1  0.80407300  0.10389800  0.55345900  1
  H  1792  1  0.79641400  0.07640500  0.54695400  1
  H  1793  1  0.84474000  0.11318200  0.56079400  1
  H  1794  1  0.86532100  0.09191000  0.56169700  1
  H  1797  1  0.82662000  0.04415100  0.54897200  1
  H  1798  1  0.85461400  0.05105300  0.55508200  1
  H  1800  1  0.79634000  0.04577100  0.58237900  1
  H  1801  1  0.80475800  0.05557500  0.60861200  1
  H  1803  1  0.86546400  0.06241900  0.59476200  1
  H  1804  1  0.84555100  0.06485500  0.61644900  1
  H  1809  1  0.18861400  0.90692300  0.61503500  1
  H  1810  1  0.18934100  0.88755200  0.59283000  1
  H  1813  1  0.19897800  0.89914600  0.55346900  1
  H  1814  1  0.20663900  0.92663800  0.54696100  1
  H  1815  1  0.15831100  0.88987100  0.56081100  1
  H  1816  1  0.13773300  0.91114300  0.56171900  1
  H  1819  1  0.17643900  0.95889900  0.54898000  1
  H  1820  1  0.14844300  0.95199800  0.55509400  1
  H  1822  1  0.20672100  0.95727600  0.58237900  1
  H  1823  1  0.19830700  0.94747800  0.60861500  1
  H  1825  1  0.13759500  0.94062700  0.59477500  1
  H  1826  1  0.15751300  0.93820400  0.61646100  1
  H  1831  1  0.81445000  0.90694300  0.38802900  1
  H  1832  1  0.81372500  0.88757200  0.41023500  1
  H  1835  1  0.80409000  0.89916800  0.44959500  1
  H  1836  1  0.79642600  0.92665800  0.45610400  1
  H  1837  1  0.84475700  0.88989300  0.44225400  1
  H  1838  1  0.86533300  0.91116800  0.44134400  1
  H  1841  1  0.82662700  0.95892200  0.45408000  1
  H  1842  1  0.85462100  0.95202200  0.44796500  1
  H  1844  1  0.79634000  0.95729600  0.42068700  1
  H  1845  1  0.80475300  0.94749900  0.39444900  1
  H  1847  1  0.86546700  0.94065100  0.40828200  1
  H  1848  1  0.84554700  0.93822400  0.38660000  1
  H  1853  1  0.18860400  0.38803900  0.90693800  1
  H  1854  1  0.18933400  0.41024800  0.88757000  1
  H  1857  1  0.19899600  0.44960000  0.89917100  1
  H  1858  1  0.20665000  0.45610500  0.92666600  1
  H  1859  1  0.15833100  0.44226400  0.88988100  1
  H  1860  1  0.13774800  0.44137600  0.91115100  1
  H  1863  1  0.17643900  0.45409600  0.95891400  1
  H  1864  1  0.14844500  0.44798500  0.95200700  1
  H  1866  1  0.20671600  0.42068200  0.95730100  1
  H  1867  1  0.19829500  0.39445100  0.94749900  1
  H  1869  1  0.13759200  0.40830100  0.94065400  1
  H  1870  1  0.15750500  0.38661500  0.93821700  1
  H  1875  1  0.81445200  0.61501500  0.90693000  1
  H  1876  1  0.81372400  0.59280600  0.88756300  1
  H  1879  1  0.80408300  0.55345200  0.89916000  1
  H  1880  1  0.79641900  0.54694400  0.92665000  1
  H  1881  1  0.84474900  0.56078900  0.88988300  1
  H  1882  1  0.86532400  0.56169400  0.91115800  1
  H  1885  1  0.82661800  0.54896700  0.95891200  1
  H  1886  1  0.85461400  0.55507900  0.95201300  1
  H  1888  1  0.79633700  0.58236800  0.95728800  1
  H  1889  1  0.80475300  0.60860200  0.94748600  1
  H  1891  1  0.86546100  0.59476000  0.94065100  1
  H  1892  1  0.84554600  0.61644400  0.93821100  1
  H  1897  1  0.18861300  0.61503200  0.09611100  1
  H  1898  1  0.18934100  0.59282800  0.11548300  1
  H  1901  1  0.19897600  0.55346600  0.10388800  1
  H  1902  1  0.20663900  0.54695900  0.07639600  1
  H  1903  1  0.15830900  0.56080600  0.11316400  1
  H  1904  1  0.13773100  0.56171700  0.09189200  1
  H  1907  1  0.17643800  0.54897700  0.04413600  1
  H  1908  1  0.14844200  0.55508900  0.05103600  1
  H  1910  1  0.20671900  0.58237400  0.04575900  1
  H  1911  1  0.19830500  0.60861200  0.05555600  1
  H  1913  1  0.13759200  0.59476900  0.06241100  1
  H  1914  1  0.15750800  0.61645600  0.06483100  1
  H  1919  1  0.81444800  0.38802300  0.09611900  1
  H  1920  1  0.81371800  0.41023000  0.11548900  1
  H  1923  1  0.80408100  0.44958800  0.10388900  1
  H  1924  1  0.79642200  0.45609400  0.07639600  1
  H  1925  1  0.84474700  0.44224900  0.11317200  1
  H  1926  1  0.86532800  0.44133900  0.09190100  1
  H  1929  1  0.82662700  0.45407400  0.04414100  1
  H  1930  1  0.85462100  0.44796000  0.05104400  1
  H  1932  1  0.79634300  0.42067600  0.04576300  1
  H  1933  1  0.80475800  0.39444000  0.05556200  1
  H  1935  1  0.86546900  0.40828000  0.06241900  1
  H  1936  1  0.84555200  0.38659600  0.06484200  1
  H  1941  1  0.38803900  0.09610900  0.81445200  1
  H  1942  1  0.41024800  0.11547600  0.81372200  1
  H  1945  1  0.44960200  0.10387100  0.80406100  1
  H  1946  1  0.45610200  0.07637600  0.79640700  1
  H  1947  1  0.44226400  0.11316300  0.84472500  1
  H  1948  1  0.44137400  0.09189300  0.86530900  1
  H  1951  1  0.45409200  0.04413000  0.82661800  1
  H  1952  1  0.44798200  0.05103700  0.85461300  1
  H  1954  1  0.42068100  0.04574400  0.79634000  1
  H  1955  1  0.39444900  0.05554700  0.80476100  1
  H  1957  1  0.40829700  0.06239400  0.86546400  1
  H  1958  1  0.38661100  0.06483100  0.84555100  1
  H  1963  1  0.61501800  0.09611800  0.18860200  1
  H  1964  1  0.59281100  0.11548700  0.18933700  1
  H  1967  1  0.55345600  0.10388900  0.19898300  1
  H  1968  1  0.54695000  0.07639700  0.20664200  1
  H  1969  1  0.56078900  0.11317100  0.15831400  1
  H  1970  1  0.56169400  0.09190000  0.13773500  1
  H  1973  1  0.54896500  0.04414200  0.17643800  1
  H  1974  1  0.55507400  0.05104400  0.14844200  1
  H  1976  1  0.58237200  0.04576000  0.20671400  1
  H  1977  1  0.60860500  0.05556200  0.19829500  1
  H  1979  1  0.59475000  0.06240900  0.13759000  1
  H  1980  1  0.61644100  0.06484100  0.15750000  1
  H  1985  1  0.61502800  0.90693800  0.81444200  1
  H  1986  1  0.59282300  0.88756700  0.81372000  1
  H  1989  1  0.55346300  0.89916000  0.80408800  1
  H  1990  1  0.54695200  0.92665000  0.79642200  1
  H  1991  1  0.56080700  0.88989100  0.84475500  1
  H  1992  1  0.56171700  0.91116600  0.86532800  1
  H  1995  1  0.54897900  0.95891700  0.82661800  1
  H  1996  1  0.55509400  0.95202200  0.85461400  1
  H  1998  1  0.58237000  0.95728900  0.79633200  1
  H  1999  1  0.60860900  0.94749300  0.80474400  1
  H  2001  1  0.59477900  0.94064900  0.86545900  1
  H  2002  1  0.61646000  0.93822100  0.84553700  1
  H  2007  1  0.38802300  0.90692800  0.18860700  1
  H  2008  1  0.41022800  0.88755700  0.18933600  1
  H  2011  1  0.44958800  0.89915500  0.19897600  1
  H  2012  1  0.45609500  0.92664600  0.20663500  1
  H  2013  1  0.44224900  0.88987400  0.15830800  1
  H  2014  1  0.44134200  0.91114500  0.13772900  1
  H  2017  1  0.45407900  0.95890200  0.17643100  1
  H  2018  1  0.44796500  0.95200000  0.14843600  1
  H  2020  1  0.42067700  0.95728300  0.20671300  1
  H  2021  1  0.39444200  0.94748400  0.19829800  1
  H  2023  1  0.40828500  0.94063100  0.13758700  1
  H  2024  1  0.38660000  0.93820700  0.15750400  1
  H  2029  1  0.09609500  0.18860200  0.61501100  1
  H  2030  1  0.11546400  0.18933200  0.59280400  1
  H  2033  1  0.10386200  0.19899500  0.55345100  1
  H  2034  1  0.07636700  0.20665000  0.54694700  1
  H  2035  1  0.11315300  0.15833000  0.56078500  1
  H  2036  1  0.09188400  0.13774600  0.56167700  1
  H  2039  1  0.04412100  0.17643800  0.54895500  1
  H  2040  1  0.05102800  0.14844400  0.55506400  1
  H  2042  1  0.04573300  0.20671400  0.58236700  1
  H  2043  1  0.05553400  0.19829300  0.60860000  1
  H  2045  1  0.06238300  0.13758900  0.59474700  1
  H  2046  1  0.06481700  0.15750100  0.61643600  1
  H  2051  1  0.09613200  0.81445000  0.38803300  1
  H  2052  1  0.11549800  0.81371700  0.41024100  1
  H  2055  1  0.10389800  0.80407300  0.44959500  1
  H  2056  1  0.07640500  0.79641400  0.45610000  1
  H  2057  1  0.11318200  0.84474000  0.44226000  1
  H  2058  1  0.09191000  0.86532100  0.44135700  1
  H  2061  1  0.04415100  0.82662000  0.45408200  1
  H  2062  1  0.05105300  0.85461400  0.44797200  1
  H  2064  1  0.04577100  0.79634000  0.42067600  1
  H  2065  1  0.05557500  0.80475800  0.39444200  1
  H  2067  1  0.06241900  0.86546400  0.40829200  1
  H  2068  1  0.06485500  0.84555100  0.38660500  1
  H  2073  1  0.90692300  0.18861400  0.38801900  1
  H  2074  1  0.88755200  0.18934100  0.41022500  1
  H  2077  1  0.89914600  0.19897800  0.44958500  1
  H  2078  1  0.92663800  0.20663900  0.45609400  1
  H  2079  1  0.88987100  0.15831100  0.44224400  1
  H  2080  1  0.91114300  0.13773300  0.44133500  1
  H  2083  1  0.95889900  0.17643900  0.45407400  1
  H  2084  1  0.95199800  0.14844300  0.44796000  1
  H  2086  1  0.95727600  0.20672100  0.42067600  1
  H  2087  1  0.94747800  0.19830700  0.39443900  1
  H  2089  1  0.94062700  0.13759500  0.40827900  1
  H  2090  1  0.93820400  0.15751300  0.38659300  1
  H  2095  1  0.90694300  0.81445000  0.61502500  1
  H  2096  1  0.88757200  0.81372500  0.59281900  1
  H  2099  1  0.89916800  0.80409000  0.55345900  1
  H  2100  1  0.92665800  0.79642600  0.54695000  1
  H  2101  1  0.88989300  0.84475700  0.56080000  1
  H  2102  1  0.91116800  0.86533300  0.56171000  1
  H  2105  1  0.95892200  0.82662700  0.54897400  1
  H  2106  1  0.95202200  0.85462100  0.55508900  1
  H  2108  1  0.95729600  0.79634000  0.58236700  1
  H  2109  1  0.94749900  0.80475300  0.60860500  1
  H  2111  1  0.94065100  0.86546700  0.59477200  1
  H  2112  1  0.93822400  0.84554700  0.61645400  1
  H  2119  1  0.11177800  0.26964700  0.39255700  1
  H  2120  1  0.05770900  0.23530100  0.44114500  1
  H  2127  1  0.89127500  0.73342500  0.39254800  1
  H  2128  1  0.94532300  0.76776200  0.44117200  1
  H  2135  1  0.89126000  0.26963700  0.61050600  1
  H  2136  1  0.94530100  0.23529600  0.56188000  1
  H  2143  1  0.11178300  0.73342900  0.61053900  1
  H  2144  1  0.05775800  0.76775900  0.56188700  1
  H  2151  1  0.39255000  0.11177600  0.26964400  1
  H  2152  1  0.44115700  0.05771800  0.23530200  1
  H  2159  1  0.39255200  0.89126200  0.73342200  1
  H  2160  1  0.44117200  0.94530800  0.76776000  1
  H  2167  1  0.61050900  0.89127400  0.26963200  1
  H  2168  1  0.56188200  0.94531500  0.23529600  1
  H  2175  1  0.61053300  0.11178500  0.73342500  1
  H  2176  1  0.56189900  0.05774900  0.76776000  1
  H  2183  1  0.26964600  0.39256400  0.11178300  1
  H  2184  1  0.23530200  0.44117600  0.05773100  1
  H  2191  1  0.73342400  0.39253800  0.89126800  1
  H  2192  1  0.76776000  0.44115200  0.94532100  1
  H  2199  1  0.26963900  0.61051400  0.89126500  1
  H  2200  1  0.23529400  0.56191000  0.94532300  1
  H  2207  1  0.73343000  0.61052800  0.11177700  1
  H  2208  1  0.76775900  0.56186800  0.05775700  1
  H  2215  1  0.26964700  0.11177800  0.61049700  1
  H  2216  1  0.23530100  0.05770900  0.56190900  1
  H  2223  1  0.73342500  0.89127500  0.61050600  1
  H  2224  1  0.76776200  0.94532300  0.56188200  1
  H  2231  1  0.26963700  0.89126000  0.39254800  1
  H  2232  1  0.23529600  0.94530100  0.44117400  1
  H  2239  1  0.73342900  0.11178300  0.39251500  1
  H  2240  1  0.76775900  0.05775800  0.44116700  1
  H  2247  1  0.11177600  0.39255000  0.73341000  1
  H  2248  1  0.05771800  0.44115700  0.76775200  1
  H  2255  1  0.89126200  0.39255200  0.26963200  1
  H  2256  1  0.94530800  0.44117200  0.23529400  1
  H  2263  1  0.89127400  0.61050900  0.73342200  1
  H  2264  1  0.94531500  0.56188200  0.76775900  1
  H  2271  1  0.11178500  0.61053300  0.26962900  1
  H  2272  1  0.05774900  0.56189900  0.23529400  1
  H  2279  1  0.39256400  0.26964600  0.89127200  1
  H  2280  1  0.44117600  0.23530200  0.94532300  1
  H  2287  1  0.39253800  0.73342400  0.11178600  1
  H  2288  1  0.44115200  0.76776000  0.05773300  1
  H  2295  1  0.61051400  0.26963900  0.11179000  1
  H  2296  1  0.56191000  0.23529400  0.05773100  1
  H  2303  1  0.61052800  0.73343000  0.89127700  1
  H  2304  1  0.56186800  0.76775900  0.94529800  1
  H  2311  1  0.89096600  0.73318500  0.61068900  1
  H  2312  1  0.94443800  0.76769500  0.56173200  1
  H  2319  1  0.11208200  0.26986900  0.61068100  1
  H  2320  1  0.05858100  0.23537100  0.56174900  1
  H  2327  1  0.11210800  0.73317800  0.39238000  1
  H  2328  1  0.05861500  0.76769100  0.44130700  1
  H  2335  1  0.89095100  0.26988300  0.39236300  1
  H  2336  1  0.94442500  0.23536800  0.44131000  1
  H  2343  1  0.61068200  0.89096100  0.73317500  1
  H  2344  1  0.56172900  0.94443000  0.76769100  1
  H  2351  1  0.61068200  0.11209400  0.26987400  1
  H  2352  1  0.56174400  0.05860700  0.23536500  1
  H  2359  1  0.39238200  0.11209700  0.73318100  1
  H  2360  1  0.44130200  0.05858900  0.76768500  1
  H  2367  1  0.39235700  0.89095700  0.26987300  1
  H  2368  1  0.44130700  0.94443300  0.23536300  1
  H  2375  1  0.73317500  0.61066900  0.89096100  1
  H  2376  1  0.76769600  0.56172900  0.94443700  1
  H  2383  1  0.26987400  0.61069600  0.11209400  1
  H  2384  1  0.23537000  0.56174600  0.05861400  1
  H  2391  1  0.73318800  0.39236000  0.11210200  1
  H  2392  1  0.76769100  0.44130300  0.05861400  1
  H  2399  1  0.26987900  0.39237900  0.89096200  1
  H  2400  1  0.23537000  0.44130700  0.94445900  1
  H  2407  1  0.73318500  0.89096600  0.39236500  1
  H  2408  1  0.76769500  0.94443800  0.44132200  1
  H  2415  1  0.26986900  0.11208200  0.39237300  1
  H  2416  1  0.23537100  0.05858100  0.44130500  1
  H  2423  1  0.73317800  0.11210800  0.61067400  1
  H  2424  1  0.76769100  0.05861500  0.56174700  1
  H  2431  1  0.26988300  0.89095100  0.61069100  1
  H  2432  1  0.23536800  0.94442500  0.56174400  1
  H  2439  1  0.89096100  0.61068200  0.26987900  1
  H  2440  1  0.94443000  0.56172900  0.23536300  1
  H  2447  1  0.11209400  0.61068200  0.73318000  1
  H  2448  1  0.05860700  0.56174400  0.76769000  1
  H  2455  1  0.11209700  0.39238200  0.26987300  1
  H  2456  1  0.05858900  0.44130200  0.23537000  1
  H  2463  1  0.89095700  0.39235700  0.73318100  1
  H  2464  1  0.94443300  0.44130700  0.76769100  1
  H  2471  1  0.61066900  0.73317500  0.11209400  1
  H  2472  1  0.56172900  0.76769600  0.05861700  1
  H  2479  1  0.61069600  0.26987400  0.89096100  1
  H  2480  1  0.56174600  0.23537000  0.94444000  1
  H  2487  1  0.39236000  0.73318800  0.89095200  1
  H  2488  1  0.44130300  0.76769100  0.94444000  1
  H  2495  1  0.39237900  0.26987900  0.11209200  1
  H  2496  1  0.44130700  0.23537000  0.05859600  1
  H  2503  1  0.10984200  0.36174900  0.51930600  1
  H  2504  1  0.06568000  0.30409700  0.48517800  1
  H  2511  1  0.89316600  0.64135400  0.51930400  1
  H  2512  1  0.93738300  0.69896400  0.48517300  1
  H  2519  1  0.89319100  0.36176000  0.48375300  1
  H  2520  1  0.93734100  0.30410000  0.51787600  1
  H  2527  1  0.10982200  0.64127500  0.48375300  1
  H  2528  1  0.06572700  0.69897300  0.51788500  1
  H  2535  1  0.51930400  0.10984600  0.36174900  1
  H  2536  1  0.48517800  0.06568900  0.30409500  1
  H  2543  1  0.51929700  0.89315900  0.64134200  1
  H  2544  1  0.48516400  0.93738300  0.69894700  1
  H  2551  1  0.48374500  0.89319800  0.36175000  1
  H  2552  1  0.51786800  0.93734100  0.30408300  1
  H  2559  1  0.48375300  0.10981800  0.64127700  1
  H  2560  1  0.51788300  0.06571800  0.69897100  1
  H  2567  1  0.36175500  0.51931600  0.10985500  1
  H  2568  1  0.30410300  0.48518800  0.06569300  1
  H  2575  1  0.64134900  0.51928600  0.89316700  1
  H  2576  1  0.69895800  0.48515300  0.93738600  1
  H  2583  1  0.36175400  0.48376300  0.89320400  1
  H  2584  1  0.30409200  0.51788800  0.93735400  1
  H  2591  1  0.64128000  0.48373500  0.10982500  1
  H  2592  1  0.69898100  0.51786500  0.06573100  1
  H  2599  1  0.36174900  0.10984200  0.48374800  1
  H  2600  1  0.30409700  0.06568000  0.51787600  1
  H  2607  1  0.64135400  0.89316600  0.48375000  1
  H  2608  1  0.69896400  0.93738300  0.51788100  1
  H  2615  1  0.36176000  0.89319100  0.51930100  1
  H  2616  1  0.30410000  0.93734100  0.48517800  1
  H  2623  1  0.64127500  0.10982200  0.51930100  1
  H  2624  1  0.69897300  0.06572700  0.48516900  1
  H  2631  1  0.10984600  0.51930400  0.64130500  1
  H  2632  1  0.06568900  0.48517800  0.69895900  1
  H  2639  1  0.89315900  0.51929700  0.36171200  1
  H  2640  1  0.93738300  0.48516400  0.30410700  1
  H  2647  1  0.89319800  0.48374500  0.64130400  1
  H  2648  1  0.93734100  0.51786800  0.69897100  1
  H  2655  1  0.10981800  0.48375300  0.36177700  1
  H  2656  1  0.06571800  0.51788300  0.30408300  1
  H  2663  1  0.51931600  0.36175500  0.89319900  1
  H  2664  1  0.48518800  0.30410300  0.93736100  1
  H  2671  1  0.51928600  0.64134900  0.10988600  1
  H  2672  1  0.48515300  0.69895800  0.06566700  1
  H  2679  1  0.48376300  0.36175400  0.10985000  1
  H  2680  1  0.51788800  0.30409200  0.06570100  1
  H  2687  1  0.48373500  0.64128000  0.89323000  1
  H  2688  1  0.51786500  0.69898100  0.93732400  1
  H  2695  1  0.61069600  0.86262500  0.01962000  1
  H  2696  1  0.56402600  0.80718300  0.98518800  1
  H  2703  1  0.39232300  0.14046300  0.01961400  1
  H  2704  1  0.43904000  0.19586600  0.98518100  1
  H  2711  1  0.39234500  0.86263300  0.98343500  1
  H  2712  1  0.43900600  0.80718600  0.01786900  1
  H  2719  1  0.61068600  0.14041000  0.98343900  1
  H  2720  1  0.56405800  0.19588100  0.01787700  1
  H  2727  1  0.01961800  0.61069400  0.86262800  1
  H  2728  1  0.98518500  0.56402500  0.80719000  1
  H  2735  1  0.01960600  0.39232600  0.14045300  1
  H  2736  1  0.98517100  0.43903000  0.19586500  1
  H  2743  1  0.98342900  0.39234300  0.86262300  1
  H  2744  1  0.01785900  0.43901600  0.80718400  1
  H  2751  1  0.98343700  0.61068600  0.14041400  1
  H  2752  1  0.01787400  0.56406200  0.19588700  1
  H  2759  1  0.86263000  0.01962900  0.61070100  1
  H  2760  1  0.80718800  0.98519600  0.56403500  1
  H  2767  1  0.14045500  0.01959600  0.39233300  1
  H  2768  1  0.19586300  0.98515900  0.43904000  1
  H  2775  1  0.86262800  0.98344600  0.39235200  1
  H  2776  1  0.80718300  0.01787800  0.43901300  1
  H  2783  1  0.14041900  0.98342000  0.61069600  1
  H  2784  1  0.19588500  0.01785500  0.56405800  1
  H  2791  1  0.86262500  0.61069600  0.98343400  1
  H  2792  1  0.80718300  0.56402600  0.01786700  1
  H  2799  1  0.14046300  0.39232300  0.98344000  1
  H  2800  1  0.19586600  0.43904000  0.01787300  1
  H  2807  1  0.86263300  0.39234500  0.01961800  1
  H  2808  1  0.80718600  0.43900600  0.98518500  1
  H  2815  1  0.14041000  0.61068600  0.01961600  1
  H  2816  1  0.19588100  0.56405800  0.98517800  1
  H  2823  1  0.61069400  0.01961800  0.14042600  1
  H  2824  1  0.56402500  0.98518500  0.19586500  1
  H  2831  1  0.39232600  0.01960600  0.86260100  1
  H  2832  1  0.43903000  0.98517100  0.80719000  1
  H  2839  1  0.39234300  0.98342900  0.14043100  1
  H  2840  1  0.43901600  0.01785900  0.19587000  1
  H  2847  1  0.61068600  0.98343700  0.86264000  1
  H  2848  1  0.56406200  0.01787400  0.80716800  1
  H  2855  1  0.01962900  0.86263000  0.39235300  1
  H  2856  1  0.98519600  0.80718800  0.43902000  1
  H  2863  1  0.01959600  0.14045500  0.61072100  1
  H  2864  1  0.98515900  0.19586300  0.56401400  1
  H  2871  1  0.98344600  0.86262800  0.61070300  1
  H  2872  1  0.01787800  0.80718300  0.56404100  1
  H  2879  1  0.98342000  0.14041900  0.39235800  1
  H  2880  1  0.01785500  0.19588500  0.43899600  1
  H  2887  1  0.98258300  0.35940300  0.39677700  1
  H  2888  1  0.01741200  0.30758000  0.44750800  1
  H  2895  1  0.02046500  0.64365200  0.39678700  1
  H  2896  1  0.98563500  0.69549300  0.44749600  1
  H  2903  1  0.02044400  0.35940800  0.60626100  1
  H  2904  1  0.98561700  0.30757300  0.55554100  1
  H  2911  1  0.98261300  0.64367700  0.60627400  1
  H  2912  1  0.01744400  0.69551000  0.55555500  1
  H  2919  1  0.39677300  0.98258800  0.35939900  1
  H  2920  1  0.44750600  0.01741600  0.30758000  1
  H  2927  1  0.39678200  0.02046200  0.64365200  1
  H  2928  1  0.44749100  0.98562900  0.69549100  1
  H  2935  1  0.60625600  0.02044800  0.35940600  1
  H  2936  1  0.55553500  0.98562400  0.30757100  1
  H  2943  1  0.60626900  0.98260800  0.64367200  1
  H  2944  1  0.55555500  0.01743900  0.69550800  1
  H  2951  1  0.35940400  0.39678800  0.98259500  1
  H  2952  1  0.30758300  0.44752000  0.01742400  1
  H  2959  1  0.64365700  0.39676600  0.02046900  1
  H  2960  1  0.69549500  0.44747800  0.98563700  1
  H  2967  1  0.35940600  0.60627100  0.02045700  1
  H  2968  1  0.30757000  0.55555300  0.98563000  1
  H  2975  1  0.64367200  0.60625400  0.98261800  1
  H  2976  1  0.69550600  0.55553500  0.01744500  1
  H  2983  1  0.35940300  0.98258300  0.60627800  1
  H  2984  1  0.30758000  0.01741200  0.55554600  1
  H  2991  1  0.64365200  0.02046500  0.60626800  1
  H  2992  1  0.69549300  0.98563500  0.55555800  1
  H  2999  1  0.35940800  0.02044400  0.39679300  1
  H  3000  1  0.30757300  0.98561700  0.44751300  1
  H  3007  1  0.64367700  0.98261300  0.39678000  1
  H  3008  1  0.69551000  0.01744400  0.44749900  1
  H  3015  1  0.98258800  0.39677300  0.64365500  1
  H  3016  1  0.01741600  0.44750600  0.69547400  1
  H  3023  1  0.02046200  0.39678200  0.35940300  1
  H  3024  1  0.98562900  0.44749100  0.30756300  1
  H  3031  1  0.02044800  0.60625600  0.64364800  1
  H  3032  1  0.98562400  0.55553500  0.69548300  1
  H  3039  1  0.98260800  0.60626900  0.35938200  1
  H  3040  1  0.01743900  0.55555500  0.30754600  1
  H  3047  1  0.39678800  0.35940400  0.02045900  1
  H  3048  1  0.44752000  0.30758300  0.98563000  1
  H  3055  1  0.39676600  0.64365700  0.98258400  1
  H  3056  1  0.44747800  0.69549500  0.01741700  1
  H  3063  1  0.60627100  0.35940600  0.98259800  1
  H  3064  1  0.55555300  0.30757000  0.01742500  1
  H  3071  1  0.60625400  0.64367200  0.02043700  1
  H  3072  1  0.55553500  0.69550600  0.98561000  1
  H  3079  1  0.48252700  0.85896400  0.89523400  1
  H  3080  1  0.51742100  0.80902600  0.94778700  1
  H  3087  1  0.52052700  0.14410200  0.89523300  1
  H  3088  1  0.48563200  0.19403500  0.94778500  1
  H  3095  1  0.52051200  0.85896900  0.10780700  1
  H  3096  1  0.48562000  0.80902300  0.05526100  1
  H  3103  1  0.48254400  0.14411200  0.10781800  1
  H  3104  1  0.51743900  0.19404700  0.05526500  1
  H  3111  1  0.89522200  0.48253200  0.85895500  1
  H  3112  1  0.94778200  0.51742100  0.80902400  1
  H  3119  1  0.89523600  0.52053000  0.14409100  1
  H  3120  1  0.94778200  0.48563200  0.19403000  1
  H  3127  1  0.10781200  0.52050800  0.85895800  1
  H  3128  1  0.05525800  0.48562200  0.80901800  1
  H  3135  1  0.10780600  0.48253900  0.14410500  1
  H  3136  1  0.05526100  0.51743900  0.19404500  1
  H  3143  1  0.85896500  0.89524300  0.48253400  1
  H  3144  1  0.80903100  0.94780000  0.51742400  1
  H  3151  1  0.14410000  0.89521600  0.52053200  1
  H  3152  1  0.19403600  0.94776500  0.48563500  1
  H  3159  1  0.85896700  0.10781600  0.52051900  1
  H  3160  1  0.80901900  0.05527400  0.48562500  1
  H  3167  1  0.14411400  0.10780200  0.48254900  1
  H  3168  1  0.19404500  0.05524400  0.51744200  1
  H  3175  1  0.85896400  0.48252700  0.10782000  1
  H  3176  1  0.80902600  0.51742100  0.05526700  1
  H  3183  1  0.14410200  0.52052700  0.10782200  1
  H  3184  1  0.19403500  0.48563200  0.05526800  1
  H  3191  1  0.85896900  0.52051200  0.89524600  1
  H  3192  1  0.80902300  0.48562000  0.94779400  1
  H  3199  1  0.14411200  0.48254400  0.89523600  1
  H  3200  1  0.19404700  0.51743900  0.94778900  1
  H  3207  1  0.48253200  0.89522200  0.14409900  1
  H  3208  1  0.51742100  0.94778200  0.19403000  1
  H  3215  1  0.52053000  0.89523600  0.85896400  1
  H  3216  1  0.48563200  0.94778200  0.80902400  1
  H  3223  1  0.52050800  0.10781200  0.14409600  1
  H  3224  1  0.48562200  0.05525800  0.19403600  1
  H  3231  1  0.48253900  0.10780600  0.85895000  1
  H  3232  1  0.51743900  0.05526100  0.80900900  1
  H  3239  1  0.89524300  0.85896500  0.52052000  1
  H  3240  1  0.94780000  0.80903100  0.48563000  1
  H  3247  1  0.89521600  0.14410000  0.48252200  1
  H  3248  1  0.94776500  0.19403600  0.51741900  1
  H  3255  1  0.10781600  0.85896700  0.48253600  1
  H  3256  1  0.05527400  0.80901900  0.51742900  1
  H  3263  1  0.10780200  0.14411400  0.52050500  1
  H  3264  1  0.05524400  0.19404500  0.48561200  1
  H  3271  1  0.09934300  0.41487800  0.39089200  1
  H  3272  1  0.10228900  0.33966400  0.36338700  1
  H  3279  1  0.90396500  0.58819400  0.39084800  1
  H  3280  1  0.90040400  0.66344500  0.36347300  1
  H  3287  1  0.90370200  0.41487000  0.61216600  1
  H  3288  1  0.90074200  0.33963700  0.63967100  1
  H  3295  1  0.09927500  0.58815600  0.61219100  1
  H  3296  1  0.10240700  0.66341000  0.63963500  1
  H  3303  1  0.39087000  0.09921700  0.41489200  1
  H  3304  1  0.36342000  0.10244000  0.33965300  1
  H  3311  1  0.39089300  0.90369400  0.58818600  1
  H  3312  1  0.36337800  0.90075400  0.66341500  1
  H  3319  1  0.61221100  0.90397300  0.41486100  1
  H  3320  1  0.63957700  0.90039200  0.33960900  1
  H  3327  1  0.61217100  0.09940300  0.58816900  1
  H  3328  1  0.63966900  0.10225500  0.66339800  1
  H  3335  1  0.41488000  0.39089300  0.09934900  1
  H  3336  1  0.33966600  0.36339200  0.10228400  1
  H  3343  1  0.58817600  0.39087200  0.90382700  1
  H  3344  1  0.66342900  0.36340700  0.90059800  1
  H  3351  1  0.41486700  0.61216900  0.90370700  1
  H  3352  1  0.33963600  0.63967400  0.90073700  1
  H  3359  1  0.58817400  0.61221500  0.09913600  1
  H  3360  1  0.66342700  0.63957200  0.10260200  1
  H  3367  1  0.41487800  0.09934300  0.61216200  1
  H  3368  1  0.33966400  0.10228900  0.63966700  1
  H  3375  1  0.58819400  0.90396500  0.61220600  1
  H  3376  1  0.66344500  0.90040400  0.63958200  1
  H  3383  1  0.41487000  0.90370200  0.39088800  1
  H  3384  1  0.33963700  0.90074200  0.36338300  1
  H  3391  1  0.58815600  0.09927500  0.39086300  1
  H  3392  1  0.66341000  0.10240700  0.36341900  1
  H  3399  1  0.09921700  0.39087000  0.58816200  1
  H  3400  1  0.10244000  0.36342000  0.66340200  1
  H  3407  1  0.90369400  0.39089300  0.41486800  1
  H  3408  1  0.90075400  0.36337800  0.33963900  1
  H  3415  1  0.90397300  0.61221100  0.58819300  1
  H  3416  1  0.90039200  0.63957700  0.66344500  1
  H  3423  1  0.09940300  0.61217100  0.41488500  1
  H  3424  1  0.10225500  0.63966900  0.33965600  1
  H  3431  1  0.39089300  0.41488000  0.90370600  1
  H  3432  1  0.36339200  0.33966600  0.90076900  1
  H  3439  1  0.39087200  0.58817600  0.09922700  1
  H  3440  1  0.36340700  0.66342900  0.10245600  1
  H  3447  1  0.61216900  0.41486700  0.09934700  1
  H  3448  1  0.63967400  0.33963600  0.10231600  1
  H  3455  1  0.61221500  0.58817400  0.90391800  1
  H  3456  1  0.63957200  0.66342700  0.90045300  1
  H  3463  1  0.60373300  0.91371900  0.88968100  1
  H  3464  1  0.59830900  0.83862500  0.86229700  1
  H  3471  1  0.39952100  0.08935800  0.88964500  1
  H  3472  1  0.40450500  0.16451700  0.86232700  1
  H  3479  1  0.39928400  0.91370400  0.11337900  1
  H  3480  1  0.40477700  0.83859600  0.14076500  1
  H  3487  1  0.60373300  0.08932100  0.11340900  1
  H  3488  1  0.59832900  0.16445900  0.14074600  1
  H  3495  1  0.88966600  0.60364000  0.91372800  1
  H  3496  1  0.86230500  0.59840500  0.83859800  1
  H  3503  1  0.88967600  0.39928400  0.08935000  1
  H  3504  1  0.86228000  0.40478400  0.16445400  1
  H  3511  1  0.11340900  0.39952300  0.91369600  1
  H  3512  1  0.14071900  0.40449600  0.83853200  1
  H  3519  1  0.11339400  0.60382600  0.08933100  1
  H  3520  1  0.14075400  0.59823300  0.16443200  1
  H  3527  1  0.91371900  0.88968600  0.60373100  1
  H  3528  1  0.83862700  0.86230200  0.59830200  1
  H  3535  1  0.08934000  0.88965600  0.39937700  1
  H  3536  1  0.16448200  0.86228400  0.40468100  1
  H  3543  1  0.91370400  0.11338400  0.39928400  1
  H  3544  1  0.83859600  0.14077000  0.40476900  1
  H  3551  1  0.08933800  0.11341900  0.60358700  1
  H  3552  1  0.16449500  0.14070300  0.59850400  1
  H  3559  1  0.91371900  0.60373300  0.11337300  1
  H  3560  1  0.83862500  0.59830900  0.14075800  1
  H  3567  1  0.08935800  0.39952100  0.11340800  1
  H  3568  1  0.16451700  0.40450500  0.14072800  1
  H  3575  1  0.91370400  0.39928400  0.88967600  1
  H  3576  1  0.83859600  0.40477700  0.86229000  1
  H  3583  1  0.08932100  0.60373300  0.88964500  1
  H  3584  1  0.16445900  0.59832900  0.86230900  1
  H  3591  1  0.60364000  0.88966600  0.08932500  1
  H  3592  1  0.59840500  0.86230500  0.16445600  1
  H  3599  1  0.39928400  0.88967600  0.91370400  1
  H  3600  1  0.40478400  0.86228000  0.83860000  1
  H  3607  1  0.39952300  0.11340900  0.08935800  1
  H  3608  1  0.40449600  0.14071900  0.16452100  1
  H  3615  1  0.60382600  0.11339400  0.91372300  1
  H  3616  1  0.59823300  0.14075400  0.83862300  1
  H  3623  1  0.88968600  0.91371900  0.39932300  1
  H  3624  1  0.86230200  0.83862700  0.40475200  1
  H  3631  1  0.88965600  0.08934000  0.60367700  1
  H  3632  1  0.86228400  0.16448200  0.59837300  1
  H  3639  1  0.11338400  0.91370400  0.60377000  1
  H  3640  1  0.14077000  0.83859600  0.59828500  1
  H  3647  1  0.11341900  0.08933800  0.39946800  1
  H  3648  1  0.14070300  0.16449500  0.40455000  1
  C  1  1  0.08980500  0.34282600  0.40953800  1
  C  2  1  0.06349100  0.34662700  0.40738100  1
  C  3  1  0.09523700  0.31732100  0.40349000  1
  C  4  1  0.08233200  0.30066400  0.41922200  1
  C  7  1  0.05648500  0.30617700  0.41646300  1
  C  8  1  0.04986300  0.33070300  0.42328900  1
  C  13  1  0.05811700  0.33563300  0.44783200  1
  C  14  1  0.08380500  0.33063800  0.45180500  1
  C  17  1  0.09012300  0.30620100  0.44378400  1
  C  20  1  0.09675900  0.34690100  0.43519700  1
  C  23  1  0.91323700  0.66023100  0.40954000  1
  C  24  1  0.93955400  0.65644000  0.40737700  1
  C  25  1  0.90781300  0.68573800  0.40348500  1
  C  26  1  0.92071100  0.70240200  0.41922100  1
  C  29  1  0.94655900  0.69689200  0.41645900  1
  C  30  1  0.95318400  0.67236800  0.42328200  1
  C  35  1  0.94493300  0.66743500  0.44782400  1
  C  36  1  0.91924400  0.67242800  0.45180300  1
  C  39  1  0.91292100  0.69686400  0.44378300  1
  C  42  1  0.90628700  0.65616300  0.43520000  1
  C  45  1  0.91323200  0.34282600  0.59352900  1
  C  46  1  0.93954600  0.34661700  0.59568000  1
  C  47  1  0.90779800  0.31731800  0.59957200  1
  C  48  1  0.92069400  0.30065900  0.58383000  1
  C  51  1  0.94654200  0.30616700  0.58658500  1
  C  52  1  0.95316700  0.33069300  0.57976300  1
  C  57  1  0.94491100  0.33563100  0.55522500  1
  C  58  1  0.91922100  0.33064000  0.55125600  1
  C  61  1  0.91289700  0.30620400  0.55927200  1
  C  64  1  0.90627400  0.34690500  0.56786900  1
  C  67  1  0.08982500  0.66023100  0.59352900  1
  C  68  1  0.06350900  0.65644500  0.59568000  1
  C  69  1  0.09526400  0.68573700  0.59957900  1
  C  70  1  0.08237300  0.70240000  0.58383800  1
  C  73  1  0.05652200  0.69689900  0.58659500  1
  C  74  1  0.04989200  0.67237600  0.57977000  1
  C  79  1  0.05814400  0.66744100  0.55522900  1
  C  80  1  0.08383500  0.67242300  0.55125900  1
  C  83  1  0.09016800  0.69685500  0.55928000  1
  C  86  1  0.09677900  0.65615300  0.56786900  1
  C  89  1  0.40953800  0.08981000  0.34283100  1
  C  90  1  0.40738100  0.06349500  0.34662900  1
  C  91  1  0.40348500  0.09523800  0.31732600  1
  C  92  1  0.41922100  0.08233700  0.30066400  1
  C  95  1  0.41646100  0.05649000  0.30617700  1
  C  96  1  0.42328900  0.04986800  0.33070300  1
  C  101  1  0.44783200  0.05812200  0.33563300  1
  C  102  1  0.45180300  0.08381100  0.33063800  1
  C  105  1  0.44378100  0.09013000  0.30620100  1
  C  108  1  0.43519800  0.09676500  0.34690300  1
  C  111  1  0.40952000  0.91324000  0.66023100  1
  C  112  1  0.40736000  0.93955600  0.65644200  1
  C  113  1  0.40348000  0.90780300  0.68574000  1
  C  114  1  0.41921900  0.92070200  0.70239900  1
  C  117  1  0.41645400  0.94655100  0.69689200  1
  C  118  1  0.42327200  0.95317900  0.67236600  1
  C  123  1  0.44781200  0.94493000  0.66742500  1
  C  124  1  0.45179100  0.91924100  0.67241600  1
  C  127  1  0.44377900  0.91291600  0.69685400  1
  C  130  1  0.43518200  0.90628900  0.65615300  1
  C  133  1  0.59350900  0.91322800  0.34282600  1
  C  134  1  0.59566200  0.93954600  0.34661900  1
  C  135  1  0.59956700  0.90780800  0.31731900  1
  C  136  1  0.58382800  0.92070200  0.30065600  1
  C  139  1  0.58658200  0.94655100  0.30616700  1
  C  140  1  0.57975300  0.95317100  0.33069200  1
  C  145  1  0.55521300  0.94491400  0.33562100  1
  C  146  1  0.55124400  0.91922400  0.33062800  1
  C  149  1  0.55926800  0.91290400  0.30619400  1
  C  152  1  0.56784900  0.90627100  0.34689500  1
  C  155  1  0.59352900  0.08982000  0.66023500  1
  C  156  1  0.59568200  0.06350400  0.65644700  1
  C  157  1  0.59957400  0.09526300  0.68574000  1
  C  158  1  0.58383500  0.08236800  0.70240200  1
  C  161  1  0.58659500  0.05651800  0.69689900  1
  C  162  1  0.57977000  0.04988700  0.67237600  1
  C  167  1  0.55522900  0.05813900  0.66744000  1
  C  168  1  0.55125800  0.08382900  0.67242300  1
  C  171  1  0.55927700  0.09016100  0.69685500  1
  C  174  1  0.56786900  0.09677300  0.65615500  1
  C  177  1  0.34282800  0.40954500  0.08981600  1
  C  178  1  0.34662700  0.40738700  0.06350200  1
  C  179  1  0.31732300  0.40349900  0.09524800  1
  C  180  1  0.30066400  0.41923600  0.08234500  1
  C  183  1  0.30617700  0.41647600  0.05649800  1
  C  184  1  0.33070300  0.42329900  0.04987600  1
  C  189  1  0.33563800  0.44784100  0.05813000  1
  C  190  1  0.33064300  0.45181300  0.08381800  1
  C  193  1  0.30620600  0.44379600  0.09013800  1
  C  196  1  0.34690600  0.43520300  0.09677100  1
  C  199  1  0.66023000  0.40951300  0.91324500  1
  C  200  1  0.65644000  0.40735400  0.93956100  1
  C  201  1  0.68573700  0.40346700  0.90781300  1
  C  202  1  0.70240000  0.41920400  0.92071100  1
  C  205  1  0.69689200  0.41644100  0.94655900  1
  C  206  1  0.67236800  0.42326200  0.95318700  1
  C  211  1  0.66743000  0.44780400  0.94493600  1
  C  212  1  0.67242100  0.45178100  0.91924800  1
  C  215  1  0.69685700  0.44376600  0.91292200  1
  C  218  1  0.65615600  0.43517500  0.90629400  1
  C  221  1  0.34282500  0.59353600  0.91324200  1
  C  222  1  0.34661700  0.59568700  0.93955800  1
  C  223  1  0.31731600  0.59958100  0.90780900  1
  C  224  1  0.30065700  0.58384300  0.92070600  1
  C  227  1  0.30616700  0.58659800  0.94655600  1
  C  228  1  0.33069200  0.57977500  0.95317900  1
  C  233  1  0.33562600  0.55523500  0.94492300  1
  C  234  1  0.33063500  0.55126400  0.91923400  1
  C  237  1  0.30619900  0.55928300  0.91291200  1
  C  240  1  0.34690000  0.56787600  0.90628400  1
  C  243  1  0.66023300  0.59350200  0.08983300  1
  C  244  1  0.65644500  0.59565700  0.06351600  1
  C  245  1  0.68573700  0.59956000  0.09526400  1
  C  246  1  0.70240400  0.58382200  0.08237200  1
  C  249  1  0.69689900  0.58657600  0.05652300  1
  C  250  1  0.67237600  0.57974800  0.04989500  1
  C  255  1  0.66744500  0.55520700  0.05814800  1
  C  256  1  0.67243000  0.55123700  0.08383900  1
  C  259  1  0.69686000  0.55926200  0.09016900  1
  C  262  1  0.65616000  0.56784400  0.09678700  1
  C  265  1  0.34282600  0.08980500  0.59351600  1
  C  266  1  0.34662700  0.06349100  0.59567400  1
  C  267  1  0.31732100  0.09523700  0.59956400  1
  C  268  1  0.30066400  0.08233200  0.58383200  1
  C  271  1  0.30617700  0.05648500  0.58659200  1
  C  272  1  0.33070300  0.04986300  0.57976500  1
  C  277  1  0.33563300  0.05811700  0.55522200  1
  C  278  1  0.33063800  0.08380500  0.55124900  1
  C  281  1  0.30620100  0.09012300  0.55927000  1
  C  284  1  0.34690100  0.09675900  0.56785700  1
  C  287  1  0.66023100  0.91323700  0.59351400  1
  C  288  1  0.65644000  0.93955400  0.59567700  1
  C  289  1  0.68573800  0.90781300  0.59956900  1
  C  290  1  0.70240200  0.92071100  0.58383300  1
  C  293  1  0.69689200  0.94655900  0.58659500  1
  C  294  1  0.67236800  0.95318400  0.57977200  1
  C  299  1  0.66743500  0.94493300  0.55523000  1
  C  300  1  0.67242800  0.91924400  0.55125100  1
  C  303  1  0.69686400  0.91292100  0.55927200  1
  C  306  1  0.65616300  0.90628700  0.56785400  1
  C  309  1  0.34282600  0.91323200  0.40952500  1
  C  310  1  0.34661700  0.93954600  0.40737400  1
  C  311  1  0.31731800  0.90779800  0.40348200  1
  C  312  1  0.30065900  0.92069400  0.41922400  1
  C  315  1  0.30616700  0.94654200  0.41646900  1
  C  316  1  0.33069300  0.95316700  0.42329100  1
  C  321  1  0.33563100  0.94491100  0.44782900  1
  C  322  1  0.33064000  0.91922100  0.45179800  1
  C  325  1  0.30620400  0.91289700  0.44378300  1
  C  328  1  0.34690500  0.90627400  0.43518500  1
  C  331  1  0.66023100  0.08982500  0.40952500  1
  C  332  1  0.65644500  0.06350900  0.40737400  1
  C  333  1  0.68573700  0.09526400  0.40347500  1
  C  334  1  0.70240000  0.08237300  0.41921600  1
  C  337  1  0.69689900  0.05652200  0.41645900  1
  C  338  1  0.67237600  0.04989200  0.42328400  1
  C  343  1  0.66744100  0.05814400  0.44782600  1
  C  344  1  0.67242300  0.08383500  0.45179500  1
  C  347  1  0.69685500  0.09016800  0.44377400  1
  C  350  1  0.65615300  0.09677900  0.43518500  1
  C  353  1  0.08981000  0.40953800  0.66022300  1
  C  354  1  0.06349500  0.40738100  0.65642500  1
  C  355  1  0.09523800  0.40348500  0.68572800  1
  C  356  1  0.08233700  0.41922100  0.70239000  1
  C  359  1  0.05649000  0.41646100  0.69687700  1
  C  360  1  0.04986800  0.42328900  0.67235100  1
  C  365  1  0.05812200  0.44783200  0.66742100  1
  C  366  1  0.08381100  0.45180300  0.67241600  1
  C  369  1  0.09013000  0.44378100  0.69685400  1
  C  372  1  0.09676500  0.43519800  0.65615100  1
  C  375  1  0.91324000  0.40952000  0.34282300  1
  C  376  1  0.93955600  0.40736000  0.34661200  1
  C  377  1  0.90780300  0.40348000  0.31731400  1
  C  378  1  0.92070200  0.41921900  0.30065600  1
  C  381  1  0.94655100  0.41645400  0.30616200  1
  C  382  1  0.95317900  0.42327200  0.33068800  1
  C  387  1  0.94493000  0.44781200  0.33563000  1
  C  388  1  0.91924100  0.45179100  0.33063800  1
  C  391  1  0.91291600  0.44377900  0.30620100  1
  C  394  1  0.90628900  0.43518200  0.34690100  1
  C  397  1  0.91322800  0.59350900  0.66022800  1
  C  398  1  0.93954600  0.59566200  0.65643500  1
  C  399  1  0.90780800  0.59956700  0.68573500  1
  C  400  1  0.92070200  0.58382800  0.70239900  1
  C  403  1  0.94655100  0.58658200  0.69688700  1
  C  404  1  0.95317100  0.57975300  0.67236200  1
  C  409  1  0.94491400  0.55521300  0.66743300  1
  C  410  1  0.91922400  0.55124400  0.67242600  1
  C  413  1  0.91290400  0.55926800  0.69686000  1
  C  416  1  0.90627100  0.56784900  0.65616000  1
  C  419  1  0.08982000  0.59352900  0.34282000  1
  C  420  1  0.06350400  0.59568200  0.34660700  1
  C  421  1  0.09526300  0.59957400  0.31731400  1
  C  422  1  0.08236800  0.58383500  0.30065200  1
  C  425  1  0.05651800  0.58659500  0.30615500  1
  C  426  1  0.04988700  0.57977000  0.33067800  1
  C  431  1  0.05813900  0.55522900  0.33561400  1
  C  432  1  0.08382900  0.55125800  0.33063100  1
  C  435  1  0.09016100  0.55927700  0.30619900  1
  C  438  1  0.09677300  0.56786900  0.34690000  1
  C  441  1  0.40954500  0.34282800  0.91323800  1
  C  442  1  0.40738700  0.34662700  0.93955300  1
  C  443  1  0.40349900  0.31732300  0.90780600  1
  C  444  1  0.41923600  0.30066400  0.92070900  1
  C  447  1  0.41647600  0.30617700  0.94655600  1
  C  448  1  0.42329900  0.33070300  0.95317900  1
  C  453  1  0.44784100  0.33563800  0.94492400  1
  C  454  1  0.45181300  0.33064300  0.91923600  1
  C  457  1  0.44379600  0.30620600  0.91291600  1
  C  460  1  0.43520300  0.34690600  0.90628400  1
  C  463  1  0.40951300  0.66023000  0.08980900  1
  C  464  1  0.40735400  0.65644000  0.06349300  1
  C  465  1  0.40346700  0.68573700  0.09524200  1
  C  466  1  0.41920400  0.70240000  0.08234300  1
  C  469  1  0.41644100  0.69689200  0.05649500  1
  C  470  1  0.42326200  0.67236800  0.04986700  1
  C  475  1  0.44780400  0.66743000  0.05811800  1
  C  476  1  0.45178100  0.67242100  0.08380600  1
  C  479  1  0.44376600  0.69685700  0.09013200  1
  C  482  1  0.43517500  0.65615600  0.09675900  1
  C  485  1  0.59353600  0.34282500  0.08981300  1
  C  486  1  0.59568700  0.34661700  0.06349700  1
  C  487  1  0.59958100  0.31731600  0.09524500  1
  C  488  1  0.58384300  0.30065700  0.08234800  1
  C  491  1  0.58659800  0.30616700  0.05649900  1
  C  492  1  0.57977500  0.33069200  0.04987500  1
  C  497  1  0.55523500  0.33562600  0.05813100  1
  C  498  1  0.55126400  0.33063500  0.08382000  1
  C  501  1  0.55928300  0.30619900  0.09014300  1
  C  504  1  0.56787600  0.34690000  0.09677000  1
  C  507  1  0.59350200  0.66023300  0.91322200  1
  C  508  1  0.59565700  0.65644500  0.93953800  1
  C  509  1  0.59956000  0.68573700  0.90778900  1
  C  510  1  0.58382200  0.70240400  0.92068200  1
  C  513  1  0.58657600  0.69689900  0.94653200  1
  C  514  1  0.57974800  0.67237600  0.95315900  1
  C  519  1  0.55520700  0.66744500  0.94490600  1
  C  520  1  0.55123700  0.67243000  0.91921600  1
  C  523  1  0.55926200  0.69686000  0.91288500  1
  C  526  1  0.56784400  0.65616000  0.90626700  1
  C  529  1  0.91130300  0.65891800  0.59221700  1
  C  530  1  0.93747400  0.65505500  0.59490000  1
  C  531  1  0.90588000  0.68449900  0.59848200  1
  C  532  1  0.91930200  0.70163800  0.58330900  1
  C  535  1  0.94499800  0.69579400  0.58661700  1
  C  536  1  0.95144200  0.67117200  0.57973100  1
  C  541  1  0.94382100  0.66701400  0.55479800  1
  C  542  1  0.91803800  0.67156000  0.55063000  1
  C  545  1  0.91237900  0.69626700  0.55835500  1
  C  548  1  0.90465400  0.65531500  0.56658400  1
  C  551  1  0.09175900  0.34414500  0.59222400  1
  C  552  1  0.06558800  0.34802000  0.59489500  1
  C  553  1  0.09717200  0.31855700  0.59848600  1
  C  554  1  0.08374400  0.30142200  0.58331400  1
  C  557  1  0.05804900  0.30728000  0.58661700  1
  C  558  1  0.05161800  0.33190400  0.57972500  1
  C  563  1  0.05924400  0.33605300  0.55479000  1
  C  564  1  0.08502600  0.33149700  0.55063200  1
  C  567  1  0.09067200  0.30679100  0.55836000  1
  C  570  1  0.09841000  0.34774100  0.56659100  1
  C  573  1  0.09178400  0.65891800  0.41083700  1
  C  574  1  0.06561400  0.65503600  0.40816300  1
  C  575  1  0.09720000  0.68450400  0.40457900  1
  C  576  1  0.08376600  0.70163300  0.41975100  1
  C  579  1  0.05807200  0.69577500  0.41644100  1
  C  580  1  0.05163800  0.67115200  0.42333100  1
  C  585  1  0.05925900  0.66700100  0.44826600  1
  C  586  1  0.08504000  0.67155400  0.45242900  1
  C  589  1  0.09068900  0.69626300  0.44470200  1
  C  592  1  0.09842500  0.65531400  0.43647000  1
  C  595  1  0.91126600  0.34414300  0.41082800  1
  C  596  1  0.93743500  0.34802100  0.40815400  1
  C  597  1  0.90584800  0.31855500  0.40457400  1
  C  598  1  0.91928000  0.30142600  0.41974700  1
  C  601  1  0.94497500  0.30728200  0.41643900  1
  C  602  1  0.95141000  0.33190800  0.42332500  1
  C  607  1  0.94378800  0.33606200  0.44826000  1
  C  608  1  0.91800600  0.33150900  0.45242200  1
  C  611  1  0.91235500  0.30680100  0.44469900  1
  C  614  1  0.90462200  0.34774900  0.43646100  1
  C  617  1  0.59221100  0.91129800  0.65891100  1
  C  618  1  0.59489500  0.93746900  0.65505000  1
  C  619  1  0.59847400  0.90587400  0.68449400  1
  C  620  1  0.58329900  0.91929500  0.70163200  1
  C  623  1  0.58660800  0.94499200  0.69578900  1
  C  624  1  0.57972500  0.95143700  0.67116700  1
  C  629  1  0.55479100  0.94381600  0.66700600  1
  C  630  1  0.55062200  0.91803300  0.67155000  1
  C  633  1  0.55834500  0.91237400  0.69625700  1
  C  636  1  0.56657900  0.90464900  0.65530500  1
  C  639  1  0.59222400  0.09176700  0.34414100  1
  C  640  1  0.59489500  0.06559500  0.34801800  1
  C  641  1  0.59848600  0.09718000  0.31855500  1
  C  642  1  0.58331200  0.08375300  0.30142100  1
  C  645  1  0.58661500  0.05805800  0.30727700  1
  C  646  1  0.57972500  0.05162400  0.33190100  1
  C  651  1  0.55479100  0.05925000  0.33605200  1
  C  652  1  0.55063200  0.08503300  0.33149700  1
  C  655  1  0.55836000  0.09068100  0.30679100  1
  C  658  1  0.56659100  0.09841600  0.34773900  1
  C  661  1  0.41083800  0.09177600  0.65891600  1
  C  662  1  0.40816300  0.06560700  0.65503300  1
  C  663  1  0.40457900  0.09719200  0.68450200  1
  C  664  1  0.41974900  0.08375700  0.70163200  1
  C  667  1  0.41643900  0.05806400  0.69577200  1
  C  668  1  0.42333100  0.05163200  0.67114800  1
  C  673  1  0.44826600  0.05925200  0.66699900  1
  C  674  1  0.45242900  0.08503300  0.67155400  1
  C  677  1  0.44470200  0.09068000  0.69626200  1
  C  680  1  0.43647200  0.09841900  0.65531200  1
  C  683  1  0.41082300  0.91127100  0.34413600  1
  C  684  1  0.40814900  0.93744000  0.34801600  1
  C  685  1  0.40456400  0.90585500  0.31855000  1
  C  686  1  0.41973700  0.91928600  0.30141900  1
  C  689  1  0.41642900  0.94498200  0.30727700  1
  C  690  1  0.42331900  0.95141500  0.33190300  1
  C  695  1  0.44825300  0.94379100  0.33605300  1
  C  696  1  0.45241500  0.91801000  0.33149900  1
  C  699  1  0.44468900  0.91236100  0.30679100  1
  C  702  1  0.43645600  0.90462600  0.34774100  1
  C  705  1  0.65891600  0.59219900  0.91130300  1
  C  706  1  0.65505000  0.59488100  0.93747400  1
  C  707  1  0.68449700  0.59846200  0.90588000  1
  C  708  1  0.70163500  0.58329000  0.91930300  1
  C  711  1  0.69578900  0.58659800  0.94500000  1
  C  712  1  0.67116800  0.57971300  0.95144200  1
  C  717  1  0.66700900  0.55477900  0.94382300  1
  C  718  1  0.67155700  0.55061000  0.91804000  1
  C  721  1  0.69626300  0.55833500  0.91238200  1
  C  724  1  0.65531200  0.56656600  0.90465600  1
  C  727  1  0.34414600  0.59223800  0.09177200  1
  C  728  1  0.34801800  0.59490800  0.06560000  1
  C  729  1  0.31855900  0.59849600  0.09718700  1
  C  730  1  0.30142400  0.58332200  0.08376100  1
  C  733  1  0.30727900  0.58662500  0.05806600  1
  C  734  1  0.33190300  0.57973600  0.05163100  1
  C  739  1  0.33605700  0.55480300  0.05925600  1
  C  740  1  0.33150200  0.55064400  0.08503900  1
  C  743  1  0.30679600  0.55837000  0.09068900  1
  C  746  1  0.34774600  0.56660500  0.09842100  1
  C  749  1  0.65892100  0.41082000  0.09178500  1
  C  750  1  0.65503900  0.40814400  0.06561400  1
  C  751  1  0.68450700  0.40456000  0.09720100  1
  C  752  1  0.70163700  0.41973000  0.08376700  1
  C  755  1  0.69577900  0.41642200  0.05807400  1
  C  756  1  0.67115500  0.42331300  0.05164000  1
  C  761  1  0.66700600  0.44824800  0.05926000  1
  C  762  1  0.67155900  0.45241000  0.08504200  1
  C  765  1  0.69626700  0.44468400  0.09069200  1
  C  768  1  0.65531700  0.43645300  0.09842600  1
  C  771  1  0.34414100  0.41084200  0.91127700  1
  C  772  1  0.34802300  0.40816800  0.93744900  1
  C  773  1  0.31855400  0.40458400  0.90586400  1
  C  774  1  0.30142600  0.41975400  0.91929600  1
  C  777  1  0.30728500  0.41644700  0.94499000  1
  C  778  1  0.33190900  0.42333800  0.95142300  1
  C  783  1  0.33606000  0.44827100  0.94379900  1
  C  784  1  0.33150400  0.45243400  0.91801800  1
  C  787  1  0.30679600  0.44470800  0.91237200  1
  C  790  1  0.34774400  0.43647500  0.90463400  1
  C  793  1  0.65891800  0.91130300  0.41083700  1
  C  794  1  0.65505500  0.93747400  0.40815400  1
  C  795  1  0.68449900  0.90588000  0.40457200  1
  C  796  1  0.70163800  0.91930200  0.41974600  1
  C  799  1  0.69579400  0.94499800  0.41643700  1
  C  800  1  0.67117200  0.95144200  0.42332300  1
  C  805  1  0.66701400  0.94382100  0.44825600  1
  C  806  1  0.67156000  0.91803800  0.45242400  1
  C  809  1  0.69626700  0.91237900  0.44469900  1
  C  812  1  0.65531500  0.90465400  0.43647000  1
  C  815  1  0.34414500  0.09175900  0.41083000  1
  C  816  1  0.34802000  0.06558800  0.40815900  1
  C  817  1  0.31855700  0.09717200  0.40456900  1
  C  818  1  0.30142200  0.08374400  0.41974100  1
  C  821  1  0.30728000  0.05804900  0.41643700  1
  C  822  1  0.33190400  0.05161800  0.42333000  1
  C  827  1  0.33605300  0.05924400  0.44826500  1
  C  828  1  0.33149700  0.08502600  0.45242200  1
  C  831  1  0.30679100  0.09067200  0.44469400  1
  C  834  1  0.34774100  0.09841000  0.43646300  1
  C  837  1  0.65891800  0.09178400  0.59221700  1
  C  838  1  0.65503600  0.06561400  0.59489200  1
  C  839  1  0.68450400  0.09720000  0.59847600  1
  C  840  1  0.70163300  0.08376600  0.58330400  1
  C  843  1  0.69577500  0.05807200  0.58661300  1
  C  844  1  0.67115200  0.05163800  0.57972300  1
  C  849  1  0.66700100  0.05925900  0.55478800  1
  C  850  1  0.67155400  0.08504000  0.55062500  1
  C  853  1  0.69626300  0.09068900  0.55835200  1
  C  856  1  0.65531400  0.09842500  0.56658400  1
  C  859  1  0.34414300  0.91126600  0.59222600  1
  C  860  1  0.34802100  0.93743500  0.59490000  1
  C  861  1  0.31855500  0.90584800  0.59848100  1
  C  862  1  0.30142600  0.91928000  0.58330700  1
  C  865  1  0.30728200  0.94497500  0.58661500  1
  C  866  1  0.33190800  0.95141000  0.57973000  1
  C  871  1  0.33606200  0.94378800  0.55479500  1
  C  872  1  0.33150900  0.91800600  0.55063200  1
  C  875  1  0.30680100  0.91235500  0.55835500  1
  C  878  1  0.34774900  0.90462200  0.56659300  1
  C  881  1  0.91129800  0.59221100  0.34414300  1
  C  882  1  0.93746900  0.59489500  0.34800500  1
  C  883  1  0.90587400  0.59847400  0.31856100  1
  C  884  1  0.91929500  0.58329900  0.30142200  1
  C  887  1  0.94499200  0.58660800  0.30726500  1
  C  888  1  0.95143700  0.57972500  0.33188700  1
  C  893  1  0.94381600  0.55479100  0.33604800  1
  C  894  1  0.91803300  0.55062200  0.33150400  1
  C  897  1  0.91237400  0.55834500  0.30679800  1
  C  900  1  0.90464900  0.56657900  0.34774900  1
  C  903  1  0.09176700  0.59222400  0.65891300  1
  C  904  1  0.06559500  0.59489500  0.65503600  1
  C  905  1  0.09718000  0.59848600  0.68449900  1
  C  906  1  0.08375300  0.58331200  0.70163300  1
  C  909  1  0.05805800  0.58661500  0.69577700  1
  C  910  1  0.05162400  0.57972500  0.67115300  1
  C  915  1  0.05925000  0.55479100  0.66700200  1
  C  916  1  0.08503300  0.55063200  0.67155700  1
  C  919  1  0.09068100  0.55836000  0.69626300  1
  C  922  1  0.09841600  0.56659100  0.65531500  1
  C  925  1  0.09177600  0.41083800  0.34413800  1
  C  926  1  0.06560700  0.40816300  0.34802100  1
  C  927  1  0.09719200  0.40457900  0.31855200  1
  C  928  1  0.08375700  0.41974900  0.30142200  1
  C  931  1  0.05806400  0.41643900  0.30728200  1
  C  932  1  0.05163200  0.42333100  0.33190600  1
  C  937  1  0.05925200  0.44826600  0.33605500  1
  C  938  1  0.08503300  0.45242900  0.33150100  1
  C  941  1  0.09068000  0.44470200  0.30679300  1
  C  944  1  0.09841900  0.43647200  0.34774200  1
  C  947  1  0.91127100  0.41082300  0.65891800  1
  C  948  1  0.93744000  0.40814900  0.65503800  1
  C  949  1  0.90585500  0.40456400  0.68450400  1
  C  950  1  0.91928600  0.41973700  0.70163500  1
  C  953  1  0.94498200  0.41642900  0.69577700  1
  C  954  1  0.95141500  0.42331900  0.67115200  1
  C  959  1  0.94379100  0.44825300  0.66700100  1
  C  960  1  0.91801000  0.45241500  0.67155500  1
  C  963  1  0.91236100  0.44468900  0.69626300  1
  C  966  1  0.90462600  0.43645600  0.65531400  1
  C  969  1  0.59219900  0.65891600  0.09175200  1
  C  970  1  0.59488100  0.65505000  0.06558000  1
  C  971  1  0.59846200  0.68449700  0.09717400  1
  C  972  1  0.58329000  0.70163500  0.08375100  1
  C  975  1  0.58659800  0.69578900  0.05805400  1
  C  976  1  0.57971300  0.67116800  0.05161200  1
  C  981  1  0.55477900  0.66700900  0.05923200  1
  C  982  1  0.55061000  0.67155700  0.08501500  1
  C  985  1  0.55833500  0.69626300  0.09067200  1
  C  988  1  0.56656600  0.65531200  0.09839900  1
  C  991  1  0.59223800  0.34414600  0.91128200  1
  C  992  1  0.59490800  0.34801800  0.93745400  1
  C  993  1  0.59849600  0.31855900  0.90586700  1
  C  994  1  0.58332200  0.30142400  0.91929300  1
  C  997  1  0.58662500  0.30727900  0.94498800  1
  C  998  1  0.57973600  0.33190300  0.95142300  1
  C  1003  1  0.55480300  0.33605700  0.94379800  1
  C  1004  1  0.55064400  0.33150200  0.91801500  1
  C  1007  1  0.55837000  0.30679600  0.91236600  1
  C  1010  1  0.56660500  0.34774600  0.90463200  1
  C  1013  1  0.41082000  0.65892100  0.91126900  1
  C  1014  1  0.40814400  0.65503900  0.93744000  1
  C  1015  1  0.40456000  0.68450700  0.90585300  1
  C  1016  1  0.41973000  0.70163700  0.91928600  1
  C  1019  1  0.41642200  0.69577900  0.94498000  1
  C  1020  1  0.42331300  0.67115500  0.95141500  1
  C  1025  1  0.44824800  0.66700600  0.94379400  1
  C  1026  1  0.45241000  0.67155900  0.91801200  1
  C  1029  1  0.44468400  0.69626700  0.91236200  1
  C  1032  1  0.43645300  0.65531700  0.90462700  1
  C  1035  1  0.41084200  0.34414100  0.09177600  1
  C  1036  1  0.40816800  0.34802300  0.06560600  1
  C  1037  1  0.40458400  0.31855400  0.09719100  1
  C  1038  1  0.41975400  0.30142600  0.08375700  1
  C  1041  1  0.41644700  0.30728500  0.05806300  1
  C  1042  1  0.42333800  0.33190900  0.05163200  1
  C  1047  1  0.44827100  0.33606000  0.05925400  1
  C  1048  1  0.45243400  0.33150400  0.08503500  1
  C  1051  1  0.44470800  0.30679600  0.09068200  1
  C  1054  1  0.43647500  0.34774400  0.09842000  1
  C  1057  1  0.58992200  0.84259700  0.90904400  1
  C  1058  1  0.56365800  0.84644900  0.90645600  1
  C  1059  1  0.59532200  0.81678400  0.90420200  1
  C  1060  1  0.58219500  0.80085900  0.92065700  1
  C  1063  1  0.55649800  0.80640900  0.91705300  1
  C  1064  1  0.54987300  0.83121600  0.92287000  1
  C  1069  1  0.55793800  0.83726900  0.94721500  1
  C  1070  1  0.58357400  0.83237400  0.95179800  1
  C  1073  1  0.59034400  0.80777000  0.94478000  1
  C  1076  1  0.59663200  0.84791400  0.93460000  1
  C  1079  1  0.41312600  0.16047000  0.90903600  1
  C  1080  1  0.43939100  0.15662600  0.90644200  1
  C  1081  1  0.40773400  0.18628800  0.90420000  1
  C  1082  1  0.42085700  0.20220900  0.92066200  1
  C  1085  1  0.44655600  0.19666200  0.91705800  1
  C  1086  1  0.45317900  0.17185100  0.92286400  1
  C  1091  1  0.44511500  0.16578900  0.94720500  1
  C  1092  1  0.41948000  0.17068700  0.95179300  1
  C  1095  1  0.41270700  0.19529300  0.94478200  1
  C  1098  1  0.40641900  0.15515300  0.93459300  1
  C  1101  1  0.41312600  0.84259900  0.09402300  1
  C  1102  1  0.43939100  0.84644000  0.09660400  1
  C  1103  1  0.40772400  0.81678300  0.09885700  1
  C  1104  1  0.42084200  0.80085700  0.08239500  1
  C  1107  1  0.44654200  0.80640200  0.08599300  1
  C  1108  1  0.45316900  0.83121000  0.08018100  1
  C  1113  1  0.44510300  0.83726900  0.05584000  1
  C  1114  1  0.41946500  0.83237900  0.05126100  1
  C  1117  1  0.41268900  0.80777600  0.05827600  1
  C  1120  1  0.40641400  0.84791900  0.06846600  1
  C  1123  1  0.58992800  0.16045900  0.09402500  1
  C  1124  1  0.56366300  0.15662000  0.09660700  1
  C  1125  1  0.59533400  0.18627300  0.09886300  1
  C  1126  1  0.58221900  0.20220000  0.08240000  1
  C  1129  1  0.55651800  0.19666000  0.08599800  1
  C  1130  1  0.54988900  0.17185300  0.08018500  1
  C  1135  1  0.55795300  0.16579500  0.05584300  1
  C  1136  1  0.58359300  0.17068100  0.05126500  1
  C  1139  1  0.59037400  0.19528100  0.05828200  1
  C  1142  1  0.59664100  0.15513700  0.06847000  1
  C  1145  1  0.90903900  0.58992300  0.84259400  1
  C  1146  1  0.90644700  0.56366000  0.84644000  1
  C  1147  1  0.90420000  0.59532200  0.81677900  1
  C  1148  1  0.92066000  0.58219900  0.80085600  1
  C  1151  1  0.91705500  0.55650200  0.80640200  1
  C  1152  1  0.92286700  0.54987500  0.83121100  1
  C  1157  1  0.94720800  0.55793800  0.83726900  1
  C  1158  1  0.95179500  0.58357400  0.83237500  1
  C  1161  1  0.94478200  0.59034700  0.80777100  1
  C  1164  1  0.93459500  0.59663200  0.84791400  1
  C  1167  1  0.90902200  0.41313800  0.16045600  1
  C  1168  1  0.90643700  0.43940300  0.15661300  1
  C  1169  1  0.90418700  0.40773500  0.18627300  1
  C  1170  1  0.92064900  0.42085700  0.20219700  1
  C  1173  1  0.91704800  0.44655600  0.19665200  1
  C  1174  1  0.92286000  0.45318200  0.17184300  1
  C  1179  1  0.94720000  0.44511500  0.16578300  1
  C  1180  1  0.95178100  0.41947800  0.17067700  1
  C  1183  1  0.94476800  0.41270400  0.19527900  1
  C  1186  1  0.93457800  0.40642500  0.15513800  1
  C  1189  1  0.09400800  0.41311600  0.84258400  1
  C  1190  1  0.09659900  0.43938100  0.84642700  1
  C  1191  1  0.09884400  0.40772200  0.81676800  1
  C  1192  1  0.08238100  0.42084400  0.80084600  1
  C  1195  1  0.08598300  0.44654100  0.80639200  1
  C  1196  1  0.08017700  0.45316600  0.83120100  1
  C  1201  1  0.05583600  0.44510100  0.83726300  1
  C  1202  1  0.05125000  0.41946500  0.83236800  1
  C  1205  1  0.05826200  0.41269000  0.80776300  1
  C  1208  1  0.06845200  0.40640700  0.84790400  1
  C  1211  1  0.09402100  0.58992700  0.16045500  1
  C  1212  1  0.09659900  0.56366100  0.15661200  1
  C  1213  1  0.09886100  0.59533400  0.18626800  1
  C  1214  1  0.08240200  0.58221500  0.20219700  1
  C  1217  1  0.08600100  0.55651500  0.19665200  1
  C  1218  1  0.08018000  0.54988500  0.17184800  1
  C  1223  1  0.05583800  0.55795300  0.16579400  1
  C  1224  1  0.05126200  0.58359300  0.17068200  1
  C  1227  1  0.05828300  0.59037100  0.19528300  1
  C  1230  1  0.06846600  0.59663900  0.15513700  1
  C  1233  1  0.84259700  0.90905100  0.58992500  1
  C  1234  1  0.84644700  0.90646200  0.56366100  1
  C  1235  1  0.81678300  0.90421000  0.59532400  1
  C  1236  1  0.80085900  0.92066900  0.58220000  1
  C  1239  1  0.80640700  0.91706600  0.55650200  1
  C  1240  1  0.83121600  0.92288200  0.54987900  1
  C  1245  1  0.83727300  0.94722400  0.55794300  1
  C  1246  1  0.83237700  0.95180700  0.58358100  1
  C  1249  1  0.80777300  0.94478800  0.59035200  1
  C  1252  1  0.84791500  0.93460500  0.59663700  1
  C  1255  1  0.16046000  0.90901200  0.41313800  1
  C  1256  1  0.15662000  0.90642200  0.43940300  1
  C  1257  1  0.18627600  0.90417800  0.40773700  1
  C  1258  1  0.20220000  0.92064000  0.42085900  1
  C  1261  1  0.19665700  0.91703600  0.44655800  1
  C  1262  1  0.17184800  0.92284300  0.45318400  1
  C  1267  1  0.16578500  0.94718500  0.44512100  1
  C  1268  1  0.17067700  0.95177100  0.41948500  1
  C  1271  1  0.19528100  0.94476000  0.41270900  1
  C  1274  1  0.15514000  0.93456800  0.40642900  1
  C  1277  1  0.84259900  0.09402900  0.41312900  1
  C  1278  1  0.84644200  0.09661200  0.43939500  1
  C  1279  1  0.81678400  0.09886400  0.40772500  1
  C  1280  1  0.80085900  0.08240600  0.42084700  1
  C  1283  1  0.80640400  0.08600800  0.44654600  1
  C  1284  1  0.83121100  0.08019200  0.45317400  1
  C  1289  1  0.83726800  0.05585000  0.44510800  1
  C  1290  1  0.83237500  0.05126900  0.41947100  1
  C  1293  1  0.80777300  0.05828500  0.41269700  1
  C  1296  1  0.84791700  0.06847200  0.40641900  1
  C  1299  1  0.16046900  0.09400100  0.58994000  1
  C  1300  1  0.15662700  0.09658700  0.56367500  1
  C  1301  1  0.18628500  0.09884100  0.59533700  1
  C  1302  1  0.20220900  0.08237800  0.58221900  1
  C  1305  1  0.19666500  0.08597700  0.55652000  1
  C  1306  1  0.17185600  0.08016500  0.54989400  1
  C  1311  1  0.16579900  0.05582400  0.55796000  1
  C  1312  1  0.17068900  0.05124400  0.58359800  1
  C  1315  1  0.19529100  0.05826000  0.59037600  1
  C  1318  1  0.15515000  0.06844500  0.59665100  1
  C  1321  1  0.84259700  0.58992200  0.09401000  1
  C  1322  1  0.84644900  0.56365800  0.09659900  1
  C  1323  1  0.81678400  0.59532200  0.09885200  1
  C  1324  1  0.80085900  0.58219500  0.08239700  1
  C  1327  1  0.80640900  0.55649800  0.08600200  1
  C  1328  1  0.83121600  0.54987300  0.08018300  1
  C  1333  1  0.83726900  0.55793800  0.05583900  1
  C  1334  1  0.83237400  0.58357400  0.05125700  1
  C  1337  1  0.80777000  0.59034400  0.05827400  1
  C  1340  1  0.84791400  0.59663200  0.06845500  1
  C  1343  1  0.16047000  0.41312600  0.09401800  1
  C  1344  1  0.15662600  0.43939100  0.09661200  1
  C  1345  1  0.18628800  0.40773400  0.09885400  1
  C  1346  1  0.20220900  0.42085700  0.08239200  1
  C  1349  1  0.19666200  0.44655600  0.08599700  1
  C  1350  1  0.17185100  0.45317900  0.08019100  1
  C  1355  1  0.16578900  0.44511500  0.05584900  1
  C  1356  1  0.17068700  0.41948000  0.05126200  1
  C  1359  1  0.19529300  0.41270700  0.05827300  1
  C  1362  1  0.15515300  0.40641900  0.06846100  1
  C  1365  1  0.84259900  0.41312600  0.90903200  1
  C  1366  1  0.84644000  0.43939100  0.90645100  1
  C  1367  1  0.81678300  0.40772400  0.90419700  1
  C  1368  1  0.80085700  0.42084200  0.92066000  1
  C  1371  1  0.80640200  0.44654200  0.91706100  1
  C  1372  1  0.83121000  0.45316900  0.92287400  1
  C  1377  1  0.83726900  0.44510300  0.94721300  1
  C  1378  1  0.83237900  0.41946500  0.95179300  1
  C  1381  1  0.80777600  0.41268900  0.94477800  1
  C  1384  1  0.84791900  0.40641400  0.93458800  1
  C  1387  1  0.16045900  0.58992800  0.90902900  1
  C  1388  1  0.15662000  0.56366300  0.90644700  1
  C  1389  1  0.18627300  0.59533400  0.90419200  1
  C  1390  1  0.20220000  0.58221900  0.92065400  1
  C  1393  1  0.19666000  0.55651800  0.91705600  1
  C  1394  1  0.17185300  0.54988900  0.92287000  1
  C  1399  1  0.16579500  0.55795300  0.94721000  1
  C  1400  1  0.17068100  0.58359300  0.95179000  1
  C  1403  1  0.19528100  0.59037400  0.94477100  1
  C  1406  1  0.15513700  0.59664100  0.93458400  1
  C  1409  1  0.58992300  0.90903900  0.16046000  1
  C  1410  1  0.56366000  0.90644700  0.15661400  1
  C  1411  1  0.59532200  0.90420000  0.18627500  1
  C  1412  1  0.58219900  0.92066000  0.20219900  1
  C  1415  1  0.55650200  0.91705500  0.19665200  1
  C  1416  1  0.54987500  0.92286700  0.17184300  1
  C  1421  1  0.55793800  0.94720800  0.16578500  1
  C  1422  1  0.58357400  0.95179500  0.17067900  1
  C  1425  1  0.59034700  0.94478200  0.19528300  1
  C  1428  1  0.59663200  0.93459500  0.15514000  1
  C  1431  1  0.41313800  0.90902200  0.84259700  1
  C  1432  1  0.43940300  0.90643700  0.84644000  1
  C  1433  1  0.40773500  0.90418700  0.81678100  1
  C  1434  1  0.42085700  0.92064900  0.80085700  1
  C  1437  1  0.44655600  0.91704800  0.80640200  1
  C  1438  1  0.45318200  0.92286000  0.83121100  1
  C  1443  1  0.44511500  0.94720000  0.83727100  1
  C  1444  1  0.41947800  0.95178100  0.83237700  1
  C  1447  1  0.41270400  0.94476800  0.80777500  1
  C  1450  1  0.40642500  0.93457800  0.84791500  1
  C  1453  1  0.41311600  0.09400800  0.16046900  1
  C  1454  1  0.43938100  0.09659900  0.15662700  1
  C  1455  1  0.40772200  0.09884400  0.18628700  1
  C  1456  1  0.42084400  0.08238100  0.20220900  1
  C  1459  1  0.44654100  0.08598300  0.19666200  1
  C  1460  1  0.45316600  0.08017700  0.17185300  1
  C  1465  1  0.44510100  0.05583600  0.16579100  1
  C  1466  1  0.41946500  0.05125000  0.17068600  1
  C  1469  1  0.41269000  0.05826200  0.19529100  1
  C  1472  1  0.40640700  0.06845200  0.15515000  1
  C  1475  1  0.58992700  0.09402100  0.84259900  1
  C  1476  1  0.56366100  0.09659900  0.84644200  1
  C  1477  1  0.59533400  0.09886100  0.81678600  1
  C  1478  1  0.58221500  0.08240200  0.80085700  1
  C  1481  1  0.55651500  0.08600100  0.80640200  1
  C  1482  1  0.54988500  0.08018000  0.83120600  1
  C  1487  1  0.55795300  0.05583800  0.83725900  1
  C  1488  1  0.58359300  0.05126200  0.83237200  1
  C  1491  1  0.59037100  0.05828300  0.80777100  1
  C  1494  1  0.59663900  0.06846600  0.84791700  1
  C  1497  1  0.90905100  0.84259700  0.41312900  1
  C  1498  1  0.90646200  0.84644700  0.43939300  1
  C  1499  1  0.90421000  0.81678300  0.40773000  1
  C  1500  1  0.92066900  0.80085900  0.42085400  1
  C  1503  1  0.91706600  0.80640700  0.44655300  1
  C  1504  1  0.92288200  0.83121600  0.45317600  1
  C  1509  1  0.94722400  0.83727300  0.44511100  1
  C  1510  1  0.95180700  0.83237700  0.41947300  1
  C  1513  1  0.94478800  0.80777300  0.41270200  1
  C  1516  1  0.93460500  0.84791500  0.40641700  1
  C  1519  1  0.90901200  0.16046000  0.58991700  1
  C  1520  1  0.90642200  0.15662000  0.56365100  1
  C  1521  1  0.90417800  0.18627600  0.59531700  1
  C  1522  1  0.92064000  0.20220000  0.58219500  1
  C  1525  1  0.91703600  0.19665700  0.55649700  1
  C  1526  1  0.92284300  0.17184800  0.54987000  1
  C  1531  1  0.94718500  0.16578500  0.55793300  1
  C  1532  1  0.95177100  0.17067700  0.58356900  1
  C  1535  1  0.94476000  0.19528100  0.59034500  1
  C  1538  1  0.93456800  0.15514000  0.59662600  1
  C  1541  1  0.09402900  0.84259900  0.58992500  1
  C  1542  1  0.09661200  0.84644200  0.56366000  1
  C  1543  1  0.09886400  0.81678400  0.59532900  1
  C  1544  1  0.08240600  0.80085900  0.58220700  1
  C  1547  1  0.08600800  0.80640400  0.55650800  1
  C  1548  1  0.08019200  0.83121100  0.54988000  1
  C  1553  1  0.05585000  0.83726800  0.55794600  1
  C  1554  1  0.05126900  0.83237500  0.58358300  1
  C  1557  1  0.05828500  0.80777300  0.59035700  1
  C  1560  1  0.06847200  0.84791700  0.59663600  1
  C  1563  1  0.09400100  0.16046900  0.41311400  1
  C  1564  1  0.09658700  0.15662700  0.43937900  1
  C  1565  1  0.09884100  0.18628500  0.40771700  1
  C  1566  1  0.08237800  0.20220900  0.42083500  1
  C  1569  1  0.08597700  0.19666500  0.44653400  1
  C  1570  1  0.08016500  0.17185600  0.45316100  1
  C  1575  1  0.05582400  0.16579900  0.44509400  1
  C  1576  1  0.05124400  0.17068900  0.41945600  1
  C  1579  1  0.05826000  0.19529100  0.41267800  1
  C  1582  1  0.06844500  0.15515000  0.40640300  1
  C  1585  1  0.41114000  0.15949500  0.09275700  1
  C  1586  1  0.43724500  0.15530400  0.09569900  1
  C  1587  1  0.40606000  0.18541000  0.09800600  1
  C  1588  1  0.41978400  0.20185700  0.08221800  1
  C  1591  1  0.44527600  0.19569800  0.08626700  1
  C  1592  1  0.45148200  0.17080000  0.08015500  1
  C  1597  1  0.44398100  0.16592300  0.05533100  1
  C  1598  1  0.41825000  0.17045700  0.05075200  1
  C  1601  1  0.41253700  0.19538700  0.05758800  1
  C  1604  1  0.40467800  0.15492600  0.06719700  1
  C  1607  1  0.59192100  0.84356800  0.09276700  1
  C  1608  1  0.56581400  0.84776700  0.09569800  1
  C  1609  1  0.59699600  0.81764900  0.09801500  1
  C  1610  1  0.58326700  0.80120400  0.08223000  1
  C  1613  1  0.55777700  0.80737300  0.08627900  1
  C  1614  1  0.55157600  0.83226900  0.08015700  1
  C  1619  1  0.55908000  0.83713700  0.05533100  1
  C  1620  1  0.58480900  0.83259700  0.05075900  1
  C  1623  1  0.59051700  0.80766700  0.05760000  1
  C  1626  1  0.59838100  0.84812700  0.06720300  1
  C  1629  1  0.59193800  0.15949800  0.91029500  1
  C  1630  1  0.56583300  0.15529000  0.90736200  1
  C  1631  1  0.59701400  0.18541500  0.90504800  1
  C  1632  1  0.58328000  0.20185500  0.92083200  1
  C  1635  1  0.55779000  0.19568500  0.91678200  1
  C  1636  1  0.55159100  0.17078700  0.92290200  1
  C  1641  1  0.55909200  0.16591900  0.94772800  1
  C  1642  1  0.58481900  0.17045700  0.95230300  1
  C  1645  1  0.59052700  0.19539000  0.94546300  1
  C  1648  1  0.59839300  0.15493000  0.93585600  1
  C  1651  1  0.41111600  0.84356300  0.91028700  1
  C  1652  1  0.43722300  0.84776900  0.90735400  1
  C  1653  1  0.40604200  0.81764600  0.90504100  1
  C  1654  1  0.41977200  0.80120600  0.92082900  1
  C  1657  1  0.44526300  0.80737500  0.91678000  1
  C  1658  1  0.45146400  0.83227300  0.92289700  1
  C  1663  1  0.44396100  0.83714300  0.94772300  1
  C  1664  1  0.41823200  0.83260600  0.95229600  1
  C  1667  1  0.41252500  0.80767200  0.94545800  1
  C  1670  1  0.40465900  0.84813100  0.93584800  1
  C  1673  1  0.09275100  0.41113800  0.15949400  1
  C  1674  1  0.09569000  0.43724500  0.15530200  1
  C  1675  1  0.09799900  0.40606000  0.18540900  1
  C  1676  1  0.08220900  0.41978300  0.20185500  1
  C  1679  1  0.08625700  0.44527400  0.19569500  1
  C  1680  1  0.08014500  0.45148000  0.17079700  1
  C  1685  1  0.05532100  0.44397800  0.16592000  1
  C  1686  1  0.05074400  0.41824700  0.17045400  1
  C  1689  1  0.05758000  0.41253400  0.19538500  1
  C  1692  1  0.06719000  0.40467500  0.15492400  1
  C  1695  1  0.09276800  0.59192100  0.84356500  1
  C  1696  1  0.09570000  0.56581400  0.84776200  1
  C  1697  1  0.09801100  0.59699900  0.81764600  1
  C  1698  1  0.08222400  0.58327200  0.80120000  1
  C  1701  1  0.08627300  0.55778200  0.80736600  1
  C  1702  1  0.08015700  0.55157600  0.83226400  1
  C  1707  1  0.05533200  0.55907800  0.83713500  1
  C  1708  1  0.05075700  0.58480700  0.83260100  1
  C  1711  1  0.05759500  0.59051900  0.80766900  1
  C  1714  1  0.06720400  0.59837800  0.84812900  1
  C  1717  1  0.91029500  0.59193800  0.15949400  1
  C  1718  1  0.90736400  0.56583300  0.15528400  1
  C  1719  1  0.90504400  0.59700900  0.18541200  1
  C  1720  1  0.92082700  0.58327500  0.20185400  1
  C  1723  1  0.91677700  0.55778700  0.19567800  1
  C  1724  1  0.92290200  0.55159100  0.17078200  1
  C  1729  1  0.94773000  0.55909300  0.16591800  1
  C  1730  1  0.95230100  0.58482100  0.17046000  1
  C  1733  1  0.94545800  0.59052400  0.19539200  1
  C  1736  1  0.93585800  0.59839600  0.15493300  1
  C  1739  1  0.91028000  0.41111800  0.84356100  1
  C  1740  1  0.90734500  0.43722500  0.84776600  1
  C  1741  1  0.90503400  0.40604200  0.81764400  1
  C  1742  1  0.92082000  0.41977400  0.80120200  1
  C  1745  1  0.91677000  0.44526400  0.80737100  1
  C  1746  1  0.92288700  0.45146500  0.83226900  1
  C  1751  1  0.94771300  0.44396400  0.83714000  1
  C  1752  1  0.95228800  0.41823500  0.83260200  1
  C  1755  1  0.94545100  0.41252700  0.80766900  1
  C  1758  1  0.93584100  0.40466300  0.84812900  1
  C  1761  1  0.15949400  0.09273900  0.41114300  1
  C  1762  1  0.15530300  0.09568000  0.43724900  1
  C  1763  1  0.18540900  0.09798700  0.40606200  1
  C  1764  1  0.20185500  0.08219900  0.41978600  1
  C  1767  1  0.19569600  0.08624800  0.44527800  1
  C  1768  1  0.17080000  0.08013600  0.45148500  1
  C  1773  1  0.16592200  0.05531200  0.44398400  1
  C  1774  1  0.17045400  0.05073300  0.41825500  1
  C  1777  1  0.19538500  0.05756800  0.41254100  1
  C  1780  1  0.15492400  0.06717800  0.40468300  1
  C  1783  1  0.84356500  0.09277900  0.59192600  1
  C  1784  1  0.84776200  0.09571000  0.56581900  1
  C  1785  1  0.81764600  0.09802300  0.59700200  1
  C  1786  1  0.80120200  0.08223500  0.58327500  1
  C  1789  1  0.80736800  0.08628300  0.55778500  1
  C  1790  1  0.83226600  0.08016600  0.55158200  1
  C  1795  1  0.83713700  0.05534100  0.55908500  1
  C  1796  1  0.83260100  0.05076800  0.58481600  1
  C  1799  1  0.80766900  0.05760600  0.59052500  1
  C  1802  1  0.84812900  0.06721600  0.59838600  1
  C  1805  1  0.15949800  0.91027700  0.59194200  1
  C  1806  1  0.15529200  0.90734200  0.56583600  1
  C  1807  1  0.18541500  0.90502900  0.59701600  1
  C  1808  1  0.20185700  0.92081300  0.58328200  1
  C  1811  1  0.19568600  0.91676400  0.55779300  1
  C  1812  1  0.17078800  0.92288200  0.55159400  1
  C  1817  1  0.16592100  0.94771000  0.55909500  1
  C  1818  1  0.17046000  0.95228300  0.58482400  1
  C  1821  1  0.19539200  0.94544400  0.59053000  1
  C  1824  1  0.15493300  0.93583700  0.59839800  1
  C  1827  1  0.84356600  0.91029900  0.41112300  1
  C  1828  1  0.84777400  0.90736500  0.43722800  1
  C  1829  1  0.81764900  0.90505000  0.40604900  1
  C  1830  1  0.80120700  0.92083400  0.41978300  1
  C  1833  1  0.80738000  0.91678400  0.44527100  1
  C  1834  1  0.83227600  0.92290600  0.45146900  1
  C  1839  1  0.83714300  0.94773300  0.44396600  1
  C  1840  1  0.83260200  0.95230600  0.41823700  1
  C  1843  1  0.80766900  0.94546400  0.41253400  1
  C  1846  1  0.84812900  0.93586100  0.40466400  1
  C  1849  1  0.15949500  0.41114000  0.91029700  1
  C  1850  1  0.15530400  0.43724500  0.90735500  1
  C  1851  1  0.18541000  0.40606000  0.90504800  1
  C  1852  1  0.20185700  0.41978400  0.92083700  1
  C  1855  1  0.19569800  0.44527600  0.91678700  1
  C  1856  1  0.17080000  0.45148200  0.92289900  1
  C  1861  1  0.16592300  0.44398100  0.94772300  1
  C  1862  1  0.17045700  0.41825000  0.95230100  1
  C  1865  1  0.19538700  0.41253700  0.94546600  1
  C  1868  1  0.15492600  0.40467800  0.93585800  1
  C  1871  1  0.84356800  0.59192100  0.91028700  1
  C  1872  1  0.84776700  0.56581400  0.90735500  1
  C  1873  1  0.81764900  0.59699600  0.90503900  1
  C  1874  1  0.80120400  0.58326700  0.92082400  1
  C  1877  1  0.80737300  0.55777700  0.91677500  1
  C  1878  1  0.83226900  0.55157600  0.92289700  1
  C  1883  1  0.83713700  0.55908000  0.94772300  1
  C  1884  1  0.83259700  0.58480900  0.95229600  1
  C  1887  1  0.80766700  0.59051700  0.94545400  1
  C  1890  1  0.84812700  0.59838100  0.93585100  1
  C  1893  1  0.15949800  0.59193800  0.09276000  1
  C  1894  1  0.15529000  0.56583300  0.09569300  1
  C  1895  1  0.18541500  0.59701400  0.09800600  1
  C  1896  1  0.20185500  0.58328000  0.08222200  1
  C  1899  1  0.19568500  0.55779000  0.08627100  1
  C  1900  1  0.17078700  0.55159100  0.08015300  1
  C  1905  1  0.16591900  0.55909200  0.05532600  1
  C  1906  1  0.17045700  0.58481900  0.05075200  1
  C  1909  1  0.19539000  0.59052700  0.05759100  1
  C  1912  1  0.15493000  0.59839300  0.06719800  1
  C  1915  1  0.84356300  0.41111600  0.09276800  1
  C  1916  1  0.84776900  0.43722300  0.09570000  1
  C  1917  1  0.81764600  0.40604200  0.09801300  1
  C  1918  1  0.80120600  0.41977200  0.08222600  1
  C  1921  1  0.80737500  0.44526300  0.08627400  1
  C  1922  1  0.83227300  0.45146400  0.08015700  1
  C  1927  1  0.83714300  0.44396100  0.05533200  1
  C  1928  1  0.83260600  0.41823200  0.05075800  1
  C  1931  1  0.80767200  0.41252500  0.05759600  1
  C  1934  1  0.84813100  0.40465900  0.06720600  1
  C  1937  1  0.41113800  0.09275100  0.84356100  1
  C  1938  1  0.43724500  0.09569000  0.84775200  1
  C  1939  1  0.40606000  0.09799900  0.81764600  1
  C  1940  1  0.41978300  0.08220900  0.80119900  1
  C  1943  1  0.44527400  0.08625700  0.80735900  1
  C  1944  1  0.45148000  0.08014500  0.83225700  1
  C  1949  1  0.44397800  0.05532100  0.83713500  1
  C  1950  1  0.41824700  0.05074400  0.83260100  1
  C  1953  1  0.41253400  0.05758000  0.80766900  1
  C  1956  1  0.40467500  0.06719000  0.84812900  1
  C  1959  1  0.59192100  0.09276800  0.15949000  1
  C  1960  1  0.56581400  0.09570000  0.15529200  1
  C  1961  1  0.59699900  0.09801100  0.18540900  1
  C  1962  1  0.58327200  0.08222400  0.20185400  1
  C  1965  1  0.55778200  0.08627300  0.19568800  1
  C  1966  1  0.55157600  0.08015700  0.17079000  1
  C  1971  1  0.55907800  0.05533200  0.16591900  1
  C  1972  1  0.58480700  0.05075700  0.17045400  1
  C  1975  1  0.59051900  0.05759500  0.19538500  1
  C  1978  1  0.59837800  0.06720400  0.15492500  1
  C  1981  1  0.59193800  0.91029500  0.84355900  1
  C  1982  1  0.56583300  0.90736400  0.84777100  1
  C  1983  1  0.59700900  0.90504400  0.81764200  1
  C  1984  1  0.58327500  0.92082700  0.80120000  1
  C  1987  1  0.55778700  0.91677700  0.80737600  1
  C  1988  1  0.55159100  0.92290200  0.83227300  1
  C  1993  1  0.55909300  0.94773000  0.83713700  1
  C  1994  1  0.58482100  0.95230100  0.83259400  1
  C  1997  1  0.59052400  0.94545800  0.80766200  1
  C  2000  1  0.59839600  0.93585800  0.84812100  1
  C  2003  1  0.41111800  0.91028000  0.15949300  1
  C  2004  1  0.43722500  0.90734500  0.15528800  1
  C  2005  1  0.40604200  0.90503400  0.18541000  1
  C  2006  1  0.41977400  0.92082000  0.20185200  1
  C  2009  1  0.44526400  0.91677000  0.19568300  1
  C  2010  1  0.45146500  0.92288700  0.17078500  1
  C  2015  1  0.44396400  0.94771300  0.16591400  1
  C  2016  1  0.41823500  0.95228800  0.17045200  1
  C  2019  1  0.41252700  0.94545100  0.19538500  1
  C  2022  1  0.40466300  0.93584100  0.15492500  1
  C  2025  1  0.09273900  0.15949400  0.59191100  1
  C  2026  1  0.09568000  0.15530300  0.56580600  1
  C  2027  1  0.09798700  0.18540900  0.59699200  1
  C  2028  1  0.08219900  0.20185500  0.58326800  1
  C  2031  1  0.08624800  0.19569600  0.55777700  1
  C  2032  1  0.08013600  0.17080000  0.55156900  1
  C  2037  1  0.05531200  0.16592200  0.55907000  1
  C  2038  1  0.05073300  0.17045400  0.58479900  1
  C  2041  1  0.05756800  0.19538500  0.59051400  1
  C  2044  1  0.06717800  0.15492400  0.59837100  1
  C  2047  1  0.09277900  0.84356500  0.41112800  1
  C  2048  1  0.09571000  0.84776200  0.43723500  1
  C  2049  1  0.09802300  0.81764600  0.40605200  1
  C  2050  1  0.08223500  0.80120200  0.41977900  1
  C  2053  1  0.08628300  0.80736800  0.44526900  1
  C  2054  1  0.08016600  0.83226600  0.45147200  1
  C  2059  1  0.05534100  0.83713700  0.44396900  1
  C  2060  1  0.05076800  0.83260100  0.41823900  1
  C  2063  1  0.05760600  0.80766900  0.41252900  1
  C  2066  1  0.06721600  0.84812900  0.40466800  1
  C  2069  1  0.91027700  0.15949800  0.41111300  1
  C  2070  1  0.90734200  0.15529200  0.43721800  1
  C  2071  1  0.90502900  0.18541500  0.40603800  1
  C  2072  1  0.92081300  0.20185700  0.41977200  1
  C  2075  1  0.91676400  0.19568600  0.44526100  1
  C  2076  1  0.92288200  0.17078800  0.45146000  1
  C  2081  1  0.94771000  0.16592100  0.44395900  1
  C  2082  1  0.95228300  0.17046000  0.41823000  1
  C  2085  1  0.94544400  0.19539200  0.41252400  1
  C  2088  1  0.93583700  0.15493300  0.40465600  1
  C  2091  1  0.91029900  0.84356600  0.59193100  1
  C  2092  1  0.90736500  0.84777400  0.56582600  1
  C  2093  1  0.90505000  0.81764900  0.59700600  1
  C  2094  1  0.92083400  0.80120700  0.58327200  1
  C  2097  1  0.91678400  0.80738000  0.55778300  1
  C  2098  1  0.92290600  0.83227600  0.55158600  1
  C  2103  1  0.94773300  0.83714300  0.55908800  1
  C  2104  1  0.95230600  0.83260200  0.58481700  1
  C  2107  1  0.94546400  0.80766900  0.59052000  1
  C  2110  1  0.93586100  0.84812900  0.59839000  1
  C  2113  1  0.10020400  0.26223500  0.40283100  1
  C  2115  1  0.08461300  0.22756900  0.41798600  1
  C  2116  1  0.06983200  0.24128300  0.43060200  1
  C  2118  1  0.08530700  0.27552000  0.41590900  1
  C  2121  1  0.90284500  0.74083600  0.40283100  1
  C  2123  1  0.91843000  0.77549800  0.41800300  1
  C  2124  1  0.93320400  0.76178100  0.43062200  1
  C  2126  1  0.91773600  0.72754600  0.41591100  1
  C  2129  1  0.90282800  0.26222500  0.60022100  1
  C  2131  1  0.91840700  0.22756200  0.58504900  1
  C  2132  1  0.93318300  0.24127800  0.57243000  1
  C  2134  1  0.91771600  0.27551500  0.58713500  1
  C  2137  1  0.10022400  0.74083700  0.60024500  1
  C  2139  1  0.08464600  0.77549800  0.58506100  1
  C  2140  1  0.06987700  0.76178000  0.57243700  1
  C  2142  1  0.08535800  0.72754600  0.58713700  1
  C  2145  1  0.40282800  0.10020500  0.26223200  1
  C  2147  1  0.41799100  0.08461700  0.22756900  1
  C  2148  1  0.43060900  0.06983800  0.24128500  1
  C  2150  1  0.41590800  0.08531000  0.27552200  1
  C  2153  1  0.40283500  0.90283100  0.74083200  1
  C  2155  1  0.41800500  0.91841300  0.77549700  1
  C  2156  1  0.43062400  0.93319000  0.76178000  1
  C  2158  1  0.41591400  0.91772400  0.72754200  1
  C  2161  1  0.60022500  0.90284100  0.26222200  1
  C  2163  1  0.58505300  0.91842400  0.22755900  1
  C  2164  1  0.57243200  0.93319700  0.24127600  1
  C  2166  1  0.58713800  0.91772700  0.27551200  1
  C  2169  1  0.60024100  0.10022400  0.74083600  1
  C  2171  1  0.58506800  0.08464200  0.77549800  1
  C  2172  1  0.57244600  0.06987100  0.76178100  1
  C  2174  1  0.58713500  0.08535500  0.72754600  1
  C  2177  1  0.26223400  0.40284300  0.10021200  1
  C  2179  1  0.22756900  0.41800800  0.08462700  1
  C  2180  1  0.24128500  0.43062700  0.06985000  1
  C  2182  1  0.27552200  0.41592600  0.08531900  1
  C  2185  1  0.74083400  0.40281900  0.90284000  1
  C  2187  1  0.77549700  0.41799000  0.91842400  1
  C  2188  1  0.76178000  0.43060500  0.93320200  1
  C  2190  1  0.72754400  0.41589700  0.91773400  1
  C  2193  1  0.26222700  0.60023500  0.90283600  1
  C  2195  1  0.22756100  0.58507100  0.91842000  1
  C  2196  1  0.24127600  0.57245700  0.93320200  1
  C  2198  1  0.27551400  0.58715200  0.91772700  1
  C  2201  1  0.74084100  0.60023100  0.10021900  1
  C  2203  1  0.77550000  0.58504900  0.08463900  1
  C  2204  1  0.76178100  0.57242000  0.06987400  1
  C  2206  1  0.72754700  0.58712100  0.08535600  1
  C  2209  1  0.26223500  0.10020400  0.60022300  1
  C  2211  1  0.22756900  0.08461300  0.58506800  1
  C  2212  1  0.24128300  0.06983200  0.57245200  1
  C  2214  1  0.27552000  0.08530700  0.58714500  1
  C  2217  1  0.74083600  0.90284500  0.60022300  1
  C  2219  1  0.77549800  0.91843000  0.58505100  1
  C  2220  1  0.76178100  0.93320400  0.57243200  1
  C  2222  1  0.72754600  0.91773600  0.58714300  1
  C  2225  1  0.26222500  0.90282800  0.40283300  1
  C  2227  1  0.22756200  0.91840700  0.41800500  1
  C  2228  1  0.24127800  0.93318300  0.43062400  1
  C  2230  1  0.27551500  0.91771600  0.41591900  1
  C  2233  1  0.74083700  0.10022400  0.40280900  1
  C  2235  1  0.77549800  0.08464600  0.41799300  1
  C  2236  1  0.76178000  0.06987700  0.43061700  1
  C  2238  1  0.72754600  0.08535800  0.41591800  1
  C  2241  1  0.10020500  0.40282800  0.74082200  1
  C  2243  1  0.08461700  0.41799100  0.77548500  1
  C  2244  1  0.06983800  0.43060900  0.76177000  1
  C  2246  1  0.08531000  0.41590800  0.72753200  1
  C  2249  1  0.90283100  0.40283500  0.26222200  1
  C  2251  1  0.91841300  0.41800500  0.22755700  1
  C  2252  1  0.93319000  0.43062400  0.24127500  1
  C  2254  1  0.91772400  0.41591400  0.27551200  1
  C  2257  1  0.90284100  0.60022500  0.74083200  1
  C  2259  1  0.91842400  0.58505300  0.77549500  1
  C  2260  1  0.93319700  0.57243200  0.76177800  1
  C  2262  1  0.91772700  0.58713800  0.72754200  1
  C  2265  1  0.10022400  0.60024100  0.26221900  1
  C  2267  1  0.08464200  0.58506800  0.22755600  1
  C  2268  1  0.06987100  0.57244600  0.24127300  1
  C  2270  1  0.08535500  0.58713500  0.27550900  1
  C  2273  1  0.40284300  0.26223400  0.90284100  1
  C  2275  1  0.41800800  0.22756900  0.91842700  1
  C  2276  1  0.43062700  0.24128500  0.93320400  1
  C  2278  1  0.41592600  0.27552200  0.91773400  1
  C  2281  1  0.40281900  0.74083400  0.10021500  1
  C  2283  1  0.41799000  0.77549700  0.08463100  1
  C  2284  1  0.43060500  0.76178000  0.06985300  1
  C  2286  1  0.41589700  0.72754400  0.08532100  1
  C  2289  1  0.60023500  0.26222700  0.10021900  1
  C  2291  1  0.58507100  0.22756100  0.08463300  1
  C  2292  1  0.57245700  0.24127600  0.06985300  1
  C  2294  1  0.58715200  0.27551400  0.08532600  1
  C  2297  1  0.60023100  0.74084100  0.90283500  1
  C  2299  1  0.58504900  0.77550000  0.91841500  1
  C  2300  1  0.57242000  0.76178100  0.93318000  1
  C  2302  1  0.58712100  0.72754700  0.91769900  1
  C  2305  1  0.90241100  0.74054500  0.60023000  1
  C  2307  1  0.91832100  0.77556900  0.58561900  1
  C  2308  1  0.93251100  0.76165700  0.57245100  1
  C  2310  1  0.91669500  0.72704900  0.58661900  1
  C  2313  1  0.10063000  0.26251300  0.60023000  1
  C  2315  1  0.08470900  0.22749200  0.58562300  1
  C  2316  1  0.07051200  0.24140900  0.57246600  1
  C  2318  1  0.08634100  0.27601100  0.58662700  1
  C  2321  1  0.10065800  0.74053800  0.40283100  1
  C  2323  1  0.08474200  0.77556400  0.41743100  1
  C  2324  1  0.07054500  0.76165200  0.43059300  1
  C  2326  1  0.08636700  0.72704400  0.41643700  1
  C  2329  1  0.90239600  0.26252100  0.40281900  1
  C  2331  1  0.91830600  0.22749700  0.41742600  1
  C  2332  1  0.93249700  0.24140700  0.43059300  1
  C  2334  1  0.91667400  0.27601500  0.41643900  1
  C  2337  1  0.60022500  0.90240400  0.74053600  1
  C  2339  1  0.58561800  0.91831400  0.77556200  1
  C  2340  1  0.57244700  0.93250200  0.76165000  1
  C  2342  1  0.58660800  0.91668600  0.72704300  1
  C  2345  1  0.60023100  0.10064400  0.26251500  1
  C  2347  1  0.58562100  0.08473200  0.22749000  1
  C  2348  1  0.57246100  0.07053600  0.24140400  1
  C  2350  1  0.58662500  0.08635400  0.27601000  1
  C  2353  1  0.40283100  0.10064400  0.74054100  1
  C  2355  1  0.41743100  0.08471900  0.77556200  1
  C  2356  1  0.43058800  0.07052200  0.76164700  1
  C  2358  1  0.41643700  0.08635500  0.72704400  1
  C  2361  1  0.40281400  0.90240200  0.26251300  1
  C  2363  1  0.41742600  0.91831300  0.22749000  1
  C  2364  1  0.43059000  0.93250600  0.24140200  1
  C  2366  1  0.41642900  0.91668300  0.27600800  1
  C  2369  1  0.74053800  0.60021500  0.90240600  1
  C  2371  1  0.77556400  0.58561100  0.91831400  1
  C  2372  1  0.76165500  0.57244400  0.93250700  1
  C  2374  1  0.72704600  0.58660300  0.91669500  1
  C  2377  1  0.26251500  0.60024000  0.10064600  1
  C  2379  1  0.22749300  0.58563000  0.08473300  1
  C  2380  1  0.24140700  0.57246400  0.07054200  1
  C  2382  1  0.27601100  0.58663200  0.08636100  1
  C  2385  1  0.74054600  0.40281400  0.10065300  1
  C  2387  1  0.77556700  0.41742500  0.08473700  1
  C  2388  1  0.76165300  0.43058500  0.07054300  1
  C  2390  1  0.72704900  0.41642200  0.08636600  1
  C  2393  1  0.26252000  0.40283000  0.90241200  1
  C  2395  1  0.22749500  0.41743300  0.91832900  1
  C  2396  1  0.24140900  0.43059200  0.93252600  1
  C  2398  1  0.27601300  0.41644400  0.91669500  1
  C  2401  1  0.74054500  0.90241100  0.40282400  1
  C  2403  1  0.77556900  0.91832100  0.41743500  1
  C  2404  1  0.76165700  0.93251100  0.43060400  1
  C  2406  1  0.72704900  0.91669500  0.41643600  1
  C  2409  1  0.26251300  0.10063000  0.40282400  1
  C  2411  1  0.22749200  0.08470900  0.41743100  1
  C  2412  1  0.24140900  0.07051200  0.43058800  1
  C  2414  1  0.27601100  0.08634100  0.41642700  1
  C  2417  1  0.74053800  0.10065800  0.60022300  1
  C  2419  1  0.77556400  0.08474200  0.58562300  1
  C  2420  1  0.76165200  0.07054500  0.57246100  1
  C  2422  1  0.72704400  0.08636700  0.58661700  1
  C  2425  1  0.26252100  0.90239600  0.60023500  1
  C  2427  1  0.22749700  0.91830600  0.58562800  1
  C  2428  1  0.24140700  0.93249700  0.57246100  1
  C  2430  1  0.27601500  0.91667400  0.58661500  1
  C  2433  1  0.90240400  0.60022500  0.26251800  1
  C  2435  1  0.91831400  0.58561800  0.22749200  1
  C  2436  1  0.93250200  0.57244700  0.24140400  1
  C  2438  1  0.91668600  0.58660800  0.27601100  1
  C  2441  1  0.10064400  0.60023100  0.74054000  1
  C  2443  1  0.08473200  0.58562100  0.77556400  1
  C  2444  1  0.07053600  0.57246100  0.76165000  1
  C  2446  1  0.08635400  0.58662500  0.72704400  1
  C  2449  1  0.10064400  0.40283100  0.26251300  1
  C  2451  1  0.08471900  0.41743100  0.22749200  1
  C  2452  1  0.07052200  0.43058800  0.24140700  1
  C  2454  1  0.08635500  0.41643700  0.27601000  1
  C  2457  1  0.90240200  0.40281400  0.74054100  1
  C  2459  1  0.91831300  0.41742600  0.77556400  1
  C  2460  1  0.93250600  0.43059000  0.76165200  1
  C  2462  1  0.91668300  0.41642900  0.72704600  1
  C  2465  1  0.60021500  0.74053800  0.10064800  1
  C  2467  1  0.58561100  0.77556400  0.08474000  1
  C  2468  1  0.57244400  0.76165500  0.07054600  1
  C  2470  1  0.58660300  0.72704600  0.08636000  1
  C  2473  1  0.60024000  0.26251500  0.90240700  1
  C  2475  1  0.58563000  0.22749300  0.91832100  1
  C  2476  1  0.57246400  0.24140700  0.93251200  1
  C  2478  1  0.58663200  0.27601100  0.91669300  1
  C  2481  1  0.40281400  0.74054600  0.90240100  1
  C  2483  1  0.41742500  0.77556700  0.91831800  1
  C  2484  1  0.43058500  0.76165300  0.93251100  1
  C  2486  1  0.41642200  0.72704900  0.91668800  1
  C  2489  1  0.40283000  0.26252000  0.10064200  1
  C  2491  1  0.41743300  0.22749500  0.08472500  1
  C  2492  1  0.43059200  0.24140900  0.07052700  1
  C  2494  1  0.41644400  0.27601300  0.08635900  1
  C  2497  1  0.10090700  0.34905900  0.51198500  1
  C  2499  1  0.08758600  0.33194500  0.47724800  1
  C  2500  1  0.07617700  0.31625500  0.49114200  1
  C  2502  1  0.08894900  0.33333333  0.52541600  1
  C  2505  1  0.90212600  0.65402500  0.51198300  1
  C  2507  1  0.91547700  0.67111800  0.47724600  1
  C  2508  1  0.92688800  0.68680800  0.49114000  1
  C  2510  1  0.91413700  0.66972200  0.52541100  1
  C  2513  1  0.90212600  0.34907100  0.49107300  1
  C  2515  1  0.91544000  0.33194800  0.52581300  1
  C  2516  1  0.92684800  0.31626100  0.51191400  1
  C  2518  1  0.91408900  0.33333333  0.47764000  1
  C  2521  1  0.10090600  0.65397700  0.49107600  1
  C  2523  1  0.08762500  0.67112000  0.52581800  1
  C  2524  1  0.07621200  0.68680600  0.51191900  1
  C  2526  1  0.08896200  0.66972400  0.47764500  1
  C  2529  1  0.51198300  0.10091200  0.34905900  1
  C  2531  1  0.47724600  0.08759200  0.33194300  1
  C  2532  1  0.49114200  0.07618400  0.31625300  1
  C  2534  1  0.52541400  0.08895500  0.33333333  1
  C  2537  1  0.51197500  0.90212100  0.65401200  1
  C  2539  1  0.47723800  0.91547500  0.67110100  1
  C  2540  1  0.49113200  0.92688700  0.68679100  1
  C  2542  1  0.52540300  0.91413300  0.66971000  1
  C  2545  1  0.49106400  0.90213000  0.34905700  1
  C  2547  1  0.52580300  0.91544200  0.33193300  1
  C  2548  1  0.51190600  0.92685000  0.31624500  1
  C  2550  1  0.47763100  0.91409300  0.33333333  1
  C  2553  1  0.49107400  0.10090000  0.65397800  1
  C  2555  1  0.52581600  0.08761800  0.67112000  1
  C  2556  1  0.51191900  0.07620400  0.68680500  1
  C  2558  1  0.47764500  0.08895500  0.66972400  1
  C  2561  1  0.34906600  0.51199500  0.10091900  1
  C  2563  1  0.33195100  0.47725600  0.08759900  1
  C  2564  1  0.31626100  0.49115200  0.07618900  1
  C  2566  1  0.33333333  0.52542600  0.08896100  1
  C  2569  1  0.65401900  0.51196300  0.90213000  1
  C  2571  1  0.67111000  0.47722600  0.91548200  1
  C  2572  1  0.68679900  0.49112000  0.92689200  1
  C  2574  1  0.66971900  0.52539300  0.91413800  1
  C  2577  1  0.34906400  0.49108400  0.90213800  1
  C  2579  1  0.33194100  0.52582300  0.91545200  1
  C  2580  1  0.31625300  0.51192400  0.92686100  1
  C  2582  1  0.33333333  0.47765200  0.91410100  1
  C  2585  1  0.65398300  0.49105600  0.10090900  1
  C  2587  1  0.67112800  0.52579600  0.08762900  1
  C  2588  1  0.68681500  0.51190100  0.07621600  1
  C  2590  1  0.66972900  0.47762600  0.08896400  1
  C  2593  1  0.34905900  0.10090700  0.49106900  1
  C  2595  1  0.33194500  0.08758600  0.52580600  1
  C  2596  1  0.31625500  0.07617700  0.51191300  1
  C  2598  1  0.33333333  0.08894900  0.47763800  1
  C  2601  1  0.65402500  0.90212600  0.49107100  1
  C  2603  1  0.67111800  0.91547700  0.52580800  1
  C  2604  1  0.68680800  0.92688800  0.51191400  1
  C  2606  1  0.66972200  0.91413700  0.47764300  1
  C  2609  1  0.34907100  0.90212600  0.51198100  1
  C  2611  1  0.33194800  0.91544000  0.47724100  1
  C  2612  1  0.31626100  0.92684800  0.49114000  1
  C  2614  1  0.33333333  0.91408900  0.52541400  1
  C  2617  1  0.65397700  0.10090600  0.51197800  1
  C  2619  1  0.67112000  0.08762500  0.47723600  1
  C  2620  1  0.68680600  0.07621200  0.49113500  1
  C  2622  1  0.66972400  0.08896200  0.52540900  1
  C  2625  1  0.10091200  0.51198300  0.65399500  1
  C  2627  1  0.08759200  0.47724600  0.67111100  1
  C  2628  1  0.07618400  0.49114200  0.68680100  1
  C  2630  1  0.08895500  0.52541400  0.66973000  1
  C  2633  1  0.90212100  0.51197500  0.34904200  1
  C  2635  1  0.91547500  0.47723800  0.33195300  1
  C  2636  1  0.92688700  0.49113200  0.31626300  1
  C  2638  1  0.91413300  0.52540300  0.33333333  1
  C  2641  1  0.90213000  0.49106400  0.65399700  1
  C  2643  1  0.91544200  0.52580300  0.67112100  1
  C  2644  1  0.92685000  0.51190600  0.68681000  1
  C  2646  1  0.91409300  0.47763100  0.66972700  1
  C  2649  1  0.10090000  0.49107400  0.34907600  1
  C  2651  1  0.08761800  0.52581600  0.33193500  1
  C  2652  1  0.07620400  0.51191900  0.31625000  1
  C  2654  1  0.08895500  0.47764500  0.33333333  1
  C  2657  1  0.51199500  0.34906600  0.90213500  1
  C  2659  1  0.47725600  0.33195100  0.91545500  1
  C  2660  1  0.49115200  0.31626100  0.92686500  1
  C  2662  1  0.52542600  0.33333333  0.91409300  1
  C  2665  1  0.51196300  0.65401900  0.10092500  1
  C  2667  1  0.47722600  0.67111000  0.08757300  1
  C  2668  1  0.49112000  0.68679900  0.07616300  1
  C  2670  1  0.52539300  0.66971900  0.08891600  1
  C  2673  1  0.49108400  0.34906400  0.10091600  1
  C  2675  1  0.52582300  0.33194100  0.08760200  1
  C  2676  1  0.51192400  0.31625300  0.07619300  1
  C  2678  1  0.47765200  0.33333333  0.08895300  1
  C  2681  1  0.49105600  0.65398300  0.90214500  1
  C  2683  1  0.52579600  0.67112800  0.91542500  1
  C  2684  1  0.51190100  0.68681500  0.92683800  1
  C  2686  1  0.47762600  0.66972900  0.91408900  1
  C  2689  1  0.60103400  0.85054100  0.01219500  1
  C  2691  1  0.58690600  0.83429600  0.97730500  1
  C  2692  1  0.57474100  0.81915400  0.99117200  1
  C  2694  1  0.58846000  0.83520600  0.02554700  1
  C  2697  1  0.40200500  0.15253000  0.01218900  1
  C  2699  1  0.41615300  0.16875800  0.97730000  1
  C  2700  1  0.42832500  0.18389700  0.99116700  1
  C  2702  1  0.41461400  0.16783700  0.02554000  1
  C  2705  1  0.40200700  0.85055100  0.99086100  1
  C  2707  1  0.41613100  0.83430300  0.02575200  1
  C  2708  1  0.42829400  0.81916100  0.01188500  1
  C  2710  1  0.41458200  0.83521800  0.97750900  1
  C  2713  1  0.60103400  0.15250100  0.99086400  1
  C  2715  1  0.58693000  0.16876200  0.02575700  1
  C  2716  1  0.57476500  0.18390300  0.01189000  1
  C  2718  1  0.58847000  0.16784600  0.97751400  1
  C  2721  1  0.01219400  0.60103000  0.85054600  1
  C  2723  1  0.97730300  0.58690400  0.83430100  1
  C  2724  1  0.99117000  0.57473800  0.81916100  1
  C  2726  1  0.02554500  0.58845700  0.83521100  1
  C  2729  1  0.01218100  0.40200500  0.15252200  1
  C  2731  1  0.97729000  0.41615000  0.16875000  1
  C  2732  1  0.99115700  0.42831500  0.18389300  1
  C  2734  1  0.02553100  0.41460900  0.16783300  1
  C  2737  1  0.99085200  0.40200900  0.85054300  1
  C  2739  1  0.02574300  0.41613500  0.83429400  1
  C  2740  1  0.01187500  0.42830300  0.81915800  1
  C  2742  1  0.97750000  0.41458700  0.83521200  1
  C  2745  1  0.99086200  0.60103700  0.15250600  1
  C  2747  1  0.02575500  0.58693100  0.16876700  1
  C  2748  1  0.01188800  0.57476800  0.18391000  1
  C  2750  1  0.97751200  0.58847400  0.16785200  1
  C  2753  1  0.85054800  0.01220500  0.60103900  1
  C  2755  1  0.83430100  0.97731400  0.58691300  1
  C  2756  1  0.81915900  0.99118000  0.57474800  1
  C  2758  1  0.83521100  0.02555600  0.58846700  1
  C  2761  1  0.15252300  0.01217000  0.40201200  1
  C  2763  1  0.16875000  0.97728000  0.41615800  1
  C  2764  1  0.18389200  0.99114500  0.42832600  1
  C  2766  1  0.16783300  0.02552000  0.41461900  1
  C  2769  1  0.85054600  0.99086900  0.40201400  1
  C  2771  1  0.83429800  0.02576100  0.41613800  1
  C  2772  1  0.81915600  0.01189300  0.42830100  1
  C  2774  1  0.83521100  0.97751900  0.41458900  1
  C  2777  1  0.15250800  0.99084600  0.60104200  1
  C  2779  1  0.16877000  0.02573600  0.58693500  1
  C  2780  1  0.18390800  0.01186900  0.57476700  1
  C  2782  1  0.16785000  0.97749500  0.58847500  1
  C  2785  1  0.85054100  0.60103400  0.99085900  1
  C  2787  1  0.83429600  0.58690600  0.02574900  1
  C  2788  1  0.81915400  0.57474100  0.01188200  1
  C  2790  1  0.83520600  0.58846000  0.97750700  1
  C  2793  1  0.15253000  0.40200500  0.99086400  1
  C  2795  1  0.16875800  0.41615300  0.02575400  1
  C  2796  1  0.18389700  0.42832500  0.01188700  1
  C  2798  1  0.16783700  0.41461400  0.97751500  1
  C  2801  1  0.85055100  0.40200700  0.01219300  1
  C  2803  1  0.83430300  0.41613100  0.97730200  1
  C  2804  1  0.81916100  0.42829400  0.99117000  1
  C  2806  1  0.83521800  0.41458200  0.02554500  1
  C  2809  1  0.15250100  0.60103400  0.01219000  1
  C  2811  1  0.16876200  0.58693000  0.97729700  1
  C  2812  1  0.18390300  0.57476500  0.99116400  1
  C  2814  1  0.16784600  0.58847000  0.02554000  1
  C  2817  1  0.60103000  0.01219400  0.15250800  1
  C  2819  1  0.58690400  0.97730300  0.16875300  1
  C  2820  1  0.57473800  0.99117000  0.18389300  1
  C  2822  1  0.58845700  0.02554500  0.16784300  1
  C  2825  1  0.40200500  0.01218100  0.85053200  1
  C  2827  1  0.41615000  0.97729000  0.83430400  1
  C  2828  1  0.42831500  0.99115700  0.81916100  1
  C  2830  1  0.41460900  0.02553100  0.83522100  1
  C  2833  1  0.40200900  0.99085200  0.15251200  1
  C  2835  1  0.41613500  0.02574300  0.16876000  1
  C  2836  1  0.42830300  0.01187500  0.18389700  1
  C  2838  1  0.41458700  0.97750000  0.16784100  1
  C  2841  1  0.60103700  0.99086200  0.85054900  1
  C  2843  1  0.58693100  0.02575500  0.83428700  1
  C  2844  1  0.57476800  0.01188800  0.81914400  1
  C  2846  1  0.58847400  0.97751200  0.83520200  1
  C  2849  1  0.01220500  0.85054800  0.40201600  1
  C  2851  1  0.97731400  0.83430100  0.41614100  1
  C  2852  1  0.99118000  0.81915900  0.42830600  1
  C  2854  1  0.02555600  0.83521100  0.41458700  1
  C  2857  1  0.01217000  0.15252300  0.60104200  1
  C  2859  1  0.97728000  0.16875000  0.58689600  1
  C  2860  1  0.99114500  0.18389200  0.57472800  1
  C  2862  1  0.02552000  0.16783300  0.58843500  1
  C  2865  1  0.99086900  0.85054600  0.60104000  1
  C  2867  1  0.02576100  0.83429800  0.58691600  1
  C  2868  1  0.01189300  0.81915600  0.57475300  1
  C  2870  1  0.97751900  0.83521100  0.58846500  1
  C  2873  1  0.99084600  0.15250800  0.40201200  1
  C  2875  1  0.02573600  0.16877000  0.41611900  1
  C  2876  1  0.01186900  0.18390800  0.42828800  1
  C  2878  1  0.97749500  0.16785000  0.41457900  1
  C  2881  1  0.98988200  0.34845000  0.40778300  1
  C  2883  1  0.02441500  0.33282600  0.42253100  1
  C  2884  1  0.01093200  0.31908000  0.43656900  1
  C  2886  1  0.97669100  0.33437700  0.42181600  1
  C  2889  1  0.01316500  0.65460900  0.40778600  1
  C  2891  1  0.97863200  0.67024700  0.42252200  1
  C  2892  1  0.99211500  0.68398900  0.43656100  1
  C  2894  1  0.02635600  0.66868300  0.42181900  1
  C  2897  1  0.01314500  0.34845000  0.59526000  1
  C  2899  1  0.97861400  0.33281300  0.58052200  1
  C  2900  1  0.99209700  0.31907300  0.56647800  1
  C  2902  1  0.02633600  0.33437000  0.58123500  1
  C  2905  1  0.98991200  0.65463200  0.59527300  1
  C  2907  1  0.02444400  0.67026200  0.58052900  1
  C  2908  1  0.01096300  0.68400800  0.56649200  1
  C  2910  1  0.97672100  0.66871000  0.58124300  1
  C  2913  1  0.40777800  0.98988700  0.34844700  1
  C  2915  1  0.42253100  0.02442000  0.33282400  1
  C  2916  1  0.43656700  0.01093700  0.31908000  1
  C  2918  1  0.42181100  0.97669600  0.33437300  1
  C  2921  1  0.40778100  0.01316000  0.65460700  1
  C  2923  1  0.42251200  0.97862700  0.67024700  1
  C  2924  1  0.43655600  0.99210900  0.68398900  1
  C  2926  1  0.42181800  0.02635000  0.66867900  1
  C  2929  1  0.59525500  0.01314900  0.34844900  1
  C  2931  1  0.58051300  0.97861900  0.33281400  1
  C  2932  1  0.56647200  0.99210200  0.31907300  1
  C  2934  1  0.58123300  0.02634200  0.33436700  1
  C  2937  1  0.59527000  0.98990700  0.65462900  1
  C  2939  1  0.58052900  0.02443900  0.67026200  1
  C  2940  1  0.56649000  0.01095800  0.68400800  1
  C  2942  1  0.58123800  0.97671800  0.66870600  1
  C  2945  1  0.34845200  0.40779400  0.98989500  1
  C  2947  1  0.33282600  0.42254200  0.02442800  1
  C  2948  1  0.31908400  0.43658100  0.01094500  1
  C  2950  1  0.33438000  0.42182800  0.97670500  1
  C  2953  1  0.65461200  0.40776600  0.01316800  1
  C  2955  1  0.67024800  0.42250200  0.97863500  1
  C  2956  1  0.68399200  0.43654200  0.99211700  1
  C  2958  1  0.66868600  0.42180100  0.02635900  1
  C  2961  1  0.34844900  0.59527200  0.01315800  1
  C  2963  1  0.33281300  0.58053400  0.97862700  1
  C  2964  1  0.31907000  0.56649200  0.99210900  1
  C  2966  1  0.33436700  0.58124800  0.02634900  1
  C  2969  1  0.65462900  0.59525300  0.98991600  1
  C  2971  1  0.67025800  0.58050800  0.02444700  1
  C  2972  1  0.68400600  0.56647200  0.01096500  1
  C  2974  1  0.66870400  0.58122500  0.97672500  1
  C  2977  1  0.34845000  0.98988200  0.59527200  1
  C  2979  1  0.33282600  0.02441500  0.58052300  1
  C  2980  1  0.31908000  0.01093200  0.56648500  1
  C  2982  1  0.33437700  0.97669100  0.58123800  1
  C  2985  1  0.65460900  0.01316500  0.59526800  1
  C  2987  1  0.67024700  0.97863200  0.58053200  1
  C  2988  1  0.68398900  0.99211500  0.56649400  1
  C  2990  1  0.66868300  0.02635600  0.58123500  1
  C  2993  1  0.34845000  0.01314500  0.40779400  1
  C  2995  1  0.33281300  0.97861400  0.42253200  1
  C  2996  1  0.31907300  0.99209700  0.43657600  1
  C  2998  1  0.33437000  0.02633600  0.42181900  1
  C  3001  1  0.65463200  0.98991200  0.40778100  1
  C  3003  1  0.67026200  0.02444400  0.42252600  1
  C  3004  1  0.68400800  0.01096300  0.43656200  1
  C  3006  1  0.66871000  0.97672100  0.42181100  1
  C  3009  1  0.98988700  0.40777800  0.65460700  1
  C  3011  1  0.02442000  0.42253100  0.67023000  1
  C  3012  1  0.01093700  0.43656700  0.68397400  1
  C  3014  1  0.97669600  0.42181100  0.66868100  1
  C  3017  1  0.01316000  0.40778100  0.34844700  1
  C  3019  1  0.97862700  0.42251200  0.33280700  1
  C  3020  1  0.99210900  0.43655600  0.31906500  1
  C  3022  1  0.02635000  0.42181800  0.33437500  1
  C  3025  1  0.01314900  0.59525500  0.65460600  1
  C  3027  1  0.97861900  0.58051300  0.67024000  1
  C  3028  1  0.99210200  0.56647200  0.68398100  1
  C  3030  1  0.02634200  0.58123300  0.66868800  1
  C  3033  1  0.98990700  0.59527000  0.34842500  1
  C  3035  1  0.02443900  0.58052900  0.33279200  1
  C  3036  1  0.01095800  0.56649000  0.31904700  1
  C  3038  1  0.97671800  0.58123800  0.33434800  1
  C  3041  1  0.40779400  0.34845200  0.01315900  1
  C  3043  1  0.42254200  0.33282600  0.97862700  1
  C  3044  1  0.43658100  0.31908400  0.99210900  1
  C  3046  1  0.42182800  0.33438000  0.02635000  1
  C  3049  1  0.40776600  0.65461200  0.98988500  1
  C  3051  1  0.42250200  0.67024800  0.02441900  1
  C  3052  1  0.43654200  0.68399200  0.01093700  1
  C  3054  1  0.42180100  0.66868600  0.97669600  1
  C  3057  1  0.59527200  0.34844900  0.98989700  1
  C  3059  1  0.58053400  0.33281300  0.02442700  1
  C  3060  1  0.56649200  0.31907000  0.01094500  1
  C  3062  1  0.58124800  0.33436700  0.97670500  1
  C  3065  1  0.59525300  0.65462900  0.01313800  1
  C  3067  1  0.58050800  0.67025800  0.97860700  1
  C  3068  1  0.56647200  0.68400600  0.99209000  1
  C  3070  1  0.58122500  0.66870400  0.02633000  1
  C  3073  1  0.48987200  0.84843900  0.90662200  1
  C  3075  1  0.52443200  0.83334400  0.92188300  1
  C  3076  1  0.51096600  0.82013100  0.93642900  1
  C  3078  1  0.47671600  0.83489300  0.92119500  1
  C  3081  1  0.51318200  0.15462600  0.90662000  1
  C  3083  1  0.47862000  0.16972500  0.92187500  1
  C  3084  1  0.49208700  0.18293100  0.93642800  1
  C  3086  1  0.52633800  0.16816800  0.92119700  1
  C  3089  1  0.51316700  0.84844000  0.09642400  1
  C  3091  1  0.47860900  0.83333400  0.08117000  1
  C  3092  1  0.49207500  0.82012600  0.06661900  1
  C  3094  1  0.52632300  0.83488300  0.08186100  1
  C  3097  1  0.48988700  0.15463800  0.09643100  1
  C  3099  1  0.52444700  0.16973200  0.08117200  1
  C  3100  1  0.51098200  0.18294300  0.06662300  1
  C  3102  1  0.47673300  0.16818600  0.08186000  1
  C  3105  1  0.90661200  0.48987500  0.84843200  1
  C  3107  1  0.92187500  0.52443400  0.83333700  1
  C  3108  1  0.93642300  0.51096600  0.82012800  1
  C  3110  1  0.92118500  0.47671800  0.83488800  1
  C  3113  1  0.90662200  0.51318400  0.15461500  1
  C  3115  1  0.92187300  0.47862400  0.16971700  1
  C  3116  1  0.93642600  0.49208900  0.18292500  1
  C  3118  1  0.92119900  0.52633800  0.16815900  1
  C  3121  1  0.09642600  0.51316500  0.84842800  1
  C  3123  1  0.08116900  0.47860700  0.83332700  1
  C  3124  1  0.06661800  0.49207500  0.82012000  1
  C  3126  1  0.08186300  0.52632300  0.83487400  1
  C  3129  1  0.09642100  0.48988400  0.15463100  1
  C  3131  1  0.08116500  0.52444600  0.16972700  1
  C  3132  1  0.06661600  0.51098200  0.18294000  1
  C  3134  1  0.08184900  0.47673200  0.16818100  1
  C  3137  1  0.84844200  0.90663200  0.48987900  1
  C  3139  1  0.83334400  0.92189300  0.52443700  1
  C  3140  1  0.82013500  0.93644300  0.51097100  1
  C  3142  1  0.83489800  0.92120500  0.47672200  1
  C  3145  1  0.15462500  0.90660200  0.51318700  1
  C  3147  1  0.16972500  0.92185500  0.47862500  1
  C  3148  1  0.18293300  0.93640800  0.49209200  1
  C  3150  1  0.16816800  0.92117800  0.52634100  1
  C  3153  1  0.84843700  0.09643300  0.51317400  1
  C  3155  1  0.83333400  0.08118100  0.47861400  1
  C  3156  1  0.82012300  0.06663100  0.49208000  1
  C  3158  1  0.83487800  0.08187100  0.52632900  1
  C  3161  1  0.15463900  0.09641400  0.48989400  1
  C  3163  1  0.16973400  0.08115400  0.52445400  1
  C  3164  1  0.18294300  0.06660300  0.51098700  1
  C  3166  1  0.16818500  0.08184100  0.47673800  1
  C  3169  1  0.84843900  0.48987200  0.09643200  1
  C  3171  1  0.83334400  0.52443200  0.08117100  1
  C  3172  1  0.82013100  0.51096600  0.06662400  1
  C  3174  1  0.83489300  0.47671600  0.08185900  1
  C  3177  1  0.15462600  0.51318200  0.09643400  1
  C  3179  1  0.16972500  0.47862000  0.08118000  1
  C  3180  1  0.18293100  0.49208700  0.06662700  1
  C  3182  1  0.16816800  0.52633800  0.08185700  1
  C  3185  1  0.84844000  0.51316700  0.90663000  1
  C  3187  1  0.83333400  0.47860900  0.92188500  1
  C  3188  1  0.82012600  0.49207500  0.93643500  1
  C  3190  1  0.83488300  0.52632300  0.92119400  1
  C  3193  1  0.15463800  0.48988700  0.90662200  1
  C  3195  1  0.16973200  0.52444700  0.92188100  1
  C  3196  1  0.18294300  0.51098200  0.93643100  1
  C  3198  1  0.16818600  0.47673300  0.92119500  1
  C  3201  1  0.48987500  0.90661200  0.15462200  1
  C  3203  1  0.52443400  0.92187500  0.16971700  1
  C  3204  1  0.51096600  0.93642300  0.18292600  1
  C  3206  1  0.47671800  0.92118500  0.16816600  1
  C  3209  1  0.51318400  0.90662200  0.84843900  1
  C  3211  1  0.47862400  0.92187300  0.83333700  1
  C  3212  1  0.49208900  0.93642600  0.82013000  1
  C  3214  1  0.52633800  0.92119900  0.83489500  1
  C  3217  1  0.51316500  0.09642600  0.15462500  1
  C  3219  1  0.47860700  0.08116900  0.16972700  1
  C  3220  1  0.49207500  0.06661800  0.18293500  1
  C  3222  1  0.52632300  0.08186300  0.16818000  1
  C  3225  1  0.48988400  0.09642100  0.84842300  1
  C  3227  1  0.52444600  0.08116500  0.83332700  1
  C  3228  1  0.51098200  0.06661600  0.82011500  1
  C  3230  1  0.47673200  0.08184900  0.83487300  1
  C  3233  1  0.90663200  0.84844200  0.51317600  1
  C  3235  1  0.92189300  0.83334400  0.47861700  1
  C  3236  1  0.93644300  0.82013500  0.49208400  1
  C  3238  1  0.92120500  0.83489800  0.52633300  1
  C  3241  1  0.90660200  0.15462500  0.48986700  1
  C  3243  1  0.92185500  0.16972500  0.52442900  1
  C  3244  1  0.93640800  0.18293300  0.51096200  1
  C  3246  1  0.92117800  0.16816800  0.47671300  1
  C  3249  1  0.09643300  0.84843700  0.48988000  1
  C  3251  1  0.08118100  0.83333400  0.52444100  1
  C  3252  1  0.06663100  0.82012300  0.51097400  1
  C  3254  1  0.08187100  0.83487800  0.47672500  1
  C  3257  1  0.09641400  0.15463900  0.51316000  1
  C  3259  1  0.08115400  0.16973400  0.47860000  1
  C  3260  1  0.06660300  0.18294300  0.49206700  1
  C  3262  1  0.08184100  0.16818500  0.52631600  1
  C  3265  1  0.10199900  0.39917300  0.38460200  1
  C  3267  1  0.10053600  0.35950500  0.39345500  1
  C  3268  1  0.10344700  0.35533200  0.37013100  1
  C  3270  1  0.10234100  0.39496700  0.36110600  1
  C  3273  1  0.90121200  0.60389400  0.38458700  1
  C  3275  1  0.90251700  0.64351900  0.39346700  1
  C  3276  1  0.89940000  0.64775500  0.37018800  1
  C  3278  1  0.90076400  0.60812600  0.36108100  1
  C  3281  1  0.90105300  0.39916000  0.61844900  1
  C  3283  1  0.90252000  0.35952200  0.60962500  1
  C  3284  1  0.89958400  0.35530700  0.63293300  1
  C  3286  1  0.90070900  0.39495000  0.64194600  1
  C  3289  1  0.10195400  0.60386400  0.61846300  1
  C  3291  1  0.10052500  0.64351400  0.60960300  1
  C  3292  1  0.10350700  0.64773000  0.63291300  1
  C  3294  1  0.10231800  0.60812600  0.64194800  1
  C  3297  1  0.38459700  0.10192400  0.39918800  1
  C  3299  1  0.39346300  0.10053900  0.35951900  1
  C  3300  1  0.37014600  0.10352200  0.35533400  1
  C  3302  1  0.36111100  0.10231000  0.39493300  1
  C  3305  1  0.38461000  0.90104800  0.60389600  1
  C  3307  1  0.39342600  0.90252500  0.64353600  1
  C  3308  1  0.37011800  0.89959000  0.64774700  1
  C  3310  1  0.36111100  0.90070500  0.60810200  1
  C  3313  1  0.61847100  0.90121700  0.39916100  1
  C  3315  1  0.60958400  0.90251200  0.35953900  1
  C  3316  1  0.63286300  0.89939300  0.35529900  1
  C  3318  1  0.64197700  0.90076800  0.39492500  1
  C  3321  1  0.61845800  0.10202900  0.60387900  1
  C  3323  1  0.60960900  0.10052300  0.64352700  1
  C  3324  1  0.63292800  0.10343100  0.64773200  1
  C  3326  1  0.64195300  0.10234800  0.60809400  1
  C  3329  1  0.39917500  0.38460300  0.10200300  1
  C  3331  1  0.35950700  0.39346000  0.10054300  1
  C  3332  1  0.35533400  0.37013400  0.10344600  1
  C  3334  1  0.39496900  0.36111000  0.10233900  1
  C  3337  1  0.60388100  0.38460200  0.90112700  1
  C  3339  1  0.64352400  0.39343000  0.90253000  1
  C  3340  1  0.64774700  0.37013100  0.89951500  1
  C  3342  1  0.60813800  0.36111300  0.90073400  1
  C  3345  1  0.39915800  0.61845100  0.90105700  1
  C  3347  1  0.35952000  0.60963000  0.90252800  1
  C  3348  1  0.35530600  0.63293700  0.89958400  1
  C  3350  1  0.39494700  0.64194800  0.90070700  1
  C  3353  1  0.60387600  0.61847800  0.10186900  1
  C  3355  1  0.64351000  0.60956600  0.10053900  1
  C  3356  1  0.64773900  0.63285600  0.10362200  1
  C  3358  1  0.60811600  0.64198000  0.10228800  1
  C  3361  1  0.39917300  0.10199900  0.61845300  1
  C  3363  1  0.35950500  0.10053600  0.60959900  1
  C  3364  1  0.35533200  0.10344700  0.63292300  1
  C  3366  1  0.39496700  0.10234100  0.64194800  1
  C  3369  1  0.60389400  0.90121200  0.61846800  1
  C  3371  1  0.64351900  0.90251700  0.60958800  1
  C  3372  1  0.64775500  0.89940000  0.63286600  1
  C  3374  1  0.60812600  0.90076400  0.64197300  1
  C  3377  1  0.39916000  0.90105300  0.38460500  1
  C  3379  1  0.35952200  0.90252000  0.39343000  1
  C  3380  1  0.35530700  0.89958400  0.37012100  1
  C  3382  1  0.39495000  0.90070900  0.36110800  1
  C  3385  1  0.60386400  0.10195400  0.38459200  1
  C  3387  1  0.64351400  0.10052500  0.39345200  1
  C  3388  1  0.64773000  0.10350700  0.37014100  1
  C  3390  1  0.60812600  0.10231800  0.36110600  1
  C  3393  1  0.10192400  0.38459700  0.60386600  1
  C  3395  1  0.10053900  0.39346300  0.64353600  1
  C  3396  1  0.10352200  0.37014600  0.64772000  1
  C  3398  1  0.10231000  0.36111100  0.60812100  1
  C  3401  1  0.90104800  0.38461000  0.39915800  1
  C  3403  1  0.90252500  0.39342600  0.35951900  1
  C  3404  1  0.89959000  0.37011800  0.35530700  1
  C  3406  1  0.90070500  0.36111100  0.39495200  1
  C  3409  1  0.90121700  0.61847100  0.60389300  1
  C  3411  1  0.90251200  0.60958400  0.64351500  1
  C  3412  1  0.89939300  0.63286300  0.64775500  1
  C  3414  1  0.90076800  0.64197700  0.60812900  1
  C  3417  1  0.10202900  0.61845800  0.39917500  1
  C  3419  1  0.10052300  0.60960900  0.35952700  1
  C  3420  1  0.10343100  0.63292800  0.35532200  1
  C  3422  1  0.10234800  0.64195300  0.39496000  1
  C  3425  1  0.38460300  0.39917500  0.90105200  1
  C  3427  1  0.39346000  0.35950700  0.90251200  1
  C  3428  1  0.37013400  0.35533400  0.89960900  1
  C  3430  1  0.36111000  0.39496900  0.90071500  1
  C  3433  1  0.38460200  0.60388100  0.10192600  1
  C  3435  1  0.39343000  0.64352400  0.10052400  1
  C  3436  1  0.37013100  0.64774700  0.10354000  1
  C  3438  1  0.36111300  0.60813800  0.10232000  1
  C  3441  1  0.61845100  0.39915800  0.10199800  1
  C  3443  1  0.60963000  0.35952000  0.10052600  1
  C  3444  1  0.63293700  0.35530600  0.10347100  1
  C  3446  1  0.64194800  0.39494700  0.10234700  1
  C  3449  1  0.61847800  0.60387600  0.90118500  1
  C  3451  1  0.60956600  0.64351000  0.90251500  1
  C  3452  1  0.63285600  0.64773900  0.89943200  1
  C  3454  1  0.64198000  0.60811600  0.90076600  1
  C  3457  1  0.60452200  0.89790800  0.88318200  1
  C  3459  1  0.60081800  0.85844700  0.89227100  1
  C  3460  1  0.60151300  0.85411600  0.86880400  1
  C  3462  1  0.60279500  0.89377900  0.85973600  1
  C  3465  1  0.39866900  0.10516900  0.88316200  1
  C  3467  1  0.40223600  0.14459700  0.89226200  1
  C  3468  1  0.40140700  0.14900100  0.86882400  1
  C  3470  1  0.40032700  0.10932400  0.85969700  1
  C  3473  1  0.39852200  0.89789000  0.11987000  1
  C  3475  1  0.40224800  0.85846200  0.11081300  1
  C  3476  1  0.40155300  0.85408600  0.13426400  1
  C  3478  1  0.40026500  0.89375800  0.14331900  1
  C  3481  1  0.60450500  0.10513700  0.11989100  1
  C  3483  1  0.60080000  0.14457900  0.11079700  1
  C  3484  1  0.60151300  0.14895700  0.13425500  1
  C  3486  1  0.60276100  0.10932200  0.14332700  1
  C  3489  1  0.88317500  0.60446100  0.89791800  1
  C  3491  1  0.89226700  0.60081800  0.85844700  1
  C  3492  1  0.86880200  0.60155500  0.85410500  1
  C  3494  1  0.85973700  0.60275900  0.89373900  1
  C  3497  1  0.88318400  0.39852200  0.10516400  1
  C  3499  1  0.89223400  0.40225600  0.14459200  1
  C  3500  1  0.86878400  0.40156000  0.14896500  1
  C  3502  1  0.85973400  0.40026500  0.10929200  1
  C  3505  1  0.11989200  0.39866900  0.89788500  1
  C  3507  1  0.11078500  0.40222700  0.85845700  1
  C  3508  1  0.13422400  0.40140200  0.85405100  1
  C  3510  1  0.14335700  0.40032900  0.89372700  1
  C  3513  1  0.11988400  0.60456600  0.10514700  1
  C  3515  1  0.11079500  0.60080000  0.14457900  1
  C  3516  1  0.13425400  0.60147100  0.14894500  1
  C  3518  1  0.14332800  0.60279500  0.10928200  1
  C  3521  1  0.89790800  0.88318700  0.60451800  1
  C  3523  1  0.85844700  0.89227400  0.60081800  1
  C  3524  1  0.85411800  0.86880700  0.60150800  1
  C  3526  1  0.89378100  0.85974100  0.60278800  1
  C  3529  1  0.10515500  0.88317200  0.39857900  1
  C  3531  1  0.14459000  0.89222700  0.40225600  1
  C  3532  1  0.14897800  0.86877700  0.40151100  1
  C  3534  1  0.10933400  0.85973000  0.40029200  1
  C  3537  1  0.89788800  0.11987500  0.39851900  1
  C  3539  1  0.85846200  0.11081800  0.40224800  1
  C  3540  1  0.85408600  0.13426900  0.40154800  1
  C  3542  1  0.89375800  0.14332400  0.40025800  1
  C  3545  1  0.10515200  0.11990100  0.60441600  1
  C  3547  1  0.14458500  0.11076200  0.60082000  1
  C  3548  1  0.14898000  0.13421000  0.60161700  1
  C  3550  1  0.10931200  0.14336100  0.60272600  1
  C  3553  1  0.89790800  0.60452200  0.11987200  1
  C  3555  1  0.85844700  0.60081800  0.11078400  1
  C  3556  1  0.85411600  0.60151300  0.13425000  1
  C  3558  1  0.89377900  0.60279500  0.14331800  1
  C  3561  1  0.10516900  0.39866900  0.11989300  1
  C  3563  1  0.14459700  0.40223600  0.11079200  1
  C  3564  1  0.14900100  0.40140700  0.13423100  1
  C  3566  1  0.10932400  0.40032700  0.14335800  1
  C  3569  1  0.89789000  0.39852200  0.88318400  1
  C  3571  1  0.85846200  0.40224800  0.89224100  1
  C  3572  1  0.85408600  0.40155300  0.86879100  1
  C  3574  1  0.89375800  0.40026500  0.85973600  1
  C  3577  1  0.10513700  0.60450500  0.88316400  1
  C  3579  1  0.14457900  0.60080000  0.89225700  1
  C  3580  1  0.14895700  0.60151300  0.86879900  1
  C  3582  1  0.10932200  0.60276100  0.85972700  1
  C  3585  1  0.60446100  0.88317500  0.10513700  1
  C  3587  1  0.60081800  0.89226700  0.14460600  1
  C  3588  1  0.60155500  0.86880200  0.14895000  1
  C  3590  1  0.60275900  0.85973700  0.10931500  1
  C  3593  1  0.39852200  0.88318400  0.89789000  1
  C  3595  1  0.40225600  0.89223400  0.85846200  1
  C  3596  1  0.40156000  0.86878400  0.85409000  1
  C  3598  1  0.40026500  0.85973400  0.89376300  1
  C  3601  1  0.39866900  0.11989200  0.10517000  1
  C  3603  1  0.40222700  0.11078500  0.14459700  1
  C  3604  1  0.40140200  0.13422400  0.14900300  1
  C  3606  1  0.40032900  0.14335700  0.10932800  1
  C  3609  1  0.60456600  0.11988400  0.89790700  1
  C  3611  1  0.60080000  0.11079500  0.85847400  1
  C  3612  1  0.60147100  0.13425400  0.85411000  1
  C  3614  1  0.60279500  0.14332800  0.89377300  1
  C  3617  1  0.88318700  0.89790800  0.39853600  1
  C  3619  1  0.89227400  0.85844700  0.40223600  1
  C  3620  1  0.86880700  0.85411800  0.40154600  1
  C  3622  1  0.85974100  0.89378100  0.40026600  1
  C  3625  1  0.88317200  0.10515500  0.60447500  1
  C  3627  1  0.89222700  0.14459000  0.60079800  1
  C  3628  1  0.86877700  0.14897800  0.60154300  1
  C  3630  1  0.85973000  0.10933400  0.60276300  1
  C  3633  1  0.11987500  0.89788800  0.60453500  1
  C  3635  1  0.11081800  0.85846200  0.60080700  1
  C  3636  1  0.13426900  0.85408600  0.60150600  1
  C  3638  1  0.14332400  0.89375800  0.60279600  1
  C  3641  1  0.11990100  0.10515200  0.39863800  1
  C  3643  1  0.11076200  0.14458500  0.40223400  1
  C  3644  1  0.13421000  0.14898000  0.40143700  1
  C  3646  1  0.14336100  0.10931200  0.40032900  1
  N  2114  1  0.09935100  0.23910500  0.40444200  1
  N  2117  1  0.07124100  0.26349300  0.42906800  1
  N  2122  1  0.90369700  0.76396600  0.40444900  1
  N  2125  1  0.93179600  0.73957100  0.42908000  1
  N  2130  1  0.90367700  0.23909700  0.59860500  1
  N  2133  1  0.93177600  0.26348800  0.57396900  1
  N  2138  1  0.09936800  0.76396600  0.59862700  1
  N  2141  1  0.07129600  0.73956900  0.57397100  1
  N  2146  1  0.40444400  0.09935200  0.23910300  1
  N  2149  1  0.42907100  0.07124700  0.26349500  1
  N  2154  1  0.40445300  0.90368200  0.76396300  1
  N  2157  1  0.42908100  0.93178400  0.73956900  1
  N  2162  1  0.59860700  0.90369400  0.23909300  1
  N  2165  1  0.57397100  0.93178800  0.26348700  1
  N  2170  1  0.59862700  0.09936800  0.76396400  1
  N  2173  1  0.57397400  0.07129000  0.73957100  1
  N  2178  1  0.23910500  0.40445800  0.09936000  1
  N  2181  1  0.26349500  0.42909000  0.07125800  1
  N  2186  1  0.76396300  0.40443700  0.90369100  1
  N  2189  1  0.73956900  0.42906300  0.93179400  1
  N  2194  1  0.23909700  0.59862000  0.90368600  1
  N  2197  1  0.26348700  0.57399100  0.93179300  1
  N  2202  1  0.76396900  0.59861500  0.09936100  1
  N  2205  1  0.73957100  0.57395400  0.07129400  1
  N  2210  1  0.23910500  0.09935100  0.59861200  1
  N  2213  1  0.26349300  0.07124100  0.57398600  1
  N  2218  1  0.76396600  0.90369700  0.59860500  1
  N  2221  1  0.73957100  0.93179600  0.57397400  1
  N  2226  1  0.23909700  0.90367700  0.40444900  1
  N  2229  1  0.26348800  0.93177600  0.42908500  1
  N  2234  1  0.76396600  0.09936800  0.40442700  1
  N  2237  1  0.73956900  0.07129600  0.42908300  1
  N  2242  1  0.09935200  0.40444400  0.76395100  1
  N  2245  1  0.07124700  0.42907100  0.73955900  1
  N  2250  1  0.90368200  0.40445300  0.23909200  1
  N  2253  1  0.93178400  0.42908100  0.26348500  1
  N  2258  1  0.90369400  0.59860700  0.76396100  1
  N  2261  1  0.93178800  0.57397100  0.73956700  1
  N  2266  1  0.09936800  0.59862700  0.23909000  1
  N  2269  1  0.07129000  0.57397400  0.26348300  1
  N  2274  1  0.40445800  0.23910500  0.90369400  1
  N  2277  1  0.42909000  0.26349500  0.93179600  1
  N  2282  1  0.40443700  0.76396300  0.09936400  1
  N  2285  1  0.42906300  0.73956900  0.07126000  1
  N  2290  1  0.59862000  0.23909700  0.09936800  1
  N  2293  1  0.57399100  0.26348700  0.07126200  1
  N  2298  1  0.59861500  0.76396900  0.90369400  1
  N  2301  1  0.57395400  0.73957100  0.93176100  1
  N  2306  1  0.90369900  0.76375900  0.59911800  1
  N  2309  1  0.93075700  0.73927000  0.57350700  1
  N  2314  1  0.09933900  0.23929800  0.59911500  1
  N  2317  1  0.07227000  0.26379500  0.57352000  1
  N  2322  1  0.09937000  0.76375200  0.40394100  1
  N  2325  1  0.07229800  0.73926500  0.42954100  1
  N  2330  1  0.90368400  0.23930700  0.40393100  1
  N  2333  1  0.93074300  0.26379500  0.42954400  1
  N  2338  1  0.59911500  0.90369200  0.76375100  1
  N  2341  1  0.57349800  0.93074800  0.73926500  1
  N  2346  1  0.59911600  0.09935800  0.23930000  1
  N  2349  1  0.57351900  0.07228700  0.26378900  1
  N  2354  1  0.40394300  0.09935100  0.76375400  1
  N  2357  1  0.42953700  0.07228100  0.73926100  1
  N  2362  1  0.40392800  0.90369100  0.23929800  1
  N  2365  1  0.42953600  0.93075200  0.26378900  1
  N  2370  1  0.76375200  0.59910500  0.90369200  1
  N  2373  1  0.73926800  0.57349500  0.93075800  1
  N  2378  1  0.23930200  0.59912600  0.09935700  1
  N  2381  1  0.26379500  0.57352000  0.07229600  1
  N  2386  1  0.76376100  0.40392900  0.09936300  1
  N  2389  1  0.73926600  0.42952900  0.07229800  1
  N  2394  1  0.23930500  0.40394100  0.90370200  1
  N  2397  1  0.26379500  0.42954400  0.93076800  1
  N  2402  1  0.76375900  0.90369900  0.40393600  1
  N  2405  1  0.73927000  0.93075700  0.42954700  1
  N  2410  1  0.23929800  0.09933900  0.40394000  1
  N  2413  1  0.26379500  0.07227000  0.42953400  1
  N  2418  1  0.76375200  0.09937000  0.59911300  1
  N  2421  1  0.73926500  0.07229800  0.57351400  1
  N  2426  1  0.23930700  0.90368400  0.59912300  1
  N  2429  1  0.26379500  0.93074300  0.57351000  1
  N  2434  1  0.90369200  0.59911500  0.23930300  1
  N  2437  1  0.93074800  0.57349800  0.26378900  1
  N  2442  1  0.09935800  0.59911600  0.76375400  1
  N  2445  1  0.07228700  0.57351900  0.73926500  1
  N  2450  1  0.09935100  0.40394300  0.23930000  1
  N  2453  1  0.07228100  0.42953700  0.26379300  1
  N  2458  1  0.90369100  0.40392800  0.76375600  1
  N  2461  1  0.93075200  0.42953600  0.73926500  1
  N  2466  1  0.59910500  0.76375200  0.09936200  1
  N  2469  1  0.57349500  0.73926800  0.07229700  1
  N  2474  1  0.59912600  0.23930200  0.90369700  1
  N  2477  1  0.57352000  0.26379500  0.93075800  1
  N  2482  1  0.40392900  0.76376100  0.90369100  1
  N  2485  1  0.42952900  0.73926600  0.93075700  1
  N  2490  1  0.40394100  0.23930500  0.09935200  1
  N  2493  1  0.42954400  0.26379500  0.07228500  1
  N  2498  1  0.09959300  0.34789500  0.48884300  1
  N  2501  1  0.07723400  0.31792800  0.51348700  1
  N  2506  1  0.90343800  0.65518900  0.48884100  1
  N  2509  1  0.92584400  0.68512600  0.51348300  1
  N  2514  1  0.90343700  0.34790400  0.51421500  1
  N  2517  1  0.92579700  0.31794000  0.48957100  1
  N  2522  1  0.09960000  0.65514700  0.51421700  1
  N  2525  1  0.07726000  0.68512800  0.48957600  1
  N  2530  1  0.48884300  0.09959900  0.34789500  1
  N  2533  1  0.51348500  0.07724200  0.31792600  1
  N  2538  1  0.48883300  0.90343300  0.65517600  1
  N  2541  1  0.51347500  0.92584200  0.68511100  1
  N  2546  1  0.51420700  0.90344000  0.34788900  1
  N  2549  1  0.48956100  0.92579800  0.31792500  1
  N  2554  1  0.51421700  0.09959500  0.65514700  1
  N  2557  1  0.48957600  0.07725200  0.68512800  1
  N  2562  1  0.34790200  0.48885300  0.09960600  1
  N  2565  1  0.31793700  0.51349700  0.07724600  1
  N  2570  1  0.65518200  0.48882200  0.90344200  1
  N  2573  1  0.68511900  0.51346300  0.92584600  1
  N  2578  1  0.34789500  0.51422500  0.90345000  1
  N  2581  1  0.31793300  0.48958100  0.92580900  1
  N  2586  1  0.65515400  0.51419800  0.09960400  1
  N  2589  1  0.68513400  0.48955600  0.07726300  1
  N  2594  1  0.34789500  0.09959300  0.51421200  1
  N  2597  1  0.31792800  0.07723400  0.48956700  1
  N  2602  1  0.65518900  0.90343800  0.51421300  1
  N  2605  1  0.68512600  0.92584400  0.48957100  1
  N  2610  1  0.34790400  0.90343700  0.48883900  1
  N  2613  1  0.31794000  0.92579700  0.51348300  1
  N  2618  1  0.65514700  0.09960000  0.48883800  1
  N  2621  1  0.68512800  0.07726000  0.51347800  1
  N  2626  1  0.09959900  0.48884300  0.65515900  1
  N  2629  1  0.07724200  0.51348500  0.68512800  1
  N  2634  1  0.90343300  0.48883300  0.34787800  1
  N  2637  1  0.92584200  0.51347500  0.31794300  1
  N  2642  1  0.90344000  0.51420700  0.65516600  1
  N  2645  1  0.92579800  0.48956100  0.68512900  1
  N  2650  1  0.09959500  0.51421700  0.34790700  1
  N  2653  1  0.07725200  0.48957600  0.31792600  1
  N  2658  1  0.48885300  0.34790200  0.90344800  1
  N  2661  1  0.51349700  0.31793700  0.92580900  1
  N  2666  1  0.48882200  0.65518200  0.09961300  1
  N  2669  1  0.51346300  0.68511900  0.07720800  1
  N  2674  1  0.51422500  0.34789500  0.09960500  1
  N  2677  1  0.48958100  0.31793300  0.07724500  1
  N  2682  1  0.51419800  0.65515400  0.90345000  1
  N  2685  1  0.48955600  0.68513400  0.92579200  1
  N  2690  1  0.59970500  0.84956200  0.98901200  1
  N  2693  1  0.57605800  0.82051000  0.01347200  1
  N  2698  1  0.40333200  0.15351100  0.98900600  1
  N  2701  1  0.42701400  0.18253600  0.01346700  1
  N  2706  1  0.40333400  0.84956900  0.01404400  1
  N  2709  1  0.42698100  0.82051800  0.98958400  1
  N  2714  1  0.59971000  0.15348200  0.01404800  1
  N  2717  1  0.57607700  0.18254800  0.98958900  1
  N  2722  1  0.98901100  0.59970300  0.84956500  1
  N  2725  1  0.01347000  0.57605300  0.82051600  1
  N  2730  1  0.98899700  0.40333200  0.15350100  1
  N  2733  1  0.01345700  0.42700600  0.18253300  1
  N  2738  1  0.01403600  0.40333400  0.84956000  1
  N  2741  1  0.98957400  0.42698900  0.82051600  1
  N  2746  1  0.01404600  0.59971200  0.15348600  1
  N  2749  1  0.98958800  0.57608000  0.18255300  1
  N  2754  1  0.84956700  0.98902100  0.59971200  1
  N  2757  1  0.82051500  0.01348100  0.57606300  1
  N  2762  1  0.15350200  0.98898700  0.40333900  1
  N  2765  1  0.18253300  0.01344600  0.42701600  1
  N  2770  1  0.84956500  0.01405300  0.40334100  1
  N  2773  1  0.82051300  0.98959300  0.42698800  1
  N  2778  1  0.15349200  0.01402800  0.59971800  1
  N  2781  1  0.18254900  0.98956900  0.57607800  1
  N  2786  1  0.84956200  0.59970500  0.01404200  1
  N  2789  1  0.82051000  0.57605800  0.98958100  1
  N  2794  1  0.15351100  0.40333200  0.01404800  1
  N  2797  1  0.18253600  0.42701400  0.98958800  1
  N  2802  1  0.84956900  0.40333400  0.98901100  1
  N  2805  1  0.82051800  0.42698100  0.01347000  1
  N  2810  1  0.15348200  0.59971000  0.98900700  1
  N  2813  1  0.18254800  0.57607700  0.01346400  1
  N  2818  1  0.59970300  0.98901100  0.15348800  1
  N  2821  1  0.57605300  0.01347000  0.18253800  1
  N  2826  1  0.40333200  0.98899700  0.84955400  1
  N  2829  1  0.42700600  0.01345700  0.82052200  1
  N  2834  1  0.40333400  0.01403600  0.15349500  1
  N  2837  1  0.42698900  0.98957400  0.18253800  1
  N  2842  1  0.59971200  0.01404600  0.84956700  1
  N  2845  1  0.57608000  0.98958800  0.82050100  1
  N  2850  1  0.98902100  0.84956700  0.40334200  1
  N  2853  1  0.01348100  0.82051500  0.42699100  1
  N  2858  1  0.98898700  0.15350200  0.59971500  1
  N  2861  1  0.01344600  0.18253300  0.57603800  1
  N  2866  1  0.01405300  0.84956500  0.59971300  1
  N  2869  1  0.98959300  0.82051300  0.57606700  1
  N  2874  1  0.01402800  0.15349200  0.40333600  1
  N  2877  1  0.98956900  0.18254900  0.42697600  1
  N  2882  1  0.01286400  0.34706600  0.40863900  1
  N  2885  1  0.98846600  0.32044300  0.43546600  1
  N  2890  1  0.99018300  0.65599800  0.40863900  1
  N  2893  1  0.01458200  0.68262200  0.43546400  1
  N  2898  1  0.99016500  0.34706300  0.59440500  1
  N  2901  1  0.01456300  0.32043700  0.56758200  1
  N  2906  1  0.01289300  0.65601700  0.59441600  1
  N  2909  1  0.98849600  0.68264500  0.56759300  1
  N  2914  1  0.40863700  0.01286900  0.34706400  1
  N  2917  1  0.43546200  0.98846900  0.32044100  1
  N  2922  1  0.40863000  0.99018000  0.65599800  1
  N  2925  1  0.43546200  0.01457500  0.68261800  1
  N  2930  1  0.59439700  0.99016800  0.34706300  1
  N  2933  1  0.56757800  0.01457000  0.32043400  1
  N  2938  1  0.59441400  0.01288800  0.65601500  1
  N  2941  1  0.56759000  0.98849100  0.68264400  1
  N  2946  1  0.34706800  0.40865000  0.01287600  1
  N  2949  1  0.32044800  0.43547900  0.98847800  1
  N  2954  1  0.65600100  0.40861700  0.99018600  1
  N  2957  1  0.68262500  0.43544600  0.01458400  1
  N  2962  1  0.34706100  0.59441700  0.99017600  1
  N  2965  1  0.32043400  0.56759300  0.01457600  1
  N  2970  1  0.65601300  0.59439500  0.01289700  1
  N  2973  1  0.68264200  0.56757500  0.98849800  1
  N  2978  1  0.34706600  0.01286400  0.59441600  1
  N  2981  1  0.32044300  0.98846600  0.56758800  1
  N  2986  1  0.65599800  0.99018300  0.59441600  1
  N  2989  1  0.68262200  0.01458200  0.56759000  1
  N  2994  1  0.34706300  0.99016500  0.40864900  1
  N  2997  1  0.32043700  0.01456300  0.43547300  1
  N  3002  1  0.65601700  0.01289300  0.40863900  1
  N  3005  1  0.68264500  0.98849600  0.43546100  1
  N  3010  1  0.01286900  0.40863700  0.65599000  1
  N  3013  1  0.98846900  0.43546200  0.68261300  1
  N  3018  1  0.99018000  0.40863000  0.34705600  1
  N  3021  1  0.01457500  0.43546200  0.32043600  1
  N  3026  1  0.99016800  0.59439700  0.65599100  1
  N  3029  1  0.01457000  0.56757800  0.68262000  1
  N  3034  1  0.01288800  0.59441400  0.34703900  1
  N  3037  1  0.98849100  0.56759000  0.32041100  1
  N  3042  1  0.40865000  0.34706800  0.99017800  1
  N  3045  1  0.43547900  0.32044800  0.01457600  1
  N  3050  1  0.40861700  0.65600100  0.01286700  1
  N  3053  1  0.43544600  0.68262500  0.98847100  1
  N  3058  1  0.59441700  0.34706100  0.01287700  1
  N  3061  1  0.56759300  0.32043400  0.98847800  1
  N  3066  1  0.59439500  0.65601300  0.99015800  1
  N  3069  1  0.56757500  0.68264200  0.01455600  1
  N  3074  1  0.51286800  0.84708600  0.90749500  1
  N  3077  1  0.48853000  0.82148200  0.93530900  1
  N  3082  1  0.49018600  0.15598200  0.90748800  1
  N  3085  1  0.51452300  0.18157900  0.93531100  1
  N  3090  1  0.49017300  0.84708500  0.09555100  1
  N  3093  1  0.51451100  0.82147500  0.06774100  1
  N  3098  1  0.51288300  0.15599000  0.09555900  1
  N  3101  1  0.48854800  0.18159600  0.06774300  1
  N  3106  1  0.90748700  0.51287100  0.84707800  1
  N  3109  1  0.93530100  0.48853100  0.82147700  1
  N  3114  1  0.90749000  0.49019000  0.15597200  1
  N  3117  1  0.93531300  0.51452300  0.18157200  1
  N  3122  1  0.09555300  0.49017000  0.84707500  1
  N  3125  1  0.06774200  0.51451100  0.82146800  1
  N  3130  1  0.09554900  0.51288000  0.15598200  1
  N  3133  1  0.06773500  0.48854700  0.18159200  1
  N  3138  1  0.84708600  0.90750500  0.51287300  1
  N  3141  1  0.82148700  0.93532100  0.48853500  1
  N  3146  1  0.15598000  0.90747100  0.49019100  1
  N  3149  1  0.18158100  0.93529300  0.51452600  1
  N  3154  1  0.84708300  0.09556100  0.49018000  1
  N  3157  1  0.82147000  0.06775300  0.51451600  1
  N  3162  1  0.15599200  0.09554100  0.51288800  1
  N  3165  1  0.18159400  0.06772400  0.48855200  1
  N  3170  1  0.84708600  0.51286800  0.09555900  1
  N  3173  1  0.82148200  0.48853000  0.06774400  1
  N  3178  1  0.15598200  0.49018600  0.09556500  1
  N  3181  1  0.18157900  0.51452300  0.06774200  1
  N  3186  1  0.84708500  0.49017300  0.90750300  1
  N  3189  1  0.82147500  0.51451100  0.93531300  1
  N  3194  1  0.15599000  0.51288300  0.90749500  1
  N  3197  1  0.18159600  0.48854800  0.93531100  1
  N  3202  1  0.51287100  0.90748700  0.15597600  1
  N  3205  1  0.48853100  0.93530100  0.18157700  1
  N  3210  1  0.49019000  0.90749000  0.84708100  1
  N  3213  1  0.51452300  0.93531300  0.82148200  1
  N  3218  1  0.49017000  0.09555300  0.15598000  1
  N  3221  1  0.51451100  0.06774200  0.18158600  1
  N  3226  1  0.51288000  0.09554900  0.84707100  1
  N  3229  1  0.48854700  0.06773500  0.82146200  1
  N  3234  1  0.90750500  0.84708600  0.49018100  1
  N  3237  1  0.93532100  0.82148700  0.51451900  1
  N  3242  1  0.90747100  0.15598000  0.51286300  1
  N  3245  1  0.93529300  0.18158100  0.48852800  1
  N  3250  1  0.09556100  0.84708300  0.51287500  1
  N  3253  1  0.06775300  0.82147000  0.48853800  1
  N  3258  1  0.09554100  0.15599200  0.49016600  1
  N  3261  1  0.06772400  0.18159400  0.51450300  1
  N  3266  1  0.09993300  0.38169400  0.39916600  1
  N  3269  1  0.10290700  0.37278200  0.35544500  1
  N  3274  1  0.90325300  0.62134700  0.39918500  1
  N  3277  1  0.89998900  0.63032000  0.35548200  1
  N  3282  1  0.90311900  0.38169200  0.60386900  1
  N  3285  1  0.90013200  0.37276300  0.64761200  1
  N  3290  1  0.09989600  0.62133400  0.60388300  1
  N  3293  1  0.10295600  0.63029800  0.64762300  1
  N  3298  1  0.39916100  0.09987200  0.38170900  1
  N  3301  1  0.35543300  0.10296800  0.37276300  1
  N  3306  1  0.39918700  0.90311900  0.62136500  1
  N  3309  1  0.35544200  0.90013300  0.63028800  1
  N  3314  1  0.60386900  0.90325300  0.38171100  1
  N  3317  1  0.64757200  0.89998700  0.37273100  1
  N  3322  1  0.60387900  0.09995800  0.62134900  1
  N  3325  1  0.64761200  0.10289500  0.63027900  1
  N  3330  1  0.38169500  0.39917000  0.09994100  1
  N  3333  1  0.37278300  0.35544800  0.10290300  1
  N  3338  1  0.62135200  0.39917800  0.90318800  1
  N  3341  1  0.63030800  0.35542800  0.90006800  1
  N  3346  1  0.38169000  0.60387300  0.90312700  1
  N  3349  1  0.37276100  0.64761600  0.90012700  1
  N  3354  1  0.62132700  0.60387600  0.09983100  1
  N  3357  1  0.63031000  0.64756900  0.10303600  1
  N  3362  1  0.38169400  0.09993300  0.60388800  1
  N  3365  1  0.37278200  0.10290700  0.64760900  1
  N  3370  1  0.62134700  0.90325300  0.60386900  1
  N  3373  1  0.63032000  0.89998900  0.64757200  1
  N  3378  1  0.38169200  0.90311900  0.39918500  1
  N  3381  1  0.37276300  0.90013200  0.35544200  1
  N  3386  1  0.62133400  0.09989600  0.39917200  1
  N  3389  1  0.63029800  0.10295600  0.35543200  1
  N  3394  1  0.09987200  0.39916100  0.62134500  1
  N  3397  1  0.10296800  0.35543300  0.63029100  1
  N  3402  1  0.90311900  0.39918700  0.38168900  1
  N  3405  1  0.90013300  0.35544200  0.37276600  1
  N  3410  1  0.90325300  0.60386900  0.62134400  1
  N  3413  1  0.89998700  0.64757200  0.63032300  1
  N  3418  1  0.09995800  0.60387900  0.38170600  1
  N  3421  1  0.10289500  0.64761200  0.37277500  1
  N  3426  1  0.39917000  0.38169500  0.90311400  1
  N  3429  1  0.35544800  0.37278300  0.90015000  1
  N  3434  1  0.39917800  0.62135200  0.09986600  1
  N  3437  1  0.35542800  0.63030800  0.10298500  1
  N  3442  1  0.60387300  0.38169000  0.09992800  1
  N  3445  1  0.64761600  0.37276100  0.10292700  1
  N  3450  1  0.60387600  0.62132700  0.90322300  1
  N  3453  1  0.64756900  0.63031000  0.90001700  1
  N  3458  1  0.60229500  0.88060100  0.89791200  1
  N  3461  1  0.60121000  0.87160900  0.85414200  1
  N  3466  1  0.40086000  0.12245300  0.89792500  1
  N  3469  1  0.40175500  0.13151600  0.85415200  1
  N  3474  1  0.40074600  0.88059400  0.10512300  1
  N  3477  1  0.40185900  0.87158600  0.14891800  1
  N  3482  1  0.60228800  0.12243400  0.10514500  1
  N  3485  1  0.60120400  0.13148400  0.14894000  1
  N  3490  1  0.89790300  0.60224800  0.88060700  1
  N  3493  1  0.85411800  0.60123900  0.87157900  1
  N  3498  1  0.89792900  0.40075100  0.12246100  1
  N  3501  1  0.85413200  0.40186100  0.13146400  1
  N  3506  1  0.10512600  0.40085700  0.88060200  1
  N  3509  1  0.14889800  0.40175100  0.87153400  1
  N  3514  1  0.10513600  0.60233400  0.12244100  1
  N  3517  1  0.14891600  0.60117500  0.13145300  1
  N  3522  1  0.88060100  0.89791700  0.60229500  1
  N  3525  1  0.87160900  0.85414700  0.60120200  1
  N  3530  1  0.12245400  0.89791500  0.40079800  1
  N  3533  1  0.13149500  0.85410500  0.40182400  1
  N  3538  1  0.88059400  0.10512700  0.40074700  1
  N  3541  1  0.87158400  0.14892200  0.40185100  1
  N  3546  1  0.12243300  0.10513500  0.60222600  1
  N  3549  1  0.13150500  0.14889200  0.60127200  1
  N  3554  1  0.88060100  0.60229500  0.10514200  1
  N  3557  1  0.87160900  0.60121000  0.14891200  1
  N  3562  1  0.12245300  0.40086000  0.10512900  1
  N  3565  1  0.13151600  0.40175500  0.14890200  1
  N  3570  1  0.88059400  0.40074600  0.89793200  1
  N  3573  1  0.87158600  0.40185900  0.85413700  1
  N  3578  1  0.12243400  0.60228800  0.89791000  1
  N  3581  1  0.13148400  0.60120400  0.85411500  1
  N  3586  1  0.60224800  0.89790300  0.12244700  1
  N  3589  1  0.60123900  0.85411800  0.13147600  1
  N  3594  1  0.40075100  0.89792900  0.88059200  1
  N  3597  1  0.40186100  0.85413200  0.87159100  1
  N  3602  1  0.40085700  0.10512600  0.12245200  1
  N  3605  1  0.40175100  0.14889800  0.13152100  1
  N  3610  1  0.60233400  0.10513600  0.88061400  1
  N  3613  1  0.60117500  0.14891600  0.87160100  1
  N  3618  1  0.89791700  0.88060100  0.40075900  1
  N  3621  1  0.85414700  0.87160900  0.40185200  1
  N  3626  1  0.89791500  0.12245400  0.60225600  1
  N  3629  1  0.85410500  0.13149500  0.60123000  1
  N  3634  1  0.10512700  0.88059400  0.60230700  1
  N  3637  1  0.14892200  0.87158400  0.60120400  1
  N  3642  1  0.10513500  0.12243300  0.40082800  1
  N  3645  1  0.14889200  0.13150500  0.40178200  1
