# generated using pymatgen
data_H29(C8N)6
_symmetry_space_group_name_H-M   'P 1'
_cell_length_a   76.63630000
_cell_length_b   76.63630000
_cell_length_c   76.63630000
_cell_angle_alpha   90.00000000
_cell_angle_beta   90.00000000
_cell_angle_gamma   90.00000000
_symmetry_Int_Tables_number   1
_chemical_formula_structural   H29(C8N)6
_chemical_formula_sum   'H696 C1152 N144'
_cell_volume   450094.37613699
_cell_formula_units_Z   24
loop_
 _symmetry_equiv_pos_site_id
 _symmetry_equiv_pos_as_xyz
  1  'x, y, z'
loop_
 _atom_site_type_symbol
 _atom_site_label
 _atom_site_symmetry_multiplicity
 _atom_site_fract_x
 _atom_site_fract_y
 _atom_site_fract_z
 _atom_site_occupancy
  H  73  1  0.03179900  0.47940200  0.34918400  1
  H  74  1  0.02878600  0.47934600  0.38008400  1
  H  75  1  0.99222100  0.51756800  0.34532500  1
  H  76  1  0.98951700  0.51786000  0.37635700  1
  H  77  1  0.98022100  0.49988200  0.40211600  1
  H  78  1  0.97887800  0.50100000  0.43331000  1
  H  79  1  0.03531700  0.49913600  0.40467800  1
  H  80  1  0.03387500  0.49981900  0.43578300  1
  H  81  1  0.00550700  0.46560200  0.44409100  1
  H  82  1  0.00544100  0.44259500  0.46783100  1
  H  83  1  0.00508900  0.49048700  0.49122700  1
  H  84  1  0.00662700  0.51235000  0.51243300  1
  H  85  1  0.00609300  0.53585300  0.44244300  1
  H  86  1  0.00645900  0.55967900  0.46552000  1
  H  87  1  0.97942000  0.56935800  0.50392800  1
  H  88  1  0.97993300  0.60055900  0.50258800  1
  H  89  1  0.03407100  0.56810800  0.49723200  1
  H  90  1  0.03467500  0.59930100  0.49604600  1
  H  91  1  0.00597700  0.56023700  0.53582700  1
  H  92  1  0.00572500  0.53725200  0.55954800  1
  H  93  1  0.00645800  0.44313600  0.53808100  1
  H  94  1  0.00698300  0.46693200  0.56117700  1
  H  95  1  0.03348700  0.50763300  0.56874400  1
  H  96  1  0.03375400  0.50901600  0.59994300  1
  H  97  1  0.97937400  0.49739800  0.56961000  1
  H  98  1  0.97955700  0.49886300  0.60080000  1
  H  99  1  0.99200300  0.48267200  0.62746600  1
  H  100  1  0.99082200  0.48633100  0.65841900  1
  H  101  1  0.01989100  0.53296600  0.65393700  1
  H  102  1  0.02088400  0.52941400  0.62306900  1
  H  103  1  0.97858100  0.43317100  0.50268500  1
  H  104  1  0.97964000  0.40196600  0.50348200  1
  H  105  1  0.02832000  0.37922800  0.52307500  1
  H  106  1  0.03096700  0.34827600  0.52266600  1
  H  107  1  0.99066400  0.34525300  0.48519400  1
  H  108  1  0.98834800  0.37632600  0.48521000  1
  H  109  1  0.03476500  0.40399400  0.50353300  1
  H  110  1  0.03361000  0.43512200  0.50317800  1
  H  111  1  0.02361100  0.62250800  0.47500200  1
  H  112  1  0.02328200  0.65336900  0.47143700  1
  H  113  1  0.99128600  0.62722500  0.51939400  1
  H  114  1  0.99074600  0.65818400  0.51568800  1
  H  119  1  0.02570400  0.32138800  0.50293400  1
  H  120  1  0.02719200  0.49782900  0.32197000  1
  H  121  1  0.00655400  0.68089300  0.47798400  1
  H  122  1  0.00276700  0.52513200  0.68117500  1
  H  195  1  0.34886900  0.03193800  0.47945800  1
  H  196  1  0.37977000  0.02892100  0.47942600  1
  H  197  1  0.34497400  0.99227000  0.51753400  1
  H  198  1  0.37600300  0.98956000  0.51784500  1
  H  199  1  0.40172500  0.98028000  0.49978700  1
  H  200  1  0.43291600  0.97888700  0.50089500  1
  H  201  1  0.40436300  0.03537700  0.49929100  1
  H  202  1  0.43547000  0.03388900  0.49997200  1
  H  203  1  0.44371900  0.00648700  0.46563800  1
  H  204  1  0.46742900  0.00685500  0.44262800  1
  H  205  1  0.49086100  0.00486700  0.49046600  1
  H  206  1  0.51206200  0.00655800  0.51234900  1
  H  207  1  0.44207900  0.00596700  0.53587400  1
  H  208  1  0.46517700  0.00614000  0.55969700  1
  H  209  1  0.49905600  0.97904800  0.56991900  1
  H  210  1  0.49822200  0.98044900  0.60112300  1
  H  211  1  0.50164100  0.03399900  0.56745800  1
  H  212  1  0.50125300  0.03546700  0.59856800  1
  H  213  1  0.53543200  0.00493200  0.56022500  1
  H  214  1  0.55917200  0.00509000  0.53724200  1
  H  215  1  0.53775400  0.00640600  0.44314800  1
  H  216  1  0.56082200  0.00673600  0.46694200  1
  H  217  1  0.56838200  0.03340600  0.50780400  1
  H  218  1  0.59957800  0.03366400  0.50920000  1
  H  219  1  0.56924600  0.97935500  0.49726300  1
  H  220  1  0.60043900  0.97952600  0.49874200  1
  H  221  1  0.62713000  0.99204100  0.48264300  1
  H  222  1  0.65808400  0.99087700  0.48629400  1
  H  223  1  0.65357200  0.01973700  0.53305400  1
  H  224  1  0.62270600  0.02071200  0.52950900  1
  H  225  1  0.49786100  0.97918900  0.43368500  1
  H  226  1  0.49912800  0.97937400  0.40248600  1
  H  227  1  0.52923900  0.02091600  0.38016800  1
  H  228  1  0.53283000  0.01987500  0.34930600  1
  H  229  1  0.48641800  0.99044300  0.34485000  1
  H  230  1  0.48272600  0.99166500  0.37580100  1
  H  231  1  0.50867000  0.03368200  0.40325700  1
  H  232  1  0.50747800  0.03341600  0.43446500  1
  H  233  1  0.48104500  0.03025000  0.62315700  1
  H  234  1  0.48127200  0.03322700  0.65405300  1
  H  235  1  0.51687700  0.98851900  0.62687100  1
  H  236  1  0.51675100  0.99121600  0.65790500  1
  H  241  1  0.52514000  0.00253300  0.32211400  1
  H  242  1  0.32161500  0.02725800  0.49783200  1
  H  243  1  0.49904800  0.02737300  0.68131300  1
  H  244  1  0.68082600  0.00268600  0.52515600  1
  H  317  1  0.47940900  0.34887400  0.03189100  1
  H  318  1  0.47940100  0.37977600  0.02888000  1
  H  319  1  0.51750300  0.34495500  0.99224300  1
  H  320  1  0.51783600  0.37598800  0.98953800  1
  H  321  1  0.49978900  0.40172500  0.98025400  1
  H  322  1  0.50090100  0.43291600  0.97886500  1
  H  323  1  0.49928000  0.40435500  0.03535000  1
  H  324  1  0.49996800  0.43546200  0.03386600  1
  H  325  1  0.46563800  0.44371900  0.00646900  1
  H  326  1  0.44263000  0.46743000  0.00685100  1
  H  327  1  0.49046900  0.49086100  0.00486100  1
  H  328  1  0.51235300  0.51206200  0.00659300  1
  H  329  1  0.53587400  0.44207800  0.00597000  1
  H  330  1  0.55969700  0.46517400  0.00614900  1
  H  331  1  0.56992100  0.49905100  0.97904000  1
  H  332  1  0.60112300  0.49821600  0.98044300  1
  H  333  1  0.56746000  0.50164100  0.03399200  1
  H  334  1  0.59856800  0.50125200  0.03546100  1
  H  335  1  0.56022800  0.53542800  0.00490600  1
  H  336  1  0.53724600  0.55917000  0.00507100  1
  H  337  1  0.44315300  0.53775600  0.00641500  1
  H  338  1  0.46694700  0.56082300  0.00675000  1
  H  339  1  0.50781300  0.56837800  0.03341800  1
  H  340  1  0.50920300  0.59957400  0.03368200  1
  H  341  1  0.49726200  0.56925100  0.97936900  1
  H  342  1  0.49873500  0.60044400  0.97954600  1
  H  343  1  0.48263400  0.62712300  0.99206700  1
  H  344  1  0.48627200  0.65807900  0.99090400  1
  H  345  1  0.53302700  0.65358700  0.01977500  1
  H  346  1  0.52949500  0.62271800  0.02074800  1
  H  347  1  0.43369000  0.49786300  0.97919000  1
  H  348  1  0.40249100  0.49912900  0.97937500  1
  H  349  1  0.38016700  0.52923500  0.02092300  1
  H  350  1  0.34930300  0.53282100  0.01987900  1
  H  351  1  0.34485800  0.48642000  0.99043400  1
  H  352  1  0.37580900  0.48273100  0.99165600  1
  H  353  1  0.40325900  0.50866600  0.03368500  1
  H  354  1  0.43446800  0.50747400  0.03342000  1
  H  355  1  0.62315900  0.48104600  0.03024700  1
  H  356  1  0.65405700  0.48127300  0.03321800  1
  H  357  1  0.62686900  0.51687500  0.98851200  1
  H  358  1  0.65790400  0.51674900  0.99120500  1
  H  363  1  0.32211800  0.52513400  0.00252100  1
  H  364  1  0.49775900  0.32162000  0.02723400  1
  H  365  1  0.68131000  0.49905900  0.02736200  1
  H  366  1  0.52512300  0.68083300  0.00271500  1
  H  439  1  0.52175800  0.97149400  0.84941000  1
  H  440  1  0.52264500  0.97508000  0.88023600  1
  H  441  1  0.49064000  0.01679700  0.84497600  1
  H  442  1  0.49177400  0.02053300  0.87590800  1
  H  443  1  0.48023200  0.00417600  0.90271500  1
  H  444  1  0.48014700  0.00547500  0.93391700  1
  H  445  1  0.53471800  0.99567200  0.90329700  1
  H  446  1  0.53453800  0.99682700  0.93449300  1
  H  447  1  0.50694300  0.96632700  0.94338300  1
  H  448  1  0.50712300  0.94304800  0.96681700  1
  H  449  1  0.50720900  0.99064200  0.99081100  1
  H  450  1  0.50760400  0.01225800  0.01228400  1
  H  451  1  0.50767500  0.03664200  0.94259400  1
  H  452  1  0.50758600  0.06016300  0.96596900  1
  H  453  1  0.47998800  0.06900200  0.00395300  1
  H  454  1  0.48012100  0.10021500  0.00289900  1
  H  455  1  0.53477000  0.06851000  0.99827900  1
  H  456  1  0.53499600  0.09971600  0.99741000  1
  H  457  1  0.50668300  0.05985900  0.03625300  1
  H  458  1  0.50654100  0.03658800  0.05969700  1
  H  459  1  0.50730900  0.94275300  0.03714900  1
  H  460  1  0.50750600  0.96627600  0.06050200  1
  H  461  1  0.53443100  0.00657000  0.06866300  1
  H  462  1  0.53447900  0.00794100  0.09986100  1
  H  463  1  0.48017600  0.99708900  0.06910800  1
  H  464  1  0.48013800  0.99856100  0.10030300  1
  H  465  1  0.49206800  0.98241100  0.12723000  1
  H  466  1  0.49057000  0.98643200  0.15812900  1
  H  467  1  0.52039300  0.03257200  0.15348700  1
  H  468  1  0.52170100  0.02866600  0.12268100  1
  H  469  1  0.48011900  0.93394300  0.99758400  1
  H  470  1  0.48005600  0.90273800  0.99883800  1
  H  471  1  0.52179700  0.88025100  0.02852600  1
  H  472  1  0.52043600  0.84944700  0.03244500  1
  H  473  1  0.49028300  0.84487900  0.98651400  1
  H  474  1  0.49182300  0.87578200  0.98248800  1
  H  475  1  0.53448800  0.90305000  0.00766800  1
  H  476  1  0.53446900  0.93425600  0.00649600  1
  H  477  1  0.52408200  0.12285200  0.97631600  1
  H  478  1  0.52332000  0.15368800  0.97278100  1
  H  479  1  0.49066700  0.12695700  0.01995700  1
  H  480  1  0.48966500  0.15789900  0.01625500  1
  H  485  1  0.50230600  0.82257000  0.02539100  1
  H  486  1  0.50535700  0.97844400  0.82218100  1
  H  487  1  0.50627200  0.18081500  0.97884200  1
  H  488  1  0.50251400  0.02539700  0.18042900  1
  H  561  1  0.84945900  0.52171900  0.97157500  1
  H  562  1  0.88027900  0.52262600  0.97522500  1
  H  563  1  0.84495100  0.49062100  0.01688400  1
  H  564  1  0.87587400  0.49177500  0.02068400  1
  H  565  1  0.90271600  0.48023700  0.00439500  1
  H  566  1  0.93391400  0.48016400  0.00575700  1
  H  567  1  0.90329500  0.53471800  0.99585900  1
  H  568  1  0.93449100  0.53454800  0.99707600  1
  H  569  1  0.94337800  0.50690600  0.96661100  1
  H  570  1  0.96681100  0.50708500  0.94333100  1
  H  571  1  0.99080600  0.50727900  0.99092400  1
  H  572  1  0.01228100  0.50758700  0.01253800  1
  H  573  1  0.94259300  0.50770100  0.03692500  1
  H  574  1  0.96596900  0.50759200  0.06044700  1
  H  575  1  0.00399400  0.47997800  0.06928200  1
  H  576  1  0.00294400  0.48010200  0.10049500  1
  H  577  1  0.99825000  0.53475100  0.06880300  1
  H  578  1  0.99738400  0.53496900  0.10000900  1
  H  579  1  0.03625700  0.50667100  0.06013500  1
  H  580  1  0.05969700  0.50653000  0.03685900  1
  H  581  1  0.03713900  0.50736000  0.94303000  1
  H  582  1  0.06049400  0.50753900  0.96654900  1
  H  583  1  0.06865900  0.53442700  0.00683100  1
  H  584  1  0.09985900  0.53448600  0.00813600  1
  H  585  1  0.06910300  0.48017500  0.99733700  1
  H  586  1  0.10030000  0.48014500  0.99874400  1
  H  587  1  0.12719000  0.49207800  0.98254800  1
  H  588  1  0.15809700  0.49058400  0.98651000  1
  H  589  1  0.15354200  0.52041700  0.03265200  1
  H  590  1  0.12272900  0.52171800  0.02880700  1
  H  591  1  0.99763100  0.48012400  0.93423800  1
  H  592  1  0.99889800  0.48005100  0.90303400  1
  H  593  1  0.02852200  0.52181200  0.88054500  1
  H  594  1  0.03243800  0.52045200  0.84974000  1
  H  595  1  0.98652900  0.49026500  0.84517800  1
  H  596  1  0.98250500  0.49180200  0.87608000  1
  H  597  1  0.00762300  0.53450100  0.90332900  1
  H  598  1  0.00643700  0.53449100  0.93453500  1
  H  599  1  0.97632600  0.52404700  0.12314700  1
  H  600  1  0.97279500  0.52328300  0.15398400  1
  H  601  1  0.01998900  0.49066100  0.12724800  1
  H  602  1  0.01629100  0.48965700  0.15819100  1
  H  607  1  0.02539700  0.50232100  0.82286700  1
  H  608  1  0.82222100  0.50531200  0.97848300  1
  H  609  1  0.97886800  0.50627300  0.18111700  1
  H  610  1  0.18046500  0.50254000  0.02543800  1
  H  683  1  0.97955300  0.84859500  0.53065700  1
  H  684  1  0.97932200  0.87950900  0.52785600  1
  H  685  1  0.01864500  0.84531000  0.49193300  1
  H  686  1  0.01870800  0.87635100  0.48941700  1
  H  687  1  0.00051700  0.90204300  0.47991900  1
  H  688  1  0.00149200  0.93325400  0.47884800  1
  H  689  1  0.99904400  0.90413800  0.53501800  1
  H  690  1  0.99964000  0.93526600  0.53384800  1
  H  691  1  0.96573600  0.94377700  0.50676000  1
  H  692  1  0.94270200  0.96747500  0.50698400  1
  H  693  1  0.99052600  0.99092600  0.50492800  1
  H  694  1  0.01241000  0.01216100  0.50521000  1
  H  695  1  0.03598500  0.94220600  0.50558000  1
  H  696  1  0.05978300  0.96531900  0.50566500  1
  H  697  1  0.06934100  0.00351700  0.47896200  1
  H  698  1  0.10054300  0.00241800  0.47945600  1
  H  699  1  0.06818800  0.99736200  0.53368200  1
  H  700  1  0.09939000  0.99648500  0.53427700  1
  H  701  1  0.06025800  0.03561100  0.50668300  1
  H  702  1  0.03722900  0.05931700  0.50649600  1
  H  703  1  0.94317900  0.03779700  0.50533900  1
  H  704  1  0.96698600  0.06088900  0.50534000  1
  H  705  1  0.00318000  0.06787500  0.53382300  1
  H  706  1  0.00391900  0.09899700  0.53492500  1
  H  707  1  0.00170700  0.06976400  0.47880700  1
  H  708  1  0.00285600  0.10096500  0.47980900  1
  H  709  1  0.98481200  0.12671400  0.48896400  1
  H  710  1  0.98487400  0.15777000  0.49141900  1
  H  711  1  0.02330500  0.15454200  0.53079600  1
  H  712  1  0.02360700  0.12360000  0.52801600  1
  H  713  1  0.93363200  0.99795900  0.47910100  1
  H  714  1  0.90243500  0.99926300  0.47940900  1
  H  715  1  0.88030800  0.02919000  0.52130400  1
  H  716  1  0.84947500  0.03294200  0.52028600  1
  H  717  1  0.84480600  0.98690600  0.49031000  1
  H  718  1  0.87573100  0.98303200  0.49152700  1
  H  719  1  0.90342700  0.00866900  0.53373800  1
  H  720  1  0.93462900  0.00748900  0.53333700  1
  H  721  1  0.12281600  0.97570000  0.52364000  1
  H  722  1  0.15367700  0.97233400  0.52320800  1
  H  723  1  0.12705000  0.01941500  0.49033700  1
  H  724  1  0.15800700  0.01587100  0.48964500  1
  H  729  1  0.82243400  0.02574400  0.50259000  1
  H  730  1  0.99787700  0.82164500  0.52638300  1
  H  731  1  0.18096600  0.97856100  0.50658100  1
  H  732  1  0.00337500  0.18129500  0.52631200  1
  H  739  1  0.97911300  0.48832700  0.20769900  1
  H  744  1  0.02618700  0.51658400  0.21003400  1
  H  749  1  0.96502700  0.47830200  0.26690800  1
  H  750  1  0.96501300  0.47907100  0.23561900  1
  H  751  1  0.97911200  0.48631300  0.29531600  1
  H  752  1  0.02616800  0.51467700  0.29410200  1
  H  761  1  0.02097600  0.48322500  0.79651800  1
  H  766  1  0.98302800  0.52279200  0.79281200  1
  H  771  1  0.03371600  0.46956300  0.73769200  1
  H  772  1  0.03300300  0.47045100  0.76897300  1
  H  773  1  0.02315200  0.48093000  0.70889700  1
  H  774  1  0.98560400  0.52106100  0.70879300  1
  H  783  1  0.20747000  0.97888700  0.48834000  1
  H  788  1  0.20968700  0.02594000  0.51664200  1
  H  793  1  0.26671200  0.96497600  0.47827000  1
  H  794  1  0.23542400  0.96487200  0.47905600  1
  H  795  1  0.29508200  0.97912900  0.48628400  1
  H  796  1  0.29375100  0.02615200  0.51470400  1
  H  805  1  0.79615800  0.02118600  0.48324600  1
  H  810  1  0.79255700  0.98329300  0.52287000  1
  H  815  1  0.73730500  0.03375100  0.46955800  1
  H  816  1  0.76858500  0.03311900  0.47045300  1
  H  817  1  0.70853600  0.02314800  0.48094100  1
  H  818  1  0.70850600  0.98567500  0.52114200  1
  H  827  1  0.48831800  0.20739000  0.97911200  1
  H  832  1  0.51662500  0.20972700  0.02615700  1
  H  837  1  0.47824300  0.26660000  0.96505900  1
  H  838  1  0.47902900  0.23531200  0.96503000  1
  H  839  1  0.48625700  0.29500600  0.97914800  1
  H  840  1  0.51467400  0.29378000  0.02617500  1
  H  849  1  0.48324400  0.79620600  0.02097900  1
  H  854  1  0.52281800  0.79249900  0.98304100  1
  H  859  1  0.46957700  0.73738300  0.03372100  1
  H  860  1  0.47046900  0.76866200  0.03300500  1
  H  861  1  0.48093900  0.70858500  0.02316300  1
  H  862  1  0.52107700  0.70846900  0.98562300  1
  H  871  1  0.48785800  0.97919500  0.79545700  1
  H  876  1  0.51734900  0.02551500  0.79328000  1
  H  881  1  0.47751800  0.96554800  0.73620200  1
  H  882  1  0.47827100  0.96541300  0.76749200  1
  H  883  1  0.48588500  0.97952300  0.70784200  1
  H  884  1  0.51548400  0.02581000  0.70922500  1
  H  893  1  0.48340400  0.02100500  0.20675600  1
  H  898  1  0.52285000  0.98292900  0.21043700  1
  H  903  1  0.46972900  0.03370200  0.26558200  1
  H  904  1  0.47064800  0.03303500  0.23430300  1
  H  905  1  0.48102900  0.02305900  0.29437100  1
  H  906  1  0.52104300  0.98538600  0.29446400  1
  H  915  1  0.98236200  0.20730100  0.52157000  1
  H  920  1  0.02118000  0.20986400  0.48277700  1
  H  925  1  0.96963100  0.26651600  0.53352000  1
  H  926  1  0.97014100  0.23522100  0.53334700  1
  H  927  1  0.98112300  0.29498800  0.52223600  1
  H  928  1  0.02068400  0.29398700  0.48411400  1
  H  937  1  0.01740400  0.79548900  0.52631600  1
  H  942  1  0.98964000  0.79326400  0.47895300  1
  H  947  1  0.02731900  0.73623500  0.54035100  1
  H  948  1  0.02652900  0.76752300  0.54044200  1
  H  949  1  0.01948000  0.70786800  0.52611500  1
  H  950  1  0.99145200  0.70918400  0.47885100  1
  H  959  1  0.20676100  0.48339100  0.02101100  1
  H  964  1  0.21043200  0.52284500  0.98294300  1
  H  969  1  0.26558800  0.46971200  0.03369200  1
  H  970  1  0.23430900  0.47063000  0.03302900  1
  H  971  1  0.29437500  0.48101800  0.02305100  1
  H  972  1  0.29446400  0.52103900  0.98538400  1
  H  981  1  0.79546700  0.48786000  0.97920800  1
  H  986  1  0.79327300  0.51734900  0.02552900  1
  H  991  1  0.73621500  0.47752300  0.96554100  1
  H  992  1  0.76750300  0.47827900  0.96541600  1
  H  993  1  0.70785000  0.48588600  0.97951200  1
  H  994  1  0.70922100  0.51548600  0.02580100  1
  H  1069  1  0.13618800  0.58379100  0.45357300  1
  H  1070  1  0.13317500  0.58373500  0.48447300  1
  H  1071  1  0.09661020  0.62195700  0.44971400  1
  H  1072  1  0.09390620  0.62224900  0.48074600  1
  H  1073  1  0.08461020  0.60427100  0.50650500  1
  H  1074  1  0.08326720  0.60538900  0.53769900  1
  H  1075  1  0.13970600  0.60352500  0.50906700  1
  H  1076  1  0.13826400  0.60420800  0.54017200  1
  H  1077  1  0.10989600  0.56999100  0.54848000  1
  H  1078  1  0.10983000  0.54698400  0.57222000  1
  H  1079  1  0.10947800  0.59487600  0.59561600  1
  H  1080  1  0.11101600  0.61673900  0.61682200  1
  H  1081  1  0.11048200  0.64024200  0.54683200  1
  H  1082  1  0.11084800  0.66406800  0.56990900  1
  H  1083  1  0.08380920  0.67374700  0.60831700  1
  H  1084  1  0.08432220  0.70494800  0.60697700  1
  H  1085  1  0.13846000  0.67249700  0.60162100  1
  H  1086  1  0.13906400  0.70369000  0.60043500  1
  H  1087  1  0.11036600  0.66462600  0.64021600  1
  H  1088  1  0.11011400  0.64164100  0.66393700  1
  H  1089  1  0.11084700  0.54752500  0.64247000  1
  H  1090  1  0.11137200  0.57132100  0.66556600  1
  H  1091  1  0.13787600  0.61202200  0.67313300  1
  H  1092  1  0.13814300  0.61340500  0.70433200  1
  H  1093  1  0.08376320  0.60178700  0.67399900  1
  H  1094  1  0.08394620  0.60325200  0.70518900  1
  H  1095  1  0.09639220  0.58706100  0.73185500  1
  H  1096  1  0.09521120  0.59072000  0.76280800  1
  H  1097  1  0.12428000  0.63735500  0.75832600  1
  H  1098  1  0.12527300  0.63380300  0.72745800  1
  H  1099  1  0.08297020  0.53756000  0.60707400  1
  H  1100  1  0.08402920  0.50635500  0.60787100  1
  H  1101  1  0.13270900  0.48361700  0.62746400  1
  H  1102  1  0.13535600  0.45266500  0.62705500  1
  H  1103  1  0.09505320  0.44964200  0.58958300  1
  H  1104  1  0.09273720  0.48071500  0.58959900  1
  H  1105  1  0.13915400  0.50838300  0.60792200  1
  H  1106  1  0.13799900  0.53951100  0.60756700  1
  H  1107  1  0.12800000  0.72689700  0.57939100  1
  H  1108  1  0.12767100  0.75775800  0.57582600  1
  H  1109  1  0.09567520  0.73161400  0.62378300  1
  H  1110  1  0.09513520  0.76257300  0.62007700  1
  H  1115  1  0.13009300  0.42577700  0.60732300  1
  H  1116  1  0.13158100  0.60221800  0.42635900  1
  H  1117  1  0.11094300  0.78528200  0.58237300  1
  H  1118  1  0.10715600  0.62952100  0.78556400  1
  H  1191  1  0.45325800  0.13632700  0.58384700  1
  H  1192  1  0.48415900  0.13331000  0.58381500  1
  H  1193  1  0.44936300  0.09665920  0.62192300  1
  H  1194  1  0.48039200  0.09394920  0.62223400  1
  H  1195  1  0.50611400  0.08466920  0.60417600  1
  H  1196  1  0.53730500  0.08327620  0.60528400  1
  H  1197  1  0.50875200  0.13976600  0.60368000  1
  H  1198  1  0.53985900  0.13827800  0.60436100  1
  H  1199  1  0.54810800  0.11087600  0.57002700  1
  H  1200  1  0.57181800  0.11124400  0.54701700  1
  H  1201  1  0.59525000  0.10925600  0.59485500  1
  H  1202  1  0.61645100  0.11094700  0.61673800  1
  H  1203  1  0.54646800  0.11035600  0.64026300  1
  H  1204  1  0.56956600  0.11052900  0.66408600  1
  H  1205  1  0.60344500  0.08343720  0.67430800  1
  H  1206  1  0.60261100  0.08483820  0.70551200  1
  H  1207  1  0.60603000  0.13838800  0.67184700  1
  H  1208  1  0.60564200  0.13985600  0.70295700  1
  H  1209  1  0.63982100  0.10932100  0.66461400  1
  H  1210  1  0.66356100  0.10947900  0.64163100  1
  H  1211  1  0.64214300  0.11079500  0.54753700  1
  H  1212  1  0.66521100  0.11112500  0.57133100  1
  H  1213  1  0.67277100  0.13779500  0.61219300  1
  H  1214  1  0.70396700  0.13805300  0.61358900  1
  H  1215  1  0.67363500  0.08374420  0.60165200  1
  H  1216  1  0.70482800  0.08391520  0.60313100  1
  H  1217  1  0.73151900  0.09643020  0.58703200  1
  H  1218  1  0.76247300  0.09526620  0.59068300  1
  H  1219  1  0.75796100  0.12412600  0.63744300  1
  H  1220  1  0.72709500  0.12510100  0.63389800  1
  H  1221  1  0.60225000  0.08357820  0.53807400  1
  H  1222  1  0.60351700  0.08376320  0.50687500  1
  H  1223  1  0.63362800  0.12530500  0.48455700  1
  H  1224  1  0.63721900  0.12426400  0.45369500  1
  H  1225  1  0.59080700  0.09483220  0.44923900  1
  H  1226  1  0.58711500  0.09605420  0.48019000  1
  H  1227  1  0.61305900  0.13807100  0.50764600  1
  H  1228  1  0.61186700  0.13780500  0.53885400  1
  H  1229  1  0.58543400  0.13463900  0.72754600  1
  H  1230  1  0.58566100  0.13761600  0.75844200  1
  H  1231  1  0.62126600  0.09290820  0.73126000  1
  H  1232  1  0.62114000  0.09560520  0.76229400  1
  H  1237  1  0.62952900  0.10692200  0.42650300  1
  H  1238  1  0.42600400  0.13164700  0.60222100  1
  H  1239  1  0.60343700  0.13176200  0.78570200  1
  H  1240  1  0.78521500  0.10707500  0.62954500  1
  H  1313  1  0.58379800  0.45326300  0.13628000  1
  H  1314  1  0.58379000  0.48416500  0.13326900  1
  H  1315  1  0.62189200  0.44934400  0.09663220  1
  H  1316  1  0.62222500  0.48037700  0.09392720  1
  H  1317  1  0.60417800  0.50611400  0.08464320  1
  H  1318  1  0.60529000  0.53730500  0.08325420  1
  H  1319  1  0.60366900  0.50874400  0.13973900  1
  H  1320  1  0.60435700  0.53985100  0.13825500  1
  H  1321  1  0.57002700  0.54810800  0.11085800  1
  H  1322  1  0.54701900  0.57181900  0.11124000  1
  H  1323  1  0.59485800  0.59525000  0.10925000  1
  H  1324  1  0.61674200  0.61645100  0.11098200  1
  H  1325  1  0.64026300  0.54646700  0.11035900  1
  H  1326  1  0.66408600  0.56956300  0.11053800  1
  H  1327  1  0.67431000  0.60344000  0.08342920  1
  H  1328  1  0.70551200  0.60260500  0.08483220  1
  H  1329  1  0.67184900  0.60603000  0.13838100  1
  H  1330  1  0.70295700  0.60564100  0.13985000  1
  H  1331  1  0.66461700  0.63981700  0.10929500  1
  H  1332  1  0.64163500  0.66355900  0.10946000  1
  H  1333  1  0.54754200  0.64214500  0.11080400  1
  H  1334  1  0.57133600  0.66521200  0.11113900  1
  H  1335  1  0.61220200  0.67276700  0.13780700  1
  H  1336  1  0.61359200  0.70396300  0.13807100  1
  H  1337  1  0.60165100  0.67364000  0.08375820  1
  H  1338  1  0.60312400  0.70483300  0.08393520  1
  H  1339  1  0.58702300  0.73151200  0.09645620  1
  H  1340  1  0.59066100  0.76246800  0.09529320  1
  H  1341  1  0.63741600  0.75797600  0.12416400  1
  H  1342  1  0.63388400  0.72710700  0.12513700  1
  H  1343  1  0.53807900  0.60225200  0.08357920  1
  H  1344  1  0.50688000  0.60351800  0.08376420  1
  H  1345  1  0.48455600  0.63362400  0.12531200  1
  H  1346  1  0.45369200  0.63721000  0.12426800  1
  H  1347  1  0.44924700  0.59080900  0.09482320  1
  H  1348  1  0.48019800  0.58712000  0.09604520  1
  H  1349  1  0.50764800  0.61305500  0.13807400  1
  H  1350  1  0.53885700  0.61186300  0.13780900  1
  H  1351  1  0.72754800  0.58543500  0.13463600  1
  H  1352  1  0.75844600  0.58566200  0.13760700  1
  H  1353  1  0.73125800  0.62126400  0.09290120  1
  H  1354  1  0.76229300  0.62113800  0.09559420  1
  H  1359  1  0.42650700  0.62952300  0.10691000  1
  H  1360  1  0.60214800  0.42600900  0.13162300  1
  H  1361  1  0.78569900  0.60344800  0.13175100  1
  H  1362  1  0.62951200  0.78522200  0.10710400  1
  H  1435  1  0.62614700  0.07588320  0.95379900  1
  H  1436  1  0.62703400  0.07946920  0.98462500  1
  H  1437  1  0.59502900  0.12118600  0.94936500  1
  H  1438  1  0.59616300  0.12492200  0.98029700  1
  H  1439  1  0.58462100  0.10856500  0.00710417  1
  H  1440  1  0.58453600  0.10986400  0.03830620  1
  H  1441  1  0.63910700  0.10006100  0.00768617  1
  H  1442  1  0.63892700  0.10121600  0.03888220  1
  H  1443  1  0.61133200  0.07071620  0.04777220  1
  H  1444  1  0.61151200  0.04743720  0.07120620  1
  H  1445  1  0.61159800  0.09503120  0.09520020  1
  H  1446  1  0.61199300  0.11664700  0.11667300  1
  H  1447  1  0.61206400  0.14103100  0.04698320  1
  H  1448  1  0.61197500  0.16455200  0.07035820  1
  H  1449  1  0.58437700  0.17339100  0.10834200  1
  H  1450  1  0.58451000  0.20460400  0.10728800  1
  H  1451  1  0.63915900  0.17289900  0.10266800  1
  H  1452  1  0.63938500  0.20410500  0.10179900  1
  H  1453  1  0.61107200  0.16424800  0.14064200  1
  H  1454  1  0.61093000  0.14097700  0.16408600  1
  H  1455  1  0.61169800  0.04714220  0.14153800  1
  H  1456  1  0.61189500  0.07066520  0.16489100  1
  H  1457  1  0.63882000  0.11095900  0.17305200  1
  H  1458  1  0.63886800  0.11233000  0.20425000  1
  H  1459  1  0.58456500  0.10147800  0.17349700  1
  H  1460  1  0.58452700  0.10295000  0.20469200  1
  H  1461  1  0.59645700  0.08680020  0.23161900  1
  H  1462  1  0.59495900  0.09082120  0.26251800  1
  H  1463  1  0.62478200  0.13696100  0.25787600  1
  H  1464  1  0.62609000  0.13305500  0.22707000  1
  H  1465  1  0.58450800  0.03833220  0.10197300  1
  H  1466  1  0.58444500  0.00712717  0.10322700  1
  H  1467  1  0.62618600  0.98464000  0.13291500  1
  H  1468  1  0.62482500  0.95383600  0.13683400  1
  H  1469  1  0.59467200  0.94926800  0.09090320  1
  H  1470  1  0.59621200  0.98017100  0.08687720  1
  H  1471  1  0.63887700  0.00743917  0.11205700  1
  H  1472  1  0.63885800  0.03864520  0.11088500  1
  H  1473  1  0.62847100  0.22724100  0.08070520  1
  H  1474  1  0.62770900  0.25807700  0.07717020  1
  H  1475  1  0.59505600  0.23134600  0.12434600  1
  H  1476  1  0.59405400  0.26228800  0.12064400  1
  H  1481  1  0.60669500  0.92695900  0.12978000  1
  H  1482  1  0.60974600  0.08283320  0.92657000  1
  H  1483  1  0.61066100  0.28520400  0.08323120  1
  H  1484  1  0.60690300  0.12978600  0.28481800  1
  H  1557  1  0.95384800  0.62610800  0.07596420  1
  H  1558  1  0.98466800  0.62701500  0.07961420  1
  H  1559  1  0.94934000  0.59501000  0.12127300  1
  H  1560  1  0.98026300  0.59616400  0.12507300  1
  H  1561  1  0.00710517  0.58462600  0.10878400  1
  H  1562  1  0.03830320  0.58455300  0.11014600  1
  H  1563  1  0.00768417  0.63910700  0.10024800  1
  H  1564  1  0.03888020  0.63893700  0.10146500  1
  H  1565  1  0.04776720  0.61129500  0.07100020  1
  H  1566  1  0.07120020  0.61147400  0.04772020  1
  H  1567  1  0.09519520  0.61166800  0.09531320  1
  H  1568  1  0.11667000  0.61197600  0.11692700  1
  H  1569  1  0.04698220  0.61209000  0.14131400  1
  H  1570  1  0.07035820  0.61198100  0.16483600  1
  H  1571  1  0.10838300  0.58436700  0.17367100  1
  H  1572  1  0.10733300  0.58449100  0.20488400  1
  H  1573  1  0.10263900  0.63914000  0.17319200  1
  H  1574  1  0.10177300  0.63935800  0.20439800  1
  H  1575  1  0.14064600  0.61106000  0.16452400  1
  H  1576  1  0.16408600  0.61091900  0.14124800  1
  H  1577  1  0.14152800  0.61174900  0.04741920  1
  H  1578  1  0.16488300  0.61192800  0.07093820  1
  H  1579  1  0.17304800  0.63881600  0.11122000  1
  H  1580  1  0.20424800  0.63887500  0.11252500  1
  H  1581  1  0.17349200  0.58456400  0.10172600  1
  H  1582  1  0.20468900  0.58453400  0.10313300  1
  H  1583  1  0.23157900  0.59646700  0.08693720  1
  H  1584  1  0.26248600  0.59497300  0.09089920  1
  H  1585  1  0.25793100  0.62480600  0.13704100  1
  H  1586  1  0.22711800  0.62610700  0.13319600  1
  H  1587  1  0.10202000  0.58451300  0.03862720  1
  H  1588  1  0.10328700  0.58444000  0.00742317  1
  H  1589  1  0.13291100  0.62620100  0.98493400  1
  H  1590  1  0.13682700  0.62484100  0.95412900  1
  H  1591  1  0.09091820  0.59465400  0.94956700  1
  H  1592  1  0.08689420  0.59619100  0.98046900  1
  H  1593  1  0.11201200  0.63889000  0.00771817  1
  H  1594  1  0.11082600  0.63888000  0.03892420  1
  H  1595  1  0.08071520  0.62843600  0.22753600  1
  H  1596  1  0.07718420  0.62767200  0.25837300  1
  H  1597  1  0.12437800  0.59505000  0.23163700  1
  H  1598  1  0.12068000  0.59404600  0.26258000  1
  H  1603  1  0.12978600  0.60671000  0.92725600  1
  H  1604  1  0.92661000  0.60970100  0.08287220  1
  H  1605  1  0.08325720  0.61066200  0.28550600  1
  H  1606  1  0.28485400  0.60692900  0.12982700  1
  H  1679  1  0.08394220  0.95298400  0.63504600  1
  H  1680  1  0.08371120  0.98389800  0.63224500  1
  H  1681  1  0.12303400  0.94969900  0.59632200  1
  H  1682  1  0.12309700  0.98074000  0.59380600  1
  H  1683  1  0.10490600  0.00643217  0.58430800  1
  H  1684  1  0.10588100  0.03764320  0.58323700  1
  H  1685  1  0.10343300  0.00852717  0.63940700  1
  H  1686  1  0.10402900  0.03965520  0.63823700  1
  H  1687  1  0.07012520  0.04816620  0.61114900  1
  H  1688  1  0.04709120  0.07186420  0.61137300  1
  H  1689  1  0.09491520  0.09531520  0.60931700  1
  H  1690  1  0.11679900  0.11655000  0.60959900  1
  H  1691  1  0.14037400  0.04659520  0.60996900  1
  H  1692  1  0.16417200  0.06970820  0.61005400  1
  H  1693  1  0.17373000  0.10790600  0.58335100  1
  H  1694  1  0.20493200  0.10680700  0.58384500  1
  H  1695  1  0.17257700  0.10175100  0.63807100  1
  H  1696  1  0.20377900  0.10087400  0.63866600  1
  H  1697  1  0.16464700  0.14000000  0.61107200  1
  H  1698  1  0.14161800  0.16370600  0.61088500  1
  H  1699  1  0.04756820  0.14218600  0.60972800  1
  H  1700  1  0.07137520  0.16527800  0.60972900  1
  H  1701  1  0.10756900  0.17226400  0.63821200  1
  H  1702  1  0.10830800  0.20338600  0.63931400  1
  H  1703  1  0.10609600  0.17415300  0.58319600  1
  H  1704  1  0.10724500  0.20535400  0.58419800  1
  H  1705  1  0.08920120  0.23110300  0.59335300  1
  H  1706  1  0.08926320  0.26215900  0.59580800  1
  H  1707  1  0.12769400  0.25893100  0.63518500  1
  H  1708  1  0.12799600  0.22798900  0.63240500  1
  H  1709  1  0.03802120  0.10234800  0.58349000  1
  H  1710  1  0.00682417  0.10365200  0.58379800  1
  H  1711  1  0.98469700  0.13357900  0.62569300  1
  H  1712  1  0.95386400  0.13733100  0.62467500  1
  H  1713  1  0.94919500  0.09129520  0.59469900  1
  H  1714  1  0.98012000  0.08742120  0.59591600  1
  H  1715  1  0.00781617  0.11305800  0.63812700  1
  H  1716  1  0.03901820  0.11187800  0.63772600  1
  H  1717  1  0.22720500  0.08008920  0.62802900  1
  H  1718  1  0.25806600  0.07672320  0.62759700  1
  H  1719  1  0.23143900  0.12380400  0.59472600  1
  H  1720  1  0.26239600  0.12026000  0.59403400  1
  H  1725  1  0.92682300  0.13013300  0.60697900  1
  H  1726  1  0.10226600  0.92603400  0.63077200  1
  H  1727  1  0.28535500  0.08295020  0.61097000  1
  H  1728  1  0.10776400  0.28568400  0.63070100  1
  H  1735  1  0.08350220  0.59271600  0.31208800  1
  H  1740  1  0.13057600  0.62097300  0.31442300  1
  H  1745  1  0.06941620  0.58269100  0.37129700  1
  H  1746  1  0.06940220  0.58346000  0.34000800  1
  H  1747  1  0.08350120  0.59070200  0.39970500  1
  H  1748  1  0.13055700  0.61906600  0.39849100  1
  H  1757  1  0.12536500  0.58761400  0.90090700  1
  H  1762  1  0.08741720  0.62718100  0.89720100  1
  H  1767  1  0.13810500  0.57395200  0.84208100  1
  H  1768  1  0.13739200  0.57484000  0.87336200  1
  H  1769  1  0.12754100  0.58531900  0.81328600  1
  H  1770  1  0.08999320  0.62545000  0.81318200  1
  H  1779  1  0.31185900  0.08327620  0.59272900  1
  H  1784  1  0.31407600  0.13032900  0.62103100  1
  H  1789  1  0.37110100  0.06936520  0.58265900  1
  H  1790  1  0.33981300  0.06926120  0.58344500  1
  H  1791  1  0.39947100  0.08351820  0.59067300  1
  H  1792  1  0.39814000  0.13054100  0.61909300  1
  H  1801  1  0.90054700  0.12557500  0.58763500  1
  H  1806  1  0.89694600  0.08768220  0.62725900  1
  H  1811  1  0.84169400  0.13814000  0.57394700  1
  H  1812  1  0.87297400  0.13750800  0.57484200  1
  H  1813  1  0.81292500  0.12753700  0.58533000  1
  H  1814  1  0.81289500  0.09006420  0.62553100  1
  H  1823  1  0.59270700  0.31177900  0.08350120  1
  H  1828  1  0.62101400  0.31411600  0.13054600  1
  H  1833  1  0.58263200  0.37098900  0.06944820  1
  H  1834  1  0.58341800  0.33970100  0.06941920  1
  H  1835  1  0.59064600  0.39939500  0.08353720  1
  H  1836  1  0.61906300  0.39816900  0.13056400  1
  H  1845  1  0.58763300  0.90059500  0.12536800  1
  H  1850  1  0.62720700  0.89688800  0.08743020  1
  H  1855  1  0.57396600  0.84177200  0.13811000  1
  H  1856  1  0.57485800  0.87305100  0.13739400  1
  H  1857  1  0.58532800  0.81297400  0.12755200  1
  H  1858  1  0.62546600  0.81285800  0.09001220  1
  H  1867  1  0.59224700  0.08358420  0.89984600  1
  H  1872  1  0.62173800  0.12990400  0.89766900  1
  H  1877  1  0.58190700  0.06993720  0.84059100  1
  H  1878  1  0.58266000  0.06980220  0.87188100  1
  H  1879  1  0.59027400  0.08391220  0.81223100  1
  H  1880  1  0.61987300  0.13019900  0.81361400  1
  H  1889  1  0.58779300  0.12539400  0.31114500  1
  H  1894  1  0.62723900  0.08731820  0.31482600  1
  H  1899  1  0.57411800  0.13809100  0.36997100  1
  H  1900  1  0.57503700  0.13742400  0.33869200  1
  H  1901  1  0.58541800  0.12744800  0.39876000  1
  H  1902  1  0.62543200  0.08977520  0.39885300  1
  H  1911  1  0.08675120  0.31169000  0.62595900  1
  H  1916  1  0.12556900  0.31425300  0.58716600  1
  H  1921  1  0.07402020  0.37090500  0.63790900  1
  H  1922  1  0.07453020  0.33961000  0.63773600  1
  H  1923  1  0.08551220  0.39937700  0.62662500  1
  H  1924  1  0.12507300  0.39837600  0.58850300  1
  H  1933  1  0.12179300  0.89987800  0.63070500  1
  H  1938  1  0.09402920  0.89765300  0.58334200  1
  H  1943  1  0.13170800  0.84062400  0.64474000  1
  H  1944  1  0.13091800  0.87191200  0.64483100  1
  H  1945  1  0.12386900  0.81225700  0.63050400  1
  H  1946  1  0.09584120  0.81357300  0.58324000  1
  H  1955  1  0.31115000  0.58778000  0.12540000  1
  H  1960  1  0.31482100  0.62723400  0.08733220  1
  H  1965  1  0.36997700  0.57410100  0.13808100  1
  H  1966  1  0.33869800  0.57501900  0.13741800  1
  H  1967  1  0.39876400  0.58540700  0.12744000  1
  H  1968  1  0.39885300  0.62542800  0.08977320  1
  H  1977  1  0.89985600  0.59224900  0.08359720  1
  H  1982  1  0.89766200  0.62173800  0.12991800  1
  H  1987  1  0.84060400  0.58191200  0.06993020  1
  H  1988  1  0.87189200  0.58266800  0.06980520  1
  H  1989  1  0.81223900  0.59027500  0.08390120  1
  H  1990  1  0.81361000  0.61987500  0.13019000  1
  C  1  1  0.00532100  0.46827800  0.45715800  1
  C  2  1  0.00528500  0.45574000  0.47009500  1
  C  3  1  0.00522700  0.46418700  0.48625700  1
  C  5  1  0.00531000  0.48470000  0.46509400  1
  C  6  1  0.00556000  0.50091200  0.45602300  1
  C  7  1  0.00578600  0.51757100  0.46414700  1
  C  9  1  0.00620000  0.53858000  0.48450800  1
  C  10  1  0.00628600  0.54660100  0.46813700  1
  C  11  1  0.00607900  0.53366600  0.45560100  1
  C  12  1  0.00633500  0.54722500  0.50091200  1
  C  13  1  0.00618300  0.53865100  0.51739300  1
  C  15  1  0.00613600  0.51812700  0.53856500  1
  C  16  1  0.00591500  0.53455600  0.54648800  1
  C  17  1  0.00603700  0.54709500  0.53355500  1
  C  18  1  0.00620300  0.50191200  0.54765600  1
  C  19  1  0.00605700  0.48525400  0.53951900  1
  C  21  1  0.00568700  0.46426300  0.51914300  1
  C  22  1  0.00619400  0.45622000  0.53549200  1
  C  23  1  0.00646500  0.46914300  0.54803400  1
  C  24  1  0.00544100  0.45562800  0.50274200  1
  C  25  1  0.00599100  0.43702000  0.50288600  1
  C  26  1  0.02216400  0.42822400  0.50321200  1
  C  27  1  0.02277900  0.40987900  0.50357900  1
  C  28  1  0.00731000  0.39972300  0.50365700  1
  C  29  1  0.99115500  0.40872000  0.50318200  1
  C  30  1  0.99047600  0.42708800  0.50284800  1
  C  31  1  0.00808900  0.38103600  0.50414000  1
  C  32  1  0.99708800  0.37061300  0.49353500  1
  C  33  1  0.99847500  0.35227200  0.49346100  1
  C  34  1  0.01092900  0.34371600  0.50404800  1
  C  35  1  0.02176300  0.35401000  0.51484600  1
  C  36  1  0.02027600  0.37230800  0.51496400  1
  C  37  1  0.00641400  0.50235500  0.56628300  1
  C  38  1  0.02207600  0.50566800  0.57541000  1
  C  39  1  0.02217200  0.50656800  0.59375700  1
  C  40  1  0.00669500  0.50399900  0.60353700  1
  C  41  1  0.99110100  0.50044000  0.59427100  1
  C  42  1  0.99092600  0.49970600  0.57591400  1
  C  43  1  0.00666300  0.50560400  0.62212700  1
  C  44  1  0.01482400  0.51999300  0.63034800  1
  C  45  1  0.01412200  0.52216800  0.64856700  1
  C  46  1  0.00543900  0.50989200  0.65926100  1
  C  47  1  0.99746900  0.49535300  0.65114100  1
  C  48  1  0.99801000  0.49330700  0.63287300  1
  C  49  1  0.00669900  0.56584800  0.50075400  1
  C  50  1  0.99114500  0.57558600  0.50243800  1
  C  51  1  0.99151100  0.59394800  0.50179500  1
  C  52  1  0.00737000  0.60311000  0.49927100  1
  C  53  1  0.02290700  0.59320700  0.49771600  1
  C  54  1  0.02261100  0.57486000  0.49851100  1
  C  55  1  0.00759700  0.62170700  0.49764900  1
  C  56  1  0.01692400  0.62984800  0.48393800  1
  C  57  1  0.01661100  0.64807400  0.48174200  1
  C  58  1  0.00713700  0.65888000  0.49331700  1
  C  59  1  0.99796500  0.65083400  0.50717900  1
  C  60  1  0.99813800  0.63255800  0.50924400  1
  C  61  1  0.00624500  0.50045700  0.43742300  1
  C  62  1  0.99082400  0.50059800  0.42734200  1
  C  63  1  0.02249300  0.49984000  0.42878100  1
  C  64  1  0.02327500  0.49928300  0.41044900  1
  C  65  1  0.00790500  0.49931400  0.40014600  1
  C  66  1  0.99167100  0.50007600  0.40898300  1
  C  67  1  0.00886900  0.49864100  0.38147500  1
  C  68  1  0.99817500  0.50933100  0.37082400  1
  C  69  1  0.99978600  0.50921000  0.35249800  1
  C  70  1  0.01216800  0.49834400  0.34417100  1
  C  71  1  0.02266500  0.48744500  0.35471600  1
  C  72  1  0.02096500  0.48752900  0.37299400  1
  C  115  1  0.01350400  0.32583100  0.50322600  1
  C  116  1  0.00409400  0.51288500  0.67707600  1
  C  117  1  0.00634400  0.67673600  0.49027800  1
  C  118  1  0.01499300  0.49888800  0.32628900  1
  C  123  1  0.45678400  0.00608000  0.46830000  1
  C  124  1  0.46971100  0.00626800  0.45575700  1
  C  125  1  0.48588100  0.00580400  0.46418000  1
  C  127  1  0.46473000  0.00557900  0.48470900  1
  C  128  1  0.45565900  0.00551700  0.50092300  1
  C  129  1  0.46377600  0.00546100  0.51758400  1
  C  131  1  0.48413500  0.00562200  0.53858200  1
  C  132  1  0.46777600  0.00585200  0.54661600  1
  C  133  1  0.45523600  0.00575200  0.53368500  1
  C  134  1  0.50054000  0.00570900  0.54720900  1
  C  135  1  0.51702000  0.00568300  0.53863500  1
  C  137  1  0.53819400  0.00592000  0.51812400  1
  C  138  1  0.54611200  0.00540600  0.53455000  1
  C  139  1  0.53317400  0.00532300  0.54708400  1
  C  140  1  0.54728800  0.00618100  0.50191400  1
  C  141  1  0.53914300  0.00623000  0.48525800  1
  C  143  1  0.51876500  0.00612800  0.46425100  1
  C  144  1  0.53513200  0.00633500  0.45622600  1
  C  145  1  0.54767000  0.00650600  0.46915200  1
  C  146  1  0.50236000  0.00603200  0.45559900  1
  C  147  1  0.50250200  0.00628900  0.43696900  1
  C  148  1  0.50555800  0.02198800  0.42781300  1
  C  149  1  0.50635400  0.02208400  0.40946300  1
  C  150  1  0.50392700  0.00656900  0.39970900  1
  C  151  1  0.50057500  0.99094400  0.40899900  1
  C  152  1  0.49994900  0.99077200  0.42736000  1
  C  153  1  0.50553600  0.00652000  0.38112100  1
  C  154  1  0.49331500  0.99774500  0.37038700  1
  C  155  1  0.49538400  0.99717400  0.35212400  1
  C  156  1  0.50986900  0.00523400  0.34400000  1
  C  157  1  0.52206600  0.01404400  0.35468100  1
  C  158  1  0.51986500  0.01478000  0.37289500  1
  C  159  1  0.56591700  0.00636600  0.50236500  1
  C  160  1  0.57504700  0.02200400  0.50577900  1
  C  161  1  0.59339500  0.02209600  0.50667900  1
  C  162  1  0.60317800  0.00663500  0.50402600  1
  C  163  1  0.59391100  0.99106600  0.50036200  1
  C  164  1  0.57555100  0.99089200  0.49963500  1
  C  165  1  0.62177200  0.00660000  0.50563500  1
  C  166  1  0.62999000  0.01471800  0.52005000  1
  C  167  1  0.64820900  0.01400900  0.52223000  1
  C  168  1  0.65891400  0.00539000  0.50991900  1
  C  169  1  0.65079900  0.99747300  0.49534900  1
  C  170  1  0.63252900  0.99800800  0.49330400  1
  C  171  1  0.50039900  0.00638800  0.56581300  1
  C  172  1  0.49954800  0.99098700  0.57589200  1
  C  173  1  0.49919300  0.99186000  0.59425400  1
  C  174  1  0.49958200  0.00810500  0.60309200  1
  C  175  1  0.50057000  0.02344600  0.59279400  1
  C  176  1  0.50096000  0.02263500  0.57445900  1
  C  177  1  0.49899200  0.00911200  0.62176200  1
  C  178  1  0.48869800  0.02190900  0.63024300  1
  C  179  1  0.48871200  0.02359400  0.64852200  1
  C  180  1  0.49889400  0.01240000  0.65906900  1
  C  181  1  0.50891900  0.99932900  0.65073600  1
  C  182  1  0.50894400  0.99772600  0.63240800  1
  C  183  1  0.43706400  0.00625200  0.50048400  1
  C  184  1  0.42696500  0.99084400  0.50055400  1
  C  185  1  0.42845000  0.02251700  0.49994300  1
  C  186  1  0.41011900  0.02332800  0.49939300  1
  C  187  1  0.39980000  0.00797000  0.49934700  1
  C  188  1  0.40860900  0.99172000  0.50002800  1
  C  189  1  0.38113500  0.00895800  0.49867400  1
  C  190  1  0.37047900  0.99824400  0.50933600  1
  C  191  1  0.35215600  0.99986600  0.50920900  1
  C  192  1  0.34384100  0.01226800  0.49835800  1
  C  193  1  0.35439300  0.02279100  0.48749200  1
  C  194  1  0.37267100  0.02108800  0.48758800  1
  C  237  1  0.51288800  0.00387000  0.32619400  1
  C  238  1  0.67673300  0.00406100  0.51291100  1
  C  239  1  0.49956600  0.01515200  0.67696400  1
  C  240  1  0.32595700  0.01506700  0.49887200  1
  C  245  1  0.46830200  0.45678500  0.00608400  1
  C  246  1  0.45575900  0.46971200  0.00627000  1
  C  247  1  0.46418200  0.48588200  0.00580900  1
  C  249  1  0.48471000  0.46473000  0.00557600  1
  C  250  1  0.50092300  0.45565600  0.00549600  1
  C  251  1  0.51758500  0.46377400  0.00544200  1
  C  253  1  0.53858300  0.48413200  0.00561200  1
  C  254  1  0.54661700  0.46777300  0.00584800  1
  C  255  1  0.53368500  0.45523300  0.00572900  1
  C  256  1  0.54721100  0.50053700  0.00570000  1
  C  257  1  0.53863800  0.51701700  0.00567200  1
  C  259  1  0.51812800  0.53819400  0.00591800  1
  C  260  1  0.53455200  0.54611100  0.00539400  1
  C  261  1  0.54708700  0.53317200  0.00529800  1
  C  262  1  0.50191900  0.54728800  0.00619000  1
  C  263  1  0.48526200  0.53914400  0.00624000  1
  C  265  1  0.46425500  0.51876600  0.00613400  1
  C  266  1  0.45623000  0.53513400  0.00634600  1
  C  267  1  0.46915800  0.54767100  0.00651900  1
  C  268  1  0.45560300  0.50236100  0.00603500  1
  C  269  1  0.43697200  0.50250500  0.00629200  1
  C  270  1  0.42781600  0.50555800  0.02199100  1
  C  271  1  0.40946500  0.50635500  0.02208600  1
  C  272  1  0.39971300  0.50393200  0.00657000  1
  C  273  1  0.40900300  0.50058400  0.99094400  1
  C  274  1  0.42736500  0.49995800  0.99077200  1
  C  275  1  0.38112400  0.50553300  0.00652400  1
  C  276  1  0.37039400  0.49331600  0.99774100  1
  C  277  1  0.35213000  0.49538300  0.99716900  1
  C  278  1  0.34400200  0.50986200  0.00523800  1
  C  279  1  0.35468100  0.52206200  0.01404400  1
  C  280  1  0.37289400  0.51986100  0.01478400  1
  C  281  1  0.50237200  0.56591700  0.00637800  1
  C  282  1  0.50578700  0.57504600  0.02201800  1
  C  283  1  0.50668800  0.59339300  0.02211200  1
  C  284  1  0.50402800  0.60317900  0.00665500  1
  C  285  1  0.50037000  0.59391400  0.99108300  1
  C  286  1  0.49964100  0.57555500  0.99090700  1
  C  287  1  0.50563000  0.62177300  0.00662300  1
  C  288  1  0.52004100  0.62999800  0.01474100  1
  C  289  1  0.52220600  0.64821900  0.01404700  1
  C  290  1  0.50989000  0.65892000  0.00542800  1
  C  291  1  0.49531900  0.65079900  0.99751600  1
  C  292  1  0.49329000  0.63252700  0.99803600  1
  C  293  1  0.56581400  0.50039600  0.00638200  1
  C  294  1  0.57589300  0.49954300  0.99098100  1
  C  295  1  0.59425500  0.49918400  0.99185400  1
  C  296  1  0.60309300  0.49957800  0.00809900  1
  C  297  1  0.59279500  0.50056800  0.02343900  1
  C  298  1  0.57446000  0.50095900  0.02262900  1
  C  299  1  0.62176300  0.49898800  0.00910400  1
  C  300  1  0.63024600  0.48869700  0.02190200  1
  C  301  1  0.64852400  0.48870800  0.02358200  1
  C  302  1  0.65907200  0.49888800  0.01238500  1
  C  303  1  0.65073400  0.50892600  0.99932800  1
  C  304  1  0.63240700  0.50894300  0.99771900  1
  C  305  1  0.50048400  0.43706200  0.00623000  1
  C  306  1  0.50055800  0.42696400  0.99082200  1
  C  307  1  0.49993900  0.42844500  0.02249400  1
  C  308  1  0.49938000  0.41011400  0.02330200  1
  C  309  1  0.49934300  0.39979600  0.00794200  1
  C  310  1  0.50004100  0.40860700  0.99169300  1
  C  311  1  0.49866200  0.38113000  0.00892800  1
  C  312  1  0.50931600  0.37046700  0.99821400  1
  C  313  1  0.50918700  0.35214400  0.99984400  1
  C  314  1  0.49831700  0.34383500  0.01223300  1
  C  315  1  0.48745200  0.35439500  0.02275000  1
  C  316  1  0.48756100  0.37267200  0.02105000  1
  C  359  1  0.32619700  0.51288100  0.00386400  1
  C  360  1  0.51287800  0.67673900  0.00408700  1
  C  361  1  0.67696500  0.49956800  0.01513900  1
  C  362  1  0.49882000  0.32595000  0.01504000  1
  C  367  1  0.50701000  0.96885800  0.95647900  1
  C  368  1  0.50708400  0.95616100  0.96925600  1
  C  369  1  0.50710300  0.96440200  0.98552400  1
  C  371  1  0.50712400  0.98518700  0.96460800  1
  C  372  1  0.50719400  0.00151300  0.95572100  1
  C  373  1  0.50724100  0.01807100  0.96405500  1
  C  375  1  0.50730700  0.03882000  0.98468100  1
  C  376  1  0.50747000  0.04705200  0.96841700  1
  C  377  1  0.50749500  0.03427800  0.95572100  1
  C  378  1  0.50722800  0.04725900  0.00119000  1
  C  379  1  0.50708100  0.03849200  0.01756600  1
  C  381  1  0.50712300  0.01772100  0.03848200  1
  C  382  1  0.50678200  0.03405100  0.04660400  1
  C  383  1  0.50684100  0.04674400  0.03382500  1
  C  384  1  0.50722400  0.00139800  0.04737000  1
  C  385  1  0.50725300  0.98484000  0.03903400  1
  C  387  1  0.50726400  0.96408000  0.01840900  1
  C  388  1  0.50731300  0.95586100  0.03468200  1
  C  389  1  0.50740100  0.96863800  0.04737400  1
  C  390  1  0.50720800  0.95562400  0.00190000  1
  C  391  1  0.50730700  0.93699200  0.00184500  1
  C  392  1  0.52296600  0.92770200  0.00468800  1
  C  393  1  0.52291700  0.90935000  0.00547400  1
  C  394  1  0.50728700  0.89972700  0.00327600  1
  C  395  1  0.49170200  0.90915200  0.00011000  1
  C  396  1  0.49167700  0.92751600  0.99948900  1
  C  397  1  0.50709100  0.88114800  0.00501100  1
  C  398  1  0.49802000  0.87039600  0.99302300  1
  C  399  1  0.49727200  0.85215600  0.99527700  1
  C  400  1  0.50544600  0.84408300  0.00972700  1
  C  401  1  0.51454900  0.85477900  0.02169100  1
  C  402  1  0.51545400  0.87296000  0.01930400  1
  C  403  1  0.50731200  0.00163600  0.06599800  1
  C  404  1  0.52294900  0.00472400  0.07524400  1
  C  405  1  0.52291700  0.00561700  0.09358900  1
  C  406  1  0.50732800  0.00329300  0.10324900  1
  C  407  1  0.49175900  0.99992700  0.09386500  1
  C  408  1  0.49171600  0.99919000  0.07550600  1
  C  409  1  0.50715300  0.00505000  0.12182400  1
  C  410  1  0.51544300  0.01939800  0.12998800  1
  C  411  1  0.51456400  0.02177800  0.14817100  1
  C  412  1  0.50557800  0.00974800  0.15889100  1
  C  413  1  0.49748600  0.99524000  0.15083700  1
  C  414  1  0.49820000  0.99299300  0.13259800  1
  C  415  1  0.50736700  0.06587800  0.00126300  1
  C  416  1  0.49166000  0.07539500  0.00275700  1
  C  417  1  0.49179700  0.09376300  0.00226600  1
  C  418  1  0.50758500  0.10314600  0.00013800  1
  C  419  1  0.52327800  0.09346000  0.99880900  1
  C  420  1  0.52320500  0.07510500  0.99942100  1
  C  421  1  0.50759200  0.12174900  0.99860900  1
  C  422  1  0.51710600  0.13006300  0.98513500  1
  C  423  1  0.51653300  0.14828000  0.98295100  1
  C  424  1  0.50660300  0.15891400  0.99430600  1
  C  425  1  0.49724900  0.15069500  0.00794100  1
  C  426  1  0.49768700  0.13242200  0.00999500  1
  C  427  1  0.50733400  0.00129300  0.93709400  1
  C  428  1  0.49173600  0.00356600  0.92754500  1
  C  429  1  0.52304900  0.99851700  0.92788400  1
  C  430  1  0.52309200  0.99774800  0.90953400  1
  C  431  1  0.50750100  0.99988300  0.89982600  1
  C  432  1  0.49185400  0.00295100  0.90918200  1
  C  433  1  0.50743800  0.99827100  0.88122700  1
  C  434  1  0.49822200  0.01016500  0.87049200  1
  C  435  1  0.49771700  0.00808400  0.85222400  1
  C  436  1  0.50629900  0.99391300  0.84406500  1
  C  437  1  0.51553600  0.98204500  0.85476700  1
  C  438  1  0.51619200  0.98425200  0.87297900  1
  C  481  1  0.50376300  0.82636200  0.01305400  1
  C  482  1  0.50391000  0.01306000  0.17661500  1
  C  483  1  0.50546900  0.17673200  0.99114300  1
  C  484  1  0.50506200  0.99077300  0.82624300  1
  C  489  1  0.95647400  0.50697700  0.96914300  1
  C  490  1  0.96925000  0.50705600  0.95644400  1
  C  491  1  0.98551600  0.50710100  0.96468500  1
  C  493  1  0.96460300  0.50712400  0.98547100  1
  C  494  1  0.95571700  0.50721300  0.00179700  1
  C  495  1  0.96405200  0.50726000  0.01835400  1
  C  497  1  0.98468100  0.50730800  0.03910300  1
  C  498  1  0.96841700  0.50748000  0.04733500  1
  C  499  1  0.95572000  0.50751500  0.03456100  1
  C  500  1  0.00119200  0.50721800  0.04754100  1
  C  501  1  0.01756600  0.50706800  0.03877200  1
  C  503  1  0.03848000  0.50710700  0.01799700  1
  C  504  1  0.04660500  0.50676600  0.03432500  1
  C  505  1  0.03382700  0.50682100  0.04702000  1
  C  506  1  0.04736600  0.50721900  0.00167300  1
  C  507  1  0.03902800  0.50726400  0.98511700  1
  C  509  1  0.01840200  0.50729100  0.96435900  1
  C  510  1  0.03467400  0.50735100  0.95613700  1
  C  511  1  0.04736700  0.50743100  0.96891300  1
  C  512  1  0.00189200  0.50722700  0.95590700  1
  C  513  1  0.00183500  0.50732200  0.93727700  1
  C  514  1  0.00465500  0.52298300  0.92798300  1
  C  515  1  0.00544500  0.52293000  0.90963300  1
  C  516  1  0.00327500  0.50729100  0.90001600  1
  C  517  1  0.00012200  0.49170600  0.90944300  1
  C  518  1  0.99951500  0.49168400  0.92780700  1
  C  519  1  0.00501500  0.50709100  0.88144000  1
  C  520  1  0.99303400  0.49800700  0.87069200  1
  C  521  1  0.99529100  0.49725300  0.85245500  1
  C  522  1  0.00972900  0.50544600  0.84437900  1
  C  523  1  0.02169000  0.51455500  0.85507300  1
  C  524  1  0.01929300  0.51547900  0.87325200  1
  C  525  1  0.06599400  0.50730700  0.00190400  1
  C  526  1  0.07524000  0.52294800  0.00496800  1
  C  527  1  0.09358700  0.52292100  0.00582800  1
  C  528  1  0.10324700  0.50733400  0.00348200  1
  C  529  1  0.09386100  0.49176300  0.00013700  1
  C  530  1  0.07550100  0.49171400  0.99943900  1
  C  531  1  0.12182600  0.50717000  0.00519300  1
  C  532  1  0.13001800  0.51545900  0.01952500  1
  C  533  1  0.14820500  0.51458400  0.02187000  1
  C  534  1  0.15890300  0.50559300  0.00982200  1
  C  535  1  0.15082000  0.49749100  0.99533500  1
  C  536  1  0.13257800  0.49821200  0.99312000  1
  C  537  1  0.00126700  0.50735200  0.06616300  1
  C  538  1  0.00278400  0.49164600  0.07567700  1
  C  539  1  0.00231700  0.49178000  0.09404600  1
  C  540  1  0.00015400  0.50756100  0.10343400  1
  C  541  1  0.99880000  0.52325500  0.09375000  1
  C  542  1  0.99940500  0.52318600  0.07539500  1
  C  543  1  0.99862100  0.50756000  0.12203900  1
  C  544  1  0.98513800  0.51706100  0.13035600  1
  C  545  1  0.98296300  0.51649600  0.14857500  1
  C  546  1  0.99432100  0.50656900  0.15920900  1
  C  547  1  0.00796200  0.49722400  0.15098600  1
  C  548  1  0.01001700  0.49766800  0.13271300  1
  C  549  1  0.93709000  0.50735000  0.00157300  1
  C  550  1  0.92754200  0.49175000  0.00383300  1
  C  551  1  0.92788200  0.52305900  0.99876400  1
  C  552  1  0.90953300  0.52309600  0.99795700  1
  C  553  1  0.89982600  0.50750200  0.00007600  1
  C  554  1  0.90918000  0.49186100  0.00317300  1
  C  555  1  0.88123100  0.50743200  0.99842500  1
  C  556  1  0.87047700  0.49821600  0.01030200  1
  C  557  1  0.85221200  0.49769900  0.00818400  1
  C  558  1  0.84407800  0.50627100  0.99399300  1
  C  559  1  0.85479900  0.51550800  0.98214200  1
  C  560  1  0.87300700  0.51617200  0.98438500  1
  C  603  1  0.01305900  0.50375900  0.82666200  1
  C  604  1  0.17663200  0.50392400  0.01310500  1
  C  605  1  0.99116600  0.50544200  0.17703100  1
  C  606  1  0.82626400  0.50501700  0.99081900  1
  C  611  1  0.96838900  0.95684300  0.50635700  1
  C  612  1  0.95583300  0.96976300  0.50647500  1
  C  613  1  0.96424300  0.98593500  0.50590300  1
  C  615  1  0.98479100  0.96479800  0.50581700  1
  C  616  1  0.00101500  0.95574300  0.50568900  1
  C  617  1  0.01766700  0.96388400  0.50559900  1
  C  619  1  0.03865200  0.98427000  0.50575400  1
  C  620  1  0.04669900  0.96791400  0.50565900  1
  C  621  1  0.03377800  0.95536200  0.50560100  1
  C  622  1  0.04727500  0.00068300  0.50591800  1
  C  623  1  0.03869700  0.01715800  0.50591700  1
  C  625  1  0.01816200  0.03829200  0.50583300  1
  C  626  1  0.03456900  0.04624800  0.50623800  1
  C  627  1  0.04712100  0.03332800  0.50632700  1
  C  628  1  0.00193800  0.04734200  0.50570400  1
  C  629  1  0.98528700  0.03920100  0.50560300  1
  C  631  1  0.96428900  0.01882100  0.50571100  1
  C  632  1  0.95625900  0.03518600  0.50548000  1
  C  633  1  0.96918300  0.04773200  0.50546800  1
  C  634  1  0.95565000  0.00241000  0.50588700  1
  C  635  1  0.93702200  0.00254900  0.50619500  1
  C  636  1  0.92793100  0.00558900  0.52193400  1
  C  637  1  0.90958100  0.00637700  0.52210600  1
  C  638  1  0.89975700  0.00399000  0.50662800  1
  C  639  1  0.90899100  0.00067000  0.49096100  1
  C  640  1  0.92735300  0.00002600  0.49071300  1
  C  641  1  0.88116500  0.00563700  0.50665400  1
  C  642  1  0.87036700  0.99356200  0.49775200  1
  C  643  1  0.85211200  0.99572800  0.49719100  1
  C  644  1  0.84405300  0.01015700  0.50541600  1
  C  645  1  0.85479100  0.02219200  0.51437600  1
  C  646  1  0.87299500  0.01989900  0.51508900  1
  C  647  1  0.00237100  0.06594500  0.50621600  1
  C  648  1  0.00309800  0.07475600  0.52236700  1
  C  649  1  0.00368900  0.09309500  0.52294900  1
  C  650  1  0.00358400  0.10322800  0.50746700  1
  C  651  1  0.00271800  0.09422200  0.49133500  1
  C  652  1  0.00217100  0.07585800  0.49068800  1
  C  653  1  0.00421300  0.12190700  0.50821900  1
  C  654  1  0.01535100  0.13056900  0.52016400  1
  C  655  1  0.01529900  0.14886200  0.52171900  1
  C  656  1  0.00425500  0.15921400  0.51119100  1
  C  657  1  0.99336100  0.15072000  0.49895900  1
  C  658  1  0.99337000  0.13238400  0.49750500  1
  C  659  1  0.06588900  0.00056000  0.50627300  1
  C  660  1  0.07559200  0.00218800  0.49069600  1
  C  661  1  0.09395500  0.00169000  0.49105100  1
  C  662  1  0.10315300  0.99943900  0.50693100  1
  C  663  1  0.09327600  0.99795500  0.52249300  1
  C  664  1  0.07492200  0.99856200  0.52220300  1
  C  665  1  0.12176500  0.99799700  0.50715100  1
  C  666  1  0.13005000  0.98455400  0.51673400  1
  C  667  1  0.14828600  0.98248000  0.51636900  1
  C  668  1  0.15896600  0.99389700  0.50655900  1
  C  669  1  0.15077200  0.00751000  0.49714800  1
  C  670  1  0.13248700  0.00946400  0.49739400  1
  C  671  1  0.00059800  0.93713700  0.50624100  1
  C  672  1  0.00096600  0.92718600  0.49073900  1
  C  673  1  0.99982300  0.92835900  0.52240900  1
  C  674  1  0.99932700  0.91001800  0.52303000  1
  C  675  1  0.99959800  0.89985000  0.50757400  1
  C  676  1  0.00051600  0.90881900  0.49142500  1
  C  677  1  0.99902300  0.88117500  0.50836800  1
  C  678  1  0.01002700  0.87068700  0.49783600  1
  C  679  1  0.01003400  0.85235100  0.49933700  1
  C  680  1  0.99895800  0.84384200  0.51140900  1
  C  681  1  0.98773400  0.85424200  0.52171800  1
  C  682  1  0.98771200  0.87253200  0.52015400  1
  C  725  1  0.82630200  0.01341100  0.50388000  1
  C  726  1  0.00333900  0.17705600  0.51403200  1
  C  727  1  0.17681300  0.99082700  0.50558900  1
  C  728  1  0.99968400  0.82595900  0.51426400  1
  C  733  1  0.00248700  0.50290500  0.20573900  1
  C  734  1  0.01597700  0.51027000  0.21585200  1
  C  736  1  0.00240800  0.50138700  0.24255400  1
  C  737  1  0.98860600  0.49338000  0.23309500  1
  C  738  1  0.98887500  0.49419400  0.21467600  1
  C  740  1  0.00242000  0.50090900  0.26100700  1
  C  741  1  0.01604800  0.50846400  0.28805200  1
  C  742  1  0.00279500  0.50015100  0.29783700  1
  C  743  1  0.98895600  0.49232600  0.28855400  1
  C  746  1  0.98863400  0.49245300  0.27010600  1
  C  747  1  0.97504300  0.48447000  0.26057600  1
  C  748  1  0.97504200  0.48491000  0.24223400  1
  C  755  1  0.00217100  0.50339700  0.79777000  1
  C  756  1  0.99144000  0.51403800  0.78728200  1
  C  758  1  0.00316200  0.50191800  0.76098700  1
  C  759  1  0.01401500  0.49054600  0.77083300  1
  C  760  1  0.01334800  0.49142900  0.78924000  1
  C  762  1  0.00368100  0.50147500  0.74254100  1
  C  763  1  0.99369800  0.51257700  0.71513300  1
  C  764  1  0.00470700  0.50114300  0.70572800  1
  C  765  1  0.01512800  0.48943300  0.71538400  1
  C  768  1  0.01491500  0.48954600  0.73383300  1
  C  769  1  0.02553500  0.47821900  0.74374000  1
  C  770  1  0.02512000  0.47874300  0.76207600  1
  C  777  1  0.20546000  0.00223700  0.50294800  1
  C  778  1  0.21553400  0.01574400  0.51033300  1
  C  780  1  0.24226600  0.00225900  0.50141700  1
  C  781  1  0.23284400  0.98844000  0.49339800  1
  C  782  1  0.21442700  0.98865700  0.49422000  1
  C  784  1  0.26071700  0.00232400  0.50092700  1
  C  785  1  0.28772400  0.01602000  0.50848600  1
  C  786  1  0.29753800  0.00280000  0.50015600  1
  C  787  1  0.28829400  0.98894400  0.49231500  1
  C  790  1  0.26984900  0.98857200  0.49244900  1
  C  791  1  0.26035600  0.97496600  0.48445200  1
  C  792  1  0.24201500  0.97491400  0.48490100  1
  C  799  1  0.79745900  0.00241800  0.50344600  1
  C  800  1  0.78700200  0.99167600  0.51410600  1
  C  802  1  0.76067000  0.00331500  0.50197400  1
  C  803  1  0.77049000  0.01417400  0.49058400  1
  C  804  1  0.78889900  0.01355400  0.49146400  1
  C  806  1  0.74222200  0.00378800  0.50152700  1
  C  807  1  0.71482800  0.99376400  0.51264100  1
  C  808  1  0.70540100  0.00472900  0.50118200  1
  C  809  1  0.71503900  0.01514800  0.48945500  1
  C  812  1  0.73348800  0.01497800  0.48957500  1
  C  813  1  0.74337100  0.02560100  0.47823000  1
  C  814  1  0.76170800  0.02523500  0.47876000  1
  C  821  1  0.50292200  0.20543400  0.00247000  1
  C  822  1  0.51029500  0.21554500  0.01595600  1
  C  824  1  0.50138000  0.24224200  0.00240400  1
  C  825  1  0.49336400  0.23278500  0.98860700  1
  C  826  1  0.49419000  0.21436800  0.98886800  1
  C  828  1  0.50089300  0.26069400  0.00242400  1
  C  829  1  0.50845200  0.28773100  0.01605900  1
  C  830  1  0.50011800  0.29751700  0.00282000  1
  C  831  1  0.49228200  0.28824100  0.98898200  1
  C  834  1  0.49241800  0.26979500  0.98865000  1
  C  835  1  0.48442500  0.26026700  0.97506600  1
  C  836  1  0.48487500  0.24192600  0.97505500  1
  C  843  1  0.50341900  0.79746000  0.00217800  1
  C  844  1  0.51406300  0.78697100  0.99145200  1
  C  846  1  0.50194100  0.76067100  0.00317400  1
  C  847  1  0.49056800  0.77052100  0.01402300  1
  C  848  1  0.49145000  0.78892900  0.01335300  1
  C  850  1  0.50149700  0.74222500  0.00369400  1
  C  851  1  0.51259400  0.71480900  0.99371600  1
  C  852  1  0.50115300  0.70540600  0.00472200  1
  C  853  1  0.48944600  0.71506900  0.01514000  1
  C  856  1  0.48956400  0.73351800  0.01492500  1
  C  857  1  0.47823600  0.74343000  0.02554100  1
  C  858  1  0.47876300  0.76176600  0.02512600  1
  C  865  1  0.50304200  0.00217500  0.79750100  1
  C  866  1  0.51078400  0.01548300  0.78742900  1
  C  868  1  0.50156300  0.00223200  0.76068400  1
  C  869  1  0.49318900  0.98861900  0.77009600  1
  C  870  1  0.49399200  0.98881600  0.78851700  1
  C  872  1  0.50109400  0.00231400  0.74223100  1
  C  873  1  0.50901000  0.01583100  0.71523400  1
  C  874  1  0.50035200  0.00283600  0.70540100  1
  C  875  1  0.49216100  0.98917600  0.71463700  1
  C  878  1  0.49228100  0.98878500  0.73308400  1
  C  879  1  0.48394300  0.97537700  0.74256700  1
  C  880  1  0.48437200  0.97530800  0.76091000  1
  C  887  1  0.50351600  0.00213600  0.20549400  1
  C  888  1  0.51411700  0.99135800  0.21597200  1
  C  890  1  0.50201200  0.00308100  0.24227600  1
  C  891  1  0.49068400  0.01398500  0.23243400  1
  C  892  1  0.49157900  0.01334000  0.21402800  1
  C  894  1  0.50155100  0.00357300  0.26072100  1
  C  895  1  0.51259000  0.99351200  0.28812700  1
  C  896  1  0.50117500  0.00454100  0.29753300  1
  C  897  1  0.48951000  0.01501300  0.28788100  1
  C  900  1  0.48964800  0.01483100  0.26943200  1
  C  901  1  0.47836600  0.02550300  0.25953000  1
  C  902  1  0.47890900  0.02511600  0.24119400  1
  C  909  1  0.00210900  0.20550600  0.50238000  1
  C  910  1  0.01267400  0.21565800  0.49126200  1
  C  912  1  0.00115900  0.24230600  0.50281100  1
  C  913  1  0.98986400  0.23278800  0.51403700  1
  C  914  1  0.99048900  0.21436300  0.51365700  1
  C  916  1  0.00096400  0.26076300  0.50303500  1
  C  917  1  0.01224200  0.28786500  0.49241900  1
  C  918  1  0.00108100  0.29758000  0.50343300  1
  C  919  1  0.98941600  0.28825600  0.51419600  1
  C  922  1  0.98932600  0.26980700  0.51431100  1
  C  923  1  0.97807200  0.26022300  0.52529900  1
  C  924  1  0.97837700  0.24187800  0.52520400  1
  C  931  1  0.00307200  0.79748400  0.50280400  1
  C  932  1  0.99582500  0.78741200  0.48922300  1
  C  934  1  0.00453900  0.76067200  0.50283800  1
  C  935  1  0.01242500  0.77010000  0.51673000  1
  C  936  1  0.01163100  0.78851900  0.51648900  1
  C  938  1  0.00501600  0.74221800  0.50279100  1
  C  939  1  0.99758900  0.71519600  0.48903900  1
  C  940  1  0.00580900  0.70537900  0.50232900  1
  C  941  1  0.01353100  0.71464300  0.51624100  1
  C  944  1  0.01336800  0.73309000  0.51662000  1
  C  945  1  0.02122800  0.74258800  0.53030200  1
  C  946  1  0.02077500  0.76092900  0.53034900  1
  C  953  1  0.20549400  0.50350700  0.00214800  1
  C  954  1  0.21596900  0.51411200  0.99137000  1
  C  956  1  0.24227700  0.50199800  0.00307900  1
  C  957  1  0.23243800  0.49066800  0.01398300  1
  C  958  1  0.21403200  0.49156300  0.01334300  1
  C  960  1  0.26072200  0.50153900  0.00356900  1
  C  961  1  0.28812700  0.51258400  0.99351000  1
  C  962  1  0.29753400  0.50117000  0.00453800  1
  C  963  1  0.28788300  0.48949900  0.01500600  1
  C  966  1  0.26943600  0.48963400  0.01482400  1
  C  967  1  0.25953500  0.47834900  0.02549400  1
  C  968  1  0.24120000  0.47889100  0.02511000  1
  C  975  1  0.79750300  0.50304200  0.00219100  1
  C  976  1  0.78742700  0.51078400  0.01549500  1
  C  978  1  0.76068500  0.50156900  0.00223200  1
  C  979  1  0.77010300  0.49319700  0.98862200  1
  C  980  1  0.78852200  0.49399700  0.98882500  1
  C  982  1  0.74223200  0.50110100  0.00230900  1
  C  983  1  0.71523400  0.50901200  0.01582300  1
  C  984  1  0.70540300  0.50035400  0.00282500  1
  C  985  1  0.71464300  0.49216500  0.98916700  1
  C  988  1  0.73308900  0.49228800  0.98877800  1
  C  989  1  0.74257600  0.48395000  0.97537300  1
  C  990  1  0.76091900  0.48438000  0.97530800  1
  C  997  1  0.10971000  0.57266700  0.56154700  1
  C  998  1  0.10967400  0.56012900  0.57448400  1
  C  999  1  0.10961600  0.56857600  0.59064600  1
  C  1001  1  0.10969900  0.58908900  0.56948300  1
  C  1002  1  0.10994900  0.60530100  0.56041200  1
  C  1003  1  0.11017500  0.62196000  0.56853600  1
  C  1005  1  0.11058900  0.64296900  0.58889700  1
  C  1006  1  0.11067500  0.65099000  0.57252600  1
  C  1007  1  0.11046800  0.63805500  0.55999000  1
  C  1008  1  0.11072400  0.65161400  0.60530100  1
  C  1009  1  0.11057200  0.64304000  0.62178200  1
  C  1011  1  0.11052500  0.62251600  0.64295400  1
  C  1012  1  0.11030400  0.63894500  0.65087700  1
  C  1013  1  0.11042600  0.65148400  0.63794400  1
  C  1014  1  0.11059200  0.60630100  0.65204500  1
  C  1015  1  0.11044600  0.58964300  0.64390800  1
  C  1017  1  0.11007600  0.56865200  0.62353200  1
  C  1018  1  0.11058300  0.56060900  0.63988100  1
  C  1019  1  0.11085400  0.57353200  0.65242300  1
  C  1020  1  0.10983000  0.56001700  0.60713100  1
  C  1021  1  0.11038000  0.54140900  0.60727500  1
  C  1022  1  0.12655300  0.53261300  0.60760100  1
  C  1023  1  0.12716800  0.51426800  0.60796800  1
  C  1024  1  0.11169900  0.50411200  0.60804600  1
  C  1025  1  0.09554420  0.51310900  0.60757100  1
  C  1026  1  0.09486520  0.53147700  0.60723700  1
  C  1027  1  0.11247800  0.48542500  0.60852900  1
  C  1028  1  0.10147700  0.47500200  0.59792400  1
  C  1029  1  0.10286400  0.45666100  0.59785000  1
  C  1030  1  0.11531800  0.44810500  0.60843700  1
  C  1031  1  0.12615200  0.45839900  0.61923500  1
  C  1032  1  0.12466500  0.47669700  0.61935300  1
  C  1033  1  0.11080300  0.60674400  0.67067200  1
  C  1034  1  0.12646500  0.61005700  0.67979900  1
  C  1035  1  0.12656100  0.61095700  0.69814600  1
  C  1036  1  0.11108400  0.60838800  0.70792600  1
  C  1037  1  0.09549020  0.60482900  0.69866000  1
  C  1038  1  0.09531520  0.60409500  0.68030300  1
  C  1039  1  0.11105200  0.60999300  0.72651600  1
  C  1040  1  0.11921300  0.62438200  0.73473700  1
  C  1041  1  0.11851100  0.62655700  0.75295600  1
  C  1042  1  0.10982800  0.61428100  0.76365000  1
  C  1043  1  0.10185800  0.59974200  0.75553000  1
  C  1044  1  0.10239900  0.59769600  0.73726200  1
  C  1045  1  0.11108800  0.67023700  0.60514300  1
  C  1046  1  0.09553420  0.67997500  0.60682700  1
  C  1047  1  0.09590020  0.69833700  0.60618400  1
  C  1048  1  0.11175900  0.70749900  0.60366000  1
  C  1049  1  0.12729600  0.69759600  0.60210500  1
  C  1050  1  0.12700000  0.67924900  0.60290000  1
  C  1051  1  0.11198600  0.72609600  0.60203800  1
  C  1052  1  0.12131300  0.73423700  0.58832700  1
  C  1053  1  0.12100000  0.75246300  0.58613100  1
  C  1054  1  0.11152600  0.76326900  0.59770600  1
  C  1055  1  0.10235400  0.75522300  0.61156800  1
  C  1056  1  0.10252700  0.73694700  0.61363300  1
  C  1057  1  0.11063400  0.60484600  0.54181200  1
  C  1058  1  0.09521320  0.60498700  0.53173100  1
  C  1059  1  0.12688200  0.60422900  0.53317000  1
  C  1060  1  0.12766400  0.60367200  0.51483800  1
  C  1061  1  0.11229400  0.60370300  0.50453500  1
  C  1062  1  0.09606020  0.60446500  0.51337200  1
  C  1063  1  0.11325800  0.60303000  0.48586400  1
  C  1064  1  0.10256400  0.61372000  0.47521300  1
  C  1065  1  0.10417500  0.61359900  0.45688700  1
  C  1066  1  0.11655700  0.60273300  0.44856000  1
  C  1067  1  0.12705400  0.59183400  0.45910500  1
  C  1068  1  0.12535400  0.59191800  0.47738300  1
  C  1111  1  0.11789300  0.43022000  0.60761500  1
  C  1112  1  0.10848300  0.61727400  0.78146500  1
  C  1113  1  0.11073300  0.78112500  0.59466700  1
  C  1114  1  0.11938200  0.60327700  0.43067800  1
  C  1119  1  0.56117300  0.11046900  0.57268900  1
  C  1120  1  0.57410000  0.11065700  0.56014600  1
  C  1121  1  0.59027000  0.11019300  0.56856900  1
  C  1123  1  0.56911900  0.10996800  0.58909800  1
  C  1124  1  0.56004800  0.10990600  0.60531200  1
  C  1125  1  0.56816500  0.10985000  0.62197300  1
  C  1127  1  0.58852400  0.11001100  0.64297100  1
  C  1128  1  0.57216500  0.11024100  0.65100500  1
  C  1129  1  0.55962500  0.11014100  0.63807400  1
  C  1130  1  0.60492900  0.11009800  0.65159800  1
  C  1131  1  0.62140900  0.11007200  0.64302400  1
  C  1133  1  0.64258300  0.11030900  0.62251300  1
  C  1134  1  0.65050100  0.10979500  0.63893900  1
  C  1135  1  0.63756300  0.10971200  0.65147300  1
  C  1136  1  0.65167700  0.11057000  0.60630300  1
  C  1137  1  0.64353200  0.11061900  0.58964700  1
  C  1139  1  0.62315400  0.11051700  0.56864000  1
  C  1140  1  0.63952100  0.11072400  0.56061500  1
  C  1141  1  0.65205900  0.11089500  0.57354100  1
  C  1142  1  0.60674900  0.11042100  0.55998800  1
  C  1143  1  0.60689100  0.11067800  0.54135800  1
  C  1144  1  0.60994700  0.12637700  0.53220200  1
  C  1145  1  0.61074300  0.12647300  0.51385200  1
  C  1146  1  0.60831600  0.11095800  0.50409800  1
  C  1147  1  0.60496400  0.09533320  0.51338800  1
  C  1148  1  0.60433800  0.09516120  0.53174900  1
  C  1149  1  0.60992500  0.11090900  0.48551000  1
  C  1150  1  0.59770400  0.10213400  0.47477600  1
  C  1151  1  0.59977300  0.10156300  0.45651300  1
  C  1152  1  0.61425800  0.10962300  0.44838900  1
  C  1153  1  0.62645500  0.11843300  0.45907000  1
  C  1154  1  0.62425400  0.11916900  0.47728400  1
  C  1155  1  0.67030600  0.11075500  0.60675400  1
  C  1156  1  0.67943600  0.12639300  0.61016800  1
  C  1157  1  0.69778400  0.12648500  0.61106800  1
  C  1158  1  0.70756700  0.11102400  0.60841500  1
  C  1159  1  0.69830000  0.09545520  0.60475100  1
  C  1160  1  0.67994000  0.09528120  0.60402400  1
  C  1161  1  0.72616100  0.11098900  0.61002400  1
  C  1162  1  0.73437900  0.11910700  0.62443900  1
  C  1163  1  0.75259800  0.11839800  0.62661900  1
  C  1164  1  0.76330300  0.10977900  0.61430800  1
  C  1165  1  0.75518800  0.10186200  0.59973800  1
  C  1166  1  0.73691800  0.10239700  0.59769300  1
  C  1167  1  0.60478800  0.11077700  0.67020200  1
  C  1168  1  0.60393700  0.09537620  0.68028100  1
  C  1169  1  0.60358200  0.09624920  0.69864300  1
  C  1170  1  0.60397100  0.11249400  0.70748100  1
  C  1171  1  0.60495900  0.12783500  0.69718300  1
  C  1172  1  0.60534900  0.12702400  0.67884800  1
  C  1173  1  0.60338100  0.11350100  0.72615100  1
  C  1174  1  0.59308700  0.12629800  0.73463200  1
  C  1175  1  0.59310100  0.12798300  0.75291100  1
  C  1176  1  0.60328300  0.11678900  0.76345800  1
  C  1177  1  0.61330800  0.10371800  0.75512500  1
  C  1178  1  0.61333300  0.10211500  0.73679700  1
  C  1179  1  0.54145300  0.11064100  0.60487300  1
  C  1180  1  0.53135400  0.09523320  0.60494300  1
  C  1181  1  0.53283900  0.12690600  0.60433200  1
  C  1182  1  0.51450800  0.12771700  0.60378200  1
  C  1183  1  0.50418900  0.11235900  0.60373600  1
  C  1184  1  0.51299800  0.09610920  0.60441700  1
  C  1185  1  0.48552400  0.11334700  0.60306300  1
  C  1186  1  0.47486800  0.10263300  0.61372500  1
  C  1187  1  0.45654500  0.10425500  0.61359800  1
  C  1188  1  0.44823000  0.11665700  0.60274700  1
  C  1189  1  0.45878200  0.12718000  0.59188100  1
  C  1190  1  0.47706000  0.12547700  0.59197700  1
  C  1233  1  0.61727700  0.10825900  0.43058300  1
  C  1234  1  0.78112200  0.10845000  0.61730000  1
  C  1235  1  0.60395500  0.11954100  0.78135300  1
  C  1236  1  0.43034600  0.11945600  0.60326100  1
  C  1241  1  0.57269100  0.56117400  0.11047300  1
  C  1242  1  0.56014800  0.57410100  0.11065900  1
  C  1243  1  0.56857100  0.59027100  0.11019800  1
  C  1245  1  0.58909900  0.56911900  0.10996500  1
  C  1246  1  0.60531200  0.56004500  0.10988500  1
  C  1247  1  0.62197400  0.56816300  0.10983100  1
  C  1249  1  0.64297200  0.58852100  0.11000100  1
  C  1250  1  0.65100600  0.57216200  0.11023700  1
  C  1251  1  0.63807400  0.55962200  0.11011800  1
  C  1252  1  0.65160000  0.60492600  0.11008900  1
  C  1253  1  0.64302700  0.62140600  0.11006100  1
  C  1255  1  0.62251700  0.64258300  0.11030700  1
  C  1256  1  0.63894100  0.65050000  0.10978300  1
  C  1257  1  0.65147600  0.63756100  0.10968700  1
  C  1258  1  0.60630800  0.65167700  0.11057900  1
  C  1259  1  0.58965100  0.64353300  0.11062900  1
  C  1261  1  0.56864400  0.62315500  0.11052300  1
  C  1262  1  0.56061900  0.63952300  0.11073500  1
  C  1263  1  0.57354700  0.65206000  0.11090800  1
  C  1264  1  0.55999200  0.60675000  0.11042400  1
  C  1265  1  0.54136100  0.60689400  0.11068100  1
  C  1266  1  0.53220500  0.60994700  0.12638000  1
  C  1267  1  0.51385400  0.61074400  0.12647500  1
  C  1268  1  0.50410200  0.60832100  0.11095900  1
  C  1269  1  0.51339200  0.60497300  0.09533320  1
  C  1270  1  0.53175400  0.60434700  0.09516120  1
  C  1271  1  0.48551300  0.60992200  0.11091300  1
  C  1272  1  0.47478300  0.59770500  0.10213000  1
  C  1273  1  0.45651900  0.59977200  0.10155800  1
  C  1274  1  0.44839100  0.61425100  0.10962700  1
  C  1275  1  0.45907000  0.62645100  0.11843300  1
  C  1276  1  0.47728300  0.62425000  0.11917300  1
  C  1277  1  0.60676100  0.67030600  0.11076700  1
  C  1278  1  0.61017600  0.67943500  0.12640700  1
  C  1279  1  0.61107700  0.69778200  0.12650100  1
  C  1280  1  0.60841700  0.70756800  0.11104400  1
  C  1281  1  0.60475900  0.69830300  0.09547220  1
  C  1282  1  0.60403000  0.67994400  0.09529620  1
  C  1283  1  0.61001900  0.72616200  0.11101200  1
  C  1284  1  0.62443000  0.73438700  0.11913000  1
  C  1285  1  0.62659500  0.75260800  0.11843600  1
  C  1286  1  0.61427900  0.76330900  0.10981700  1
  C  1287  1  0.59970800  0.75518800  0.10190500  1
  C  1288  1  0.59767900  0.73691600  0.10242500  1
  C  1289  1  0.67020300  0.60478500  0.11077100  1
  C  1290  1  0.68028200  0.60393200  0.09537020  1
  C  1291  1  0.69864400  0.60357300  0.09624320  1
  C  1292  1  0.70748200  0.60396700  0.11248800  1
  C  1293  1  0.69718400  0.60495700  0.12782800  1
  C  1294  1  0.67884900  0.60534800  0.12701800  1
  C  1295  1  0.72615200  0.60337700  0.11349300  1
  C  1296  1  0.73463500  0.59308600  0.12629100  1
  C  1297  1  0.75291300  0.59309700  0.12797100  1
  C  1298  1  0.76346100  0.60327700  0.11677400  1
  C  1299  1  0.75512300  0.61331500  0.10371700  1
  C  1300  1  0.73679600  0.61333200  0.10210800  1
  C  1301  1  0.60487300  0.54145100  0.11061900  1
  C  1302  1  0.60494700  0.53135300  0.09521120  1
  C  1303  1  0.60432800  0.53283400  0.12688300  1
  C  1304  1  0.60376900  0.51450300  0.12769100  1
  C  1305  1  0.60373200  0.50418500  0.11233100  1
  C  1306  1  0.60443000  0.51299600  0.09608220  1
  C  1307  1  0.60305100  0.48551900  0.11331700  1
  C  1308  1  0.61370500  0.47485600  0.10260300  1
  C  1309  1  0.61357600  0.45653300  0.10423300  1
  C  1310  1  0.60270600  0.44822400  0.11662200  1
  C  1311  1  0.59184100  0.45878400  0.12713900  1
  C  1312  1  0.59195000  0.47706100  0.12543900  1
  C  1355  1  0.43058600  0.61727000  0.10825300  1
  C  1356  1  0.61726700  0.78112800  0.10847600  1
  C  1357  1  0.78135400  0.60395700  0.11952800  1
  C  1358  1  0.60320900  0.43033900  0.11942900  1
  C  1363  1  0.61139900  0.07324720  0.06086820  1
  C  1364  1  0.61147300  0.06055020  0.07364520  1
  C  1365  1  0.61149200  0.06879120  0.08991320  1
  C  1367  1  0.61151300  0.08957620  0.06899720  1
  C  1368  1  0.61158300  0.10590200  0.06011020  1
  C  1369  1  0.61163000  0.12246000  0.06844420  1
  C  1371  1  0.61169600  0.14320900  0.08907020  1
  C  1372  1  0.61185900  0.15144100  0.07280620  1
  C  1373  1  0.61188400  0.13866700  0.06011020  1
  C  1374  1  0.61161700  0.15164800  0.10557900  1
  C  1375  1  0.61147000  0.14288100  0.12195500  1
  C  1377  1  0.61151200  0.12211000  0.14287100  1
  C  1378  1  0.61117100  0.13844000  0.15099300  1
  C  1379  1  0.61123000  0.15113300  0.13821400  1
  C  1380  1  0.61161300  0.10578700  0.15175900  1
  C  1381  1  0.61164200  0.08922920  0.14342300  1
  C  1383  1  0.61165300  0.06846920  0.12279800  1
  C  1384  1  0.61170200  0.06025020  0.13907100  1
  C  1385  1  0.61179000  0.07302720  0.15176300  1
  C  1386  1  0.61159700  0.06001320  0.10628900  1
  C  1387  1  0.61169600  0.04138120  0.10623400  1
  C  1388  1  0.62735500  0.03209120  0.10907700  1
  C  1389  1  0.62730600  0.01373920  0.10986300  1
  C  1390  1  0.61167600  0.00411617  0.10766500  1
  C  1391  1  0.59609100  0.01354120  0.10449900  1
  C  1392  1  0.59606600  0.03190520  0.10387800  1
  C  1393  1  0.61148000  0.98553700  0.10940000  1
  C  1394  1  0.60240900  0.97478500  0.09741220  1
  C  1395  1  0.60166100  0.95654500  0.09966620  1
  C  1396  1  0.60983500  0.94847200  0.11411600  1
  C  1397  1  0.61893800  0.95916800  0.12608000  1
  C  1398  1  0.61984300  0.97734900  0.12369300  1
  C  1399  1  0.61170100  0.10602500  0.17038700  1
  C  1400  1  0.62733800  0.10911300  0.17963300  1
  C  1401  1  0.62730600  0.11000600  0.19797800  1
  C  1402  1  0.61171700  0.10768200  0.20763800  1
  C  1403  1  0.59614800  0.10431600  0.19825400  1
  C  1404  1  0.59610500  0.10357900  0.17989500  1
  C  1405  1  0.61154200  0.10943900  0.22621300  1
  C  1406  1  0.61983200  0.12378700  0.23437700  1
  C  1407  1  0.61895300  0.12616700  0.25256000  1
  C  1408  1  0.60996700  0.11413700  0.26328000  1
  C  1409  1  0.60187500  0.09962920  0.25522600  1
  C  1410  1  0.60258900  0.09738220  0.23698700  1
  C  1411  1  0.61175600  0.17026700  0.10565200  1
  C  1412  1  0.59604900  0.17978400  0.10714600  1
  C  1413  1  0.59618600  0.19815200  0.10665500  1
  C  1414  1  0.61197400  0.20753500  0.10452700  1
  C  1415  1  0.62766700  0.19784900  0.10319800  1
  C  1416  1  0.62759400  0.17949400  0.10381000  1
  C  1417  1  0.61198100  0.22613800  0.10299800  1
  C  1418  1  0.62149500  0.23445200  0.08952420  1
  C  1419  1  0.62092200  0.25266900  0.08734020  1
  C  1420  1  0.61099200  0.26330300  0.09869520  1
  C  1421  1  0.60163800  0.25508400  0.11233000  1
  C  1422  1  0.60207600  0.23681100  0.11438400  1
  C  1423  1  0.61172300  0.10568200  0.04148320  1
  C  1424  1  0.59612500  0.10795500  0.03193420  1
  C  1425  1  0.62743800  0.10290600  0.03227320  1
  C  1426  1  0.62748100  0.10213700  0.01392320  1
  C  1427  1  0.61189000  0.10427200  0.00421517  1
  C  1428  1  0.59624300  0.10734000  0.01357120  1
  C  1429  1  0.61182700  0.10266000  0.98561600  1
  C  1430  1  0.60261100  0.11455400  0.97488100  1
  C  1431  1  0.60210600  0.11247300  0.95661300  1
  C  1432  1  0.61068800  0.09830220  0.94845400  1
  C  1433  1  0.61992500  0.08643420  0.95915600  1
  C  1434  1  0.62058100  0.08864120  0.97736800  1
  C  1477  1  0.60815200  0.93075100  0.11744300  1
  C  1478  1  0.60829900  0.11744900  0.28100400  1
  C  1479  1  0.60985800  0.28112100  0.09553220  1
  C  1480  1  0.60945100  0.09516220  0.93063200  1
  C  1485  1  0.06086320  0.61136600  0.07353220  1
  C  1486  1  0.07363920  0.61144500  0.06083320  1
  C  1487  1  0.08990520  0.61149000  0.06907420  1
  C  1489  1  0.06899220  0.61151300  0.08986020  1
  C  1490  1  0.06010620  0.61160200  0.10618600  1
  C  1491  1  0.06844120  0.61164900  0.12274300  1
  C  1493  1  0.08907020  0.61169700  0.14349200  1
  C  1494  1  0.07280620  0.61186900  0.15172400  1
  C  1495  1  0.06010920  0.61190400  0.13895000  1
  C  1496  1  0.10558100  0.61160700  0.15193000  1
  C  1497  1  0.12195500  0.61145700  0.14316100  1
  C  1499  1  0.14286900  0.61149600  0.12238600  1
  C  1500  1  0.15099400  0.61115500  0.13871400  1
  C  1501  1  0.13821600  0.61121000  0.15140900  1
  C  1502  1  0.15175500  0.61160800  0.10606200  1
  C  1503  1  0.14341700  0.61165300  0.08950620  1
  C  1505  1  0.12279100  0.61168000  0.06874820  1
  C  1506  1  0.13906300  0.61174000  0.06052620  1
  C  1507  1  0.15175600  0.61182000  0.07330220  1
  C  1508  1  0.10628100  0.61161600  0.06029620  1
  C  1509  1  0.10622400  0.61171100  0.04166620  1
  C  1510  1  0.10904400  0.62737200  0.03237220  1
  C  1511  1  0.10983400  0.62731900  0.01402220  1
  C  1512  1  0.10766400  0.61168000  0.00440517  1
  C  1513  1  0.10451100  0.59609500  0.01383220  1
  C  1514  1  0.10390400  0.59607300  0.03219620  1
  C  1515  1  0.10940400  0.61148000  0.98582900  1
  C  1516  1  0.09742320  0.60239600  0.97508100  1
  C  1517  1  0.09968020  0.60164200  0.95684400  1
  C  1518  1  0.11411800  0.60983500  0.94876800  1
  C  1519  1  0.12607900  0.61894400  0.95946200  1
  C  1520  1  0.12368200  0.61986800  0.97764100  1
  C  1521  1  0.17038300  0.61169600  0.10629300  1
  C  1522  1  0.17962900  0.62733700  0.10935700  1
  C  1523  1  0.19797600  0.62731000  0.11021700  1
  C  1524  1  0.20763600  0.61172300  0.10787100  1
  C  1525  1  0.19825000  0.59615200  0.10452600  1
  C  1526  1  0.17989000  0.59610300  0.10382800  1
  C  1527  1  0.22621500  0.61155900  0.10958200  1
  C  1528  1  0.23440700  0.61984800  0.12391400  1
  C  1529  1  0.25259400  0.61897300  0.12625900  1
  C  1530  1  0.26329200  0.60998200  0.11421100  1
  C  1531  1  0.25520900  0.60188000  0.09972420  1
  C  1532  1  0.23696700  0.60260100  0.09750920  1
  C  1533  1  0.10565600  0.61174100  0.17055200  1
  C  1534  1  0.10717300  0.59603500  0.18006600  1
  C  1535  1  0.10670600  0.59616900  0.19843500  1
  C  1536  1  0.10454300  0.61195000  0.20782300  1
  C  1537  1  0.10318900  0.62764400  0.19813900  1
  C  1538  1  0.10379400  0.62757500  0.17978400  1
  C  1539  1  0.10301000  0.61194900  0.22642800  1
  C  1540  1  0.08952720  0.62145000  0.23474500  1
  C  1541  1  0.08735220  0.62088500  0.25296400  1
  C  1542  1  0.09871020  0.61095800  0.26359800  1
  C  1543  1  0.11235100  0.60161300  0.25537500  1
  C  1544  1  0.11440600  0.60205700  0.23710200  1
  C  1545  1  0.04147920  0.61173900  0.10596200  1
  C  1546  1  0.03193120  0.59613900  0.10822200  1
  C  1547  1  0.03227120  0.62744800  0.10315300  1
  C  1548  1  0.01392220  0.62748500  0.10234600  1
  C  1549  1  0.00421517  0.61189100  0.10446500  1
  C  1550  1  0.01356920  0.59625000  0.10756200  1
  C  1551  1  0.98562000  0.61182100  0.10281400  1
  C  1552  1  0.97486600  0.60260500  0.11469100  1
  C  1553  1  0.95660100  0.60208800  0.11257300  1
  C  1554  1  0.94846700  0.61066000  0.09838220  1
  C  1555  1  0.95918800  0.61989700  0.08653120  1
  C  1556  1  0.97739600  0.62056100  0.08877420  1
  C  1599  1  0.11744800  0.60814800  0.93105100  1
  C  1600  1  0.28102100  0.60831300  0.11749400  1
  C  1601  1  0.09555520  0.60983100  0.28142000  1
  C  1602  1  0.93065300  0.60940600  0.09520820  1
  C  1607  1  0.07277820  0.06123220  0.61074600  1
  C  1608  1  0.06022220  0.07415220  0.61086400  1
  C  1609  1  0.06863220  0.09032420  0.61029200  1
  C  1611  1  0.08918020  0.06918720  0.61020600  1
  C  1612  1  0.10540400  0.06013220  0.61007800  1
  C  1613  1  0.12205600  0.06827320  0.60998800  1
  C  1615  1  0.14304100  0.08865920  0.61014300  1
  C  1616  1  0.15108800  0.07230320  0.61004800  1
  C  1617  1  0.13816700  0.05975120  0.60999000  1
  C  1618  1  0.15166400  0.10507200  0.61030700  1
  C  1619  1  0.14308600  0.12154700  0.61030600  1
  C  1621  1  0.12255100  0.14268100  0.61022200  1
  C  1622  1  0.13895800  0.15063700  0.61062700  1
  C  1623  1  0.15151000  0.13771700  0.61071600  1
  C  1624  1  0.10632700  0.15173100  0.61009300  1
  C  1625  1  0.08967620  0.14359000  0.60999200  1
  C  1627  1  0.06867820  0.12321000  0.61010000  1
  C  1628  1  0.06064820  0.13957500  0.60986900  1
  C  1629  1  0.07357220  0.15212100  0.60985700  1
  C  1630  1  0.06003920  0.10679900  0.61027600  1
  C  1631  1  0.04141120  0.10693800  0.61058400  1
  C  1632  1  0.03232020  0.10997800  0.62632300  1
  C  1633  1  0.01397020  0.11076600  0.62649500  1
  C  1634  1  0.00414617  0.10837900  0.61101700  1
  C  1635  1  0.01338020  0.10505900  0.59535000  1
  C  1636  1  0.03174220  0.10441500  0.59510200  1
  C  1637  1  0.98555400  0.11002600  0.61104300  1
  C  1638  1  0.97475600  0.09795120  0.60214100  1
  C  1639  1  0.95650100  0.10011700  0.60158000  1
  C  1640  1  0.94844200  0.11454600  0.60980500  1
  C  1641  1  0.95918000  0.12658100  0.61876500  1
  C  1642  1  0.97738400  0.12428800  0.61947800  1
  C  1643  1  0.10676000  0.17033400  0.61060500  1
  C  1644  1  0.10748700  0.17914500  0.62675600  1
  C  1645  1  0.10807800  0.19748400  0.62733800  1
  C  1646  1  0.10797300  0.20761700  0.61185600  1
  C  1647  1  0.10710700  0.19861100  0.59572400  1
  C  1648  1  0.10656000  0.18024700  0.59507700  1
  C  1649  1  0.10860200  0.22629600  0.61260800  1
  C  1650  1  0.11974000  0.23495800  0.62455300  1
  C  1651  1  0.11968800  0.25325100  0.62610800  1
  C  1652  1  0.10864400  0.26360300  0.61558000  1
  C  1653  1  0.09775020  0.25510900  0.60334800  1
  C  1654  1  0.09775920  0.23677300  0.60189400  1
  C  1655  1  0.17027800  0.10494900  0.61066200  1
  C  1656  1  0.17998100  0.10657700  0.59508500  1
  C  1657  1  0.19834400  0.10607900  0.59544000  1
  C  1658  1  0.20754200  0.10382800  0.61132000  1
  C  1659  1  0.19766500  0.10234400  0.62688200  1
  C  1660  1  0.17931100  0.10295100  0.62659200  1
  C  1661  1  0.22615400  0.10238600  0.61154000  1
  C  1662  1  0.23443900  0.08894320  0.62112300  1
  C  1663  1  0.25267500  0.08686920  0.62075800  1
  C  1664  1  0.26335500  0.09828620  0.61094800  1
  C  1665  1  0.25516100  0.11189900  0.60153700  1
  C  1666  1  0.23687600  0.11385300  0.60178300  1
  C  1667  1  0.10498700  0.04152620  0.61063000  1
  C  1668  1  0.10535500  0.03157520  0.59512800  1
  C  1669  1  0.10421200  0.03274820  0.62679800  1
  C  1670  1  0.10371600  0.01440720  0.62741900  1
  C  1671  1  0.10398700  0.00423917  0.61196300  1
  C  1672  1  0.10490500  0.01320820  0.59581400  1
  C  1673  1  0.10341200  0.98556400  0.61275700  1
  C  1674  1  0.11441600  0.97507600  0.60222500  1
  C  1675  1  0.11442300  0.95674000  0.60372600  1
  C  1676  1  0.10334700  0.94823100  0.61579800  1
  C  1677  1  0.09212320  0.95863100  0.62610700  1
  C  1678  1  0.09210120  0.97692100  0.62454300  1
  C  1721  1  0.93069100  0.11780000  0.60826900  1
  C  1722  1  0.10772800  0.28144500  0.61842100  1
  C  1723  1  0.28120200  0.09521620  0.60997800  1
  C  1724  1  0.10407300  0.93034800  0.61865300  1
  C  1729  1  0.10687600  0.60729400  0.31012800  1
  C  1730  1  0.12036600  0.61465900  0.32024100  1
  C  1732  1  0.10679700  0.60577600  0.34694300  1
  C  1733  1  0.09299520  0.59776900  0.33748400  1
  C  1734  1  0.09326420  0.59858300  0.31906500  1
  C  1736  1  0.10680900  0.60529800  0.36539600  1
  C  1737  1  0.12043700  0.61285300  0.39244100  1
  C  1738  1  0.10718400  0.60454000  0.40222600  1
  C  1739  1  0.09334520  0.59671500  0.39294300  1
  C  1742  1  0.09302320  0.59684200  0.37449500  1
  C  1743  1  0.07943220  0.58885900  0.36496500  1
  C  1744  1  0.07943120  0.58929900  0.34662300  1
  C  1751  1  0.10656000  0.60778600  0.90215900  1
  C  1752  1  0.09582920  0.61842700  0.89167100  1
  C  1754  1  0.10755100  0.60630700  0.86537600  1
  C  1755  1  0.11840400  0.59493500  0.87522200  1
  C  1756  1  0.11773700  0.59581800  0.89362900  1
  C  1758  1  0.10807000  0.60586400  0.84693000  1
  C  1759  1  0.09808720  0.61696600  0.81952200  1
  C  1760  1  0.10909600  0.60553200  0.81011700  1
  C  1761  1  0.11951700  0.59382200  0.81977300  1
  C  1764  1  0.11930400  0.59393500  0.83822200  1
  C  1765  1  0.12992400  0.58260800  0.84812900  1
  C  1766  1  0.12950900  0.58313200  0.86646500  1
  C  1773  1  0.30984900  0.10662600  0.60733700  1
  C  1774  1  0.31992300  0.12013300  0.61472200  1
  C  1776  1  0.34665500  0.10664800  0.60580600  1
  C  1777  1  0.33723300  0.09282920  0.59778700  1
  C  1778  1  0.31881600  0.09304620  0.59860900  1
  C  1780  1  0.36510600  0.10671300  0.60531600  1
  C  1781  1  0.39211300  0.12040900  0.61287500  1
  C  1782  1  0.40192700  0.10718900  0.60454500  1
  C  1783  1  0.39268300  0.09333320  0.59670400  1
  C  1786  1  0.37423800  0.09296120  0.59683800  1
  C  1787  1  0.36474500  0.07935520  0.58884100  1
  C  1788  1  0.34640400  0.07930320  0.58929000  1
  C  1795  1  0.90184800  0.10680700  0.60783500  1
  C  1796  1  0.89139100  0.09606520  0.61849500  1
  C  1798  1  0.86505900  0.10770400  0.60636300  1
  C  1799  1  0.87487900  0.11856300  0.59497300  1
  C  1800  1  0.89328800  0.11794300  0.59585300  1
  C  1802  1  0.84661100  0.10817700  0.60591600  1
  C  1803  1  0.81921700  0.09815320  0.61703000  1
  C  1804  1  0.80979000  0.10911800  0.60557100  1
  C  1805  1  0.81942800  0.11953700  0.59384400  1
  C  1808  1  0.83787700  0.11936700  0.59396400  1
  C  1809  1  0.84776000  0.12999000  0.58261900  1
  C  1810  1  0.86609700  0.12962400  0.58314900  1
  C  1817  1  0.60731100  0.30982300  0.10685900  1
  C  1818  1  0.61468400  0.31993400  0.12034500  1
  C  1820  1  0.60576900  0.34663100  0.10679300  1
  C  1821  1  0.59775300  0.33717400  0.09299620  1
  C  1822  1  0.59857900  0.31875700  0.09325720  1
  C  1824  1  0.60528200  0.36508300  0.10681300  1
  C  1825  1  0.61284100  0.39212000  0.12044800  1
  C  1826  1  0.60450700  0.40190600  0.10720900  1
  C  1827  1  0.59667100  0.39263000  0.09337120  1
  C  1830  1  0.59680700  0.37418400  0.09303920  1
  C  1831  1  0.58881400  0.36465600  0.07945520  1
  C  1832  1  0.58926400  0.34631500  0.07944420  1
  C  1839  1  0.60780800  0.90184900  0.10656700  1
  C  1840  1  0.61845200  0.89136000  0.09584120  1
  C  1842  1  0.60633000  0.86506000  0.10756300  1
  C  1843  1  0.59495700  0.87491000  0.11841200  1
  C  1844  1  0.59583900  0.89331800  0.11774200  1
  C  1846  1  0.60588600  0.84661400  0.10808300  1
  C  1847  1  0.61698300  0.81919800  0.09810520  1
  C  1848  1  0.60554200  0.80979500  0.10911100  1
  C  1849  1  0.59383500  0.81945800  0.11952900  1
  C  1852  1  0.59395300  0.83790700  0.11931400  1
  C  1853  1  0.58262500  0.84781900  0.12993000  1
  C  1854  1  0.58315200  0.86615500  0.12951500  1
  C  1861  1  0.60743100  0.10656400  0.90189000  1
  C  1862  1  0.61517300  0.11987200  0.89181800  1
  C  1864  1  0.60595200  0.10662100  0.86507300  1
  C  1865  1  0.59757800  0.09300820  0.87448500  1
  C  1866  1  0.59838100  0.09320520  0.89290600  1
  C  1868  1  0.60548300  0.10670300  0.84662000  1
  C  1869  1  0.61339900  0.12022000  0.81962300  1
  C  1870  1  0.60474100  0.10722500  0.80979000  1
  C  1871  1  0.59655000  0.09356520  0.81902600  1
  C  1874  1  0.59667000  0.09317420  0.83747300  1
  C  1875  1  0.58833200  0.07976620  0.84695600  1
  C  1876  1  0.58876100  0.07969720  0.86529900  1
  C  1883  1  0.60790500  0.10652500  0.30988300  1
  C  1884  1  0.61850600  0.09574720  0.32036100  1
  C  1886  1  0.60640100  0.10747000  0.34666500  1
  C  1887  1  0.59507300  0.11837400  0.33682300  1
  C  1888  1  0.59596800  0.11772900  0.31841700  1
  C  1890  1  0.60594000  0.10796200  0.36511000  1
  C  1891  1  0.61697900  0.09790120  0.39251600  1
  C  1892  1  0.60556400  0.10893000  0.40192200  1
  C  1893  1  0.59389900  0.11940200  0.39227000  1
  C  1896  1  0.59403700  0.11922000  0.37382100  1
  C  1897  1  0.58275500  0.12989200  0.36391900  1
  C  1898  1  0.58329800  0.12950500  0.34558300  1
  C  1905  1  0.10649800  0.30989500  0.60676900  1
  C  1906  1  0.11706300  0.32004700  0.59565100  1
  C  1908  1  0.10554800  0.34669500  0.60720000  1
  C  1909  1  0.09425320  0.33717700  0.61842600  1
  C  1910  1  0.09487820  0.31875200  0.61804600  1
  C  1912  1  0.10535300  0.36515200  0.60742400  1
  C  1913  1  0.11663100  0.39225400  0.59680800  1
  C  1914  1  0.10547000  0.40196900  0.60782200  1
  C  1915  1  0.09380520  0.39264500  0.61858500  1
  C  1918  1  0.09371520  0.37419600  0.61870000  1
  C  1919  1  0.08246120  0.36461200  0.62968800  1
  C  1920  1  0.08276620  0.34626700  0.62959300  1
  C  1927  1  0.10746100  0.90187300  0.60719300  1
  C  1928  1  0.10021400  0.89180100  0.59361200  1
  C  1930  1  0.10892800  0.86506100  0.60722700  1
  C  1931  1  0.11681400  0.87448900  0.62111900  1
  C  1932  1  0.11602000  0.89290800  0.62087800  1
  C  1934  1  0.10940500  0.84660700  0.60718000  1
  C  1935  1  0.10197800  0.81958500  0.59342800  1
  C  1936  1  0.11019800  0.80976800  0.60671800  1
  C  1937  1  0.11792000  0.81903200  0.62063000  1
  C  1940  1  0.11775700  0.83747900  0.62100900  1
  C  1941  1  0.12561700  0.84697700  0.63469100  1
  C  1942  1  0.12516400  0.86531800  0.63473800  1
  C  1949  1  0.30988300  0.60789600  0.10653700  1
  C  1950  1  0.32035800  0.61850100  0.09575920  1
  C  1952  1  0.34666600  0.60638700  0.10746800  1
  C  1953  1  0.33682700  0.59505700  0.11837200  1
  C  1954  1  0.31842100  0.59595200  0.11773200  1
  C  1956  1  0.36511100  0.60592800  0.10795800  1
  C  1957  1  0.39251600  0.61697300  0.09789920  1
  C  1958  1  0.40192300  0.60555900  0.10892700  1
  C  1959  1  0.39227200  0.59388800  0.11939500  1
  C  1962  1  0.37382500  0.59402300  0.11921300  1
  C  1963  1  0.36392400  0.58273800  0.12988300  1
  C  1964  1  0.34558900  0.58328000  0.12949900  1
  C  1971  1  0.90189200  0.60743100  0.10658000  1
  C  1972  1  0.89181600  0.61517300  0.11988400  1
  C  1974  1  0.86507400  0.60595800  0.10662100  1
  C  1975  1  0.87449200  0.59758600  0.09301120  1
  C  1976  1  0.89291100  0.59838600  0.09321420  1
  C  1978  1  0.84662100  0.60549000  0.10669800  1
  C  1979  1  0.81962300  0.61340100  0.12021200  1
  C  1980  1  0.80979200  0.60474300  0.10721400  1
  C  1981  1  0.81903200  0.59655400  0.09355620  1
  C  1984  1  0.83747800  0.59667700  0.09316720  1
  C  1985  1  0.84696500  0.58833900  0.07976220  1
  C  1986  1  0.86530800  0.58876900  0.07969720  1
  N  4  1  0.00512200  0.48148300  0.48249900  1
  N  8  1  0.00584700  0.52121500  0.48140900  1
  N  14  1  0.00624500  0.52135100  0.52115700  1
  N  20  1  0.00560900  0.48162800  0.52225900  1
  N  126  1  0.48213200  0.00533800  0.48147400  1
  N  130  1  0.48103700  0.00535900  0.52121800  1
  N  136  1  0.52078600  0.00600600  0.52134100  1
  N  142  1  0.52187800  0.00603900  0.48161900  1
  N  248  1  0.48147700  0.48213200  0.00533900  1
  N  252  1  0.52121900  0.48103600  0.00534100  1
  N  258  1  0.52134300  0.52078500  0.00599800  1
  N  264  1  0.48162300  0.52187900  0.00604500  1
  N  370  1  0.50712500  0.98174600  0.98197300  1
  N  374  1  0.50714700  0.02149400  0.98136100  1
  N  380  1  0.50724100  0.02115100  0.02111700  1
  N  386  1  0.50719100  0.98140800  0.02172600  1
  N  492  1  0.98196800  0.50713700  0.98203000  1
  N  496  1  0.98136000  0.50715300  0.02177700  1
  N  502  1  0.02111500  0.50722600  0.02143000  1
  N  508  1  0.02172100  0.50719800  0.98168800  1
  N  614  1  0.98154200  0.98219500  0.50550100  1
  N  618  1  0.02128800  0.98115000  0.50569600  1
  N  624  1  0.02140000  0.02089400  0.50560500  1
  N  630  1  0.98165500  0.02193600  0.50574600  1
  N  735  1  0.01544500  0.50939300  0.23354200  1
  N  745  1  0.01542300  0.50855300  0.27035400  1
  N  753  1  0.00238700  0.49977100  0.31522900  1
  N  754  1  0.00346700  0.50404800  0.18839400  1
  N  757  1  0.99237200  0.51306900  0.76961500  1
  N  767  1  0.99357000  0.51236200  0.73283800  1
  N  775  1  0.00542300  0.50051700  0.68835900  1
  N  776  1  0.00093100  0.50469000  0.81507500  1
  N  779  1  0.23322500  0.01526300  0.50944400  1
  N  789  1  0.27002900  0.01534600  0.50858200  1
  N  797  1  0.31492800  0.00243700  0.49976800  1
  N  798  1  0.18811500  0.00316700  0.50405000  1
  N  801  1  0.76933000  0.99256500  0.51314200  1
  N  811  1  0.73253700  0.99367600  0.51243000  1
  N  819  1  0.68802800  0.00542800  0.50055800  1
  N  820  1  0.81477200  0.00121900  0.50469400  1
  N  823  1  0.50940800  0.23323400  0.01543000  1
  N  833  1  0.50854800  0.27003400  0.01542400  1
  N  841  1  0.49973600  0.31490700  0.00242400  1
  N  842  1  0.50408000  0.18809200  0.00344500  1
  N  845  1  0.51309500  0.76930100  0.99238500  1
  N  855  1  0.51238300  0.73251700  0.99358700  1
  N  863  1  0.50052400  0.68803400  0.00544200  1
  N  864  1  0.50471100  0.81476800  0.00093400  1
  N  867  1  0.50990500  0.01502600  0.76973700  1
  N  877  1  0.50907700  0.01514300  0.73293000  1
  N  885  1  0.49993000  0.00250400  0.68800600  1
  N  886  1  0.50420500  0.00309600  0.81485000  1
  N  889  1  0.51313700  0.99226800  0.23364000  1
  N  899  1  0.51239600  0.99341200  0.27042000  1
  N  907  1  0.50053400  0.00524000  0.31490000  1
  N  908  1  0.50481000  0.00091600  0.18818800  1
  N  911  1  0.01197700  0.23335200  0.49194300  1
  N  921  1  0.01180900  0.27016100  0.49259200  1
  N  929  1  0.00072200  0.31496000  0.50379700  1
  N  930  1  0.00301900  0.18816500  0.50143700  1
  N  933  1  0.99667100  0.76971800  0.48973700  1
  N  943  1  0.99748300  0.73289400  0.48970700  1
  N  951  1  0.00626500  0.68798300  0.50274900  1
  N  952  1  0.00205500  0.81483900  0.50189300  1
  N  955  1  0.23363900  0.51312800  0.99227100  1
  N  965  1  0.27042000  0.51238700  0.99341100  1
  N  973  1  0.31490300  0.50053100  0.00523900  1
  N  974  1  0.18818800  0.50480800  0.00094400  1
  N  977  1  0.76973500  0.50990900  0.01503000  1
  N  987  1  0.73293000  0.50908300  0.01513700  1
  N  995  1  0.68800700  0.49992800  0.00249200  1
  N  996  1  0.81485200  0.50419600  0.00312600  1
  N  1000  1  0.10951100  0.58587200  0.58688800  1
  N  1004  1  0.11023600  0.62560400  0.58579800  1
  N  1010  1  0.11063400  0.62574000  0.62554600  1
  N  1016  1  0.10999800  0.58601700  0.62664800  1
  N  1122  1  0.58652100  0.10972700  0.58586300  1
  N  1126  1  0.58542600  0.10974800  0.62560700  1
  N  1132  1  0.62517500  0.11039500  0.62573000  1
  N  1138  1  0.62626700  0.11042800  0.58600800  1
  N  1244  1  0.58586600  0.58652100  0.10972800  1
  N  1248  1  0.62560800  0.58542500  0.10973000  1
  N  1254  1  0.62573200  0.62517400  0.11038700  1
  N  1260  1  0.58601200  0.62626800  0.11043400  1
  N  1366  1  0.61151400  0.08613520  0.08636220  1
  N  1370  1  0.61153600  0.12588300  0.08575020  1
  N  1376  1  0.61163000  0.12554000  0.12550600  1
  N  1382  1  0.61158000  0.08579720  0.12611500  1
  N  1488  1  0.08635720  0.61152600  0.08641920  1
  N  1492  1  0.08574920  0.61154200  0.12616600  1
  N  1498  1  0.12550400  0.61161500  0.12581900  1
  N  1504  1  0.12611000  0.61158700  0.08607720  1
  N  1610  1  0.08593120  0.08658420  0.60989000  1
  N  1614  1  0.12567700  0.08553920  0.61008500  1
  N  1620  1  0.12578900  0.12528300  0.60999400  1
  N  1626  1  0.08604420  0.12632500  0.61013500  1
  N  1731  1  0.11983400  0.61378200  0.33793100  1
  N  1741  1  0.11981200  0.61294200  0.37474300  1
  N  1749  1  0.10677600  0.60416000  0.41961800  1
  N  1750  1  0.10785600  0.60843700  0.29278300  1
  N  1753  1  0.09676120  0.61745800  0.87400400  1
  N  1763  1  0.09795920  0.61675100  0.83722700  1
  N  1771  1  0.10981200  0.60490600  0.79274800  1
  N  1772  1  0.10532000  0.60907900  0.91946400  1
  N  1775  1  0.33761400  0.11965200  0.61383300  1
  N  1785  1  0.37441800  0.11973500  0.61297100  1
  N  1793  1  0.41931700  0.10682600  0.60415700  1
  N  1794  1  0.29250400  0.10755600  0.60843900  1
  N  1797  1  0.87371900  0.09695420  0.61753100  1
  N  1807  1  0.83692600  0.09806520  0.61681900  1
  N  1815  1  0.79241700  0.10981700  0.60494700  1
  N  1816  1  0.91916100  0.10560800  0.60908300  1
  N  1819  1  0.61379700  0.33762300  0.11981900  1
  N  1829  1  0.61293700  0.37442300  0.11981300  1
  N  1837  1  0.60412500  0.41929600  0.10681300  1
  N  1838  1  0.60846900  0.29248100  0.10783400  1
  N  1841  1  0.61748400  0.87369000  0.09677420  1
  N  1851  1  0.61677200  0.83690600  0.09797620  1
  N  1859  1  0.60491300  0.79242300  0.10983100  1
  N  1860  1  0.60910000  0.91915700  0.10532300  1
  N  1863  1  0.61429400  0.11941500  0.87412600  1
  N  1873  1  0.61346600  0.11953200  0.83731900  1
  N  1881  1  0.60431900  0.10689300  0.79239500  1
  N  1882  1  0.60859400  0.10748500  0.91923900  1
  N  1885  1  0.61752600  0.09665720  0.33802900  1
  N  1895  1  0.61678500  0.09780120  0.37480900  1
  N  1903  1  0.60492300  0.10962900  0.41928900  1
  N  1904  1  0.60919900  0.10530500  0.29257700  1
  N  1907  1  0.11636600  0.33774100  0.59633200  1
  N  1917  1  0.11619800  0.37455000  0.59698100  1
  N  1925  1  0.10511100  0.41934900  0.60818600  1
  N  1926  1  0.10740800  0.29255400  0.60582600  1
  N  1929  1  0.10106000  0.87410700  0.59412600  1
  N  1939  1  0.10187200  0.83728300  0.59409600  1
  N  1947  1  0.11065400  0.79237200  0.60713800  1
  N  1948  1  0.10644400  0.91922800  0.60628200  1
  N  1951  1  0.33802800  0.61751700  0.09666020  1
  N  1961  1  0.37480900  0.61677600  0.09780020  1
  N  1969  1  0.41929200  0.60492000  0.10962800  1
  N  1970  1  0.29257700  0.60919700  0.10533300  1
  N  1973  1  0.87412400  0.61429800  0.11941900  1
  N  1983  1  0.83731900  0.61347200  0.11952600  1
  N  1991  1  0.79239600  0.60431700  0.10688100  1
  N  1992  1  0.91924100  0.60858500  0.10751500  1
