# generated using pymatgen
data_H36C45N4
_symmetry_space_group_name_H-M   'P 1'
_cell_length_a   50.19740000
_cell_length_b   60.59150000
_cell_length_c   60.59150000
_cell_angle_alpha   90.00000000
_cell_angle_beta   90.00000000
_cell_angle_gamma   90.00000000
_symmetry_Int_Tables_number   1
_chemical_formula_structural   H36C45N4
_chemical_formula_sum   'H576 C720 N64'
_cell_volume   184291.21412928
_cell_formula_units_Z   16
loop_
 _symmetry_equiv_pos_site_id
 _symmetry_equiv_pos_as_xyz
  1  'x, y, z'
loop_
 _atom_site_type_symbol
 _atom_site_label
 _atom_site_symmetry_multiplicity
 _atom_site_fract_x
 _atom_site_fract_y
 _atom_site_fract_z
 _atom_site_occupancy
  H  26  1  0.22439000  0.21883900  0.67212400  1
  H  27  1  0.20946300  0.19312600  0.64537600  1
  H  28  1  0.20948700  0.17266800  0.72251600  1
  H  29  1  0.19480300  0.14664100  0.69565600  1
  H  30  1  0.15507600  0.12495400  0.67523700  1
  H  31  1  0.10834000  0.12799300  0.67783100  1
  H  32  1  0.11026900  0.18525700  0.63837500  1
  H  33  1  0.15749900  0.18220500  0.63577300  1
  H  34  1  0.16484100  0.14594500  0.60987000  1
  H  35  1  0.18080600  0.14935200  0.57346800  1
  H  36  1  0.25815100  0.16139000  0.59763200  1
  H  37  1  0.24198300  0.15831800  0.63443400  1
  H  38  1  0.23737900  0.13248100  0.67102200  1
  H  39  1  0.17131100  0.11063400  0.63399300  1
  H  40  1  0.18737300  0.07385600  0.63602200  1
  H  45  1  0.25318200  0.09569900  0.67323300  1
  H  71  1  0.22438200  0.78940800  0.33609200  1
  H  72  1  0.20948100  0.81512800  0.36284100  1
  H  73  1  0.20945100  0.83557300  0.28570000  1
  H  74  1  0.19479400  0.86160600  0.31256500  1
  H  75  1  0.15508200  0.88331400  0.33302000  1
  H  76  1  0.10834300  0.88029200  0.33046100  1
  H  77  1  0.11029400  0.82298900  0.36986200  1
  H  78  1  0.15752200  0.82603400  0.37244300  1
  H  79  1  0.16486700  0.86227300  0.39837900  1
  H  80  1  0.18086000  0.85886500  0.43477600  1
  H  81  1  0.25819900  0.84688600  0.41056600  1
  H  82  1  0.24199900  0.84995800  0.37377500  1
  H  83  1  0.23737700  0.87578100  0.33718600  1
  H  84  1  0.17134500  0.89760300  0.37427200  1
  H  85  1  0.18738500  0.93438700  0.37223200  1
  H  90  1  0.25316100  0.91257000  0.33496600  1
  H  116  1  0.22464500  0.33624900  0.21879800  1
  H  117  1  0.20969400  0.36300300  0.19310800  1
  H  118  1  0.20935700  0.28584700  0.17272700  1
  H  119  1  0.19464900  0.31271700  0.14672200  1
  H  120  1  0.15504800  0.33325500  0.12483600  1
  H  121  1  0.10832300  0.33059100  0.12790000  1
  H  122  1  0.11027400  0.36963300  0.18544500  1
  H  123  1  0.15749300  0.37230300  0.18236900  1
  H  124  1  0.16462200  0.39845200  0.14627200  1
  H  125  1  0.18042800  0.43487500  0.14980300  1
  H  126  1  0.25799100  0.41090600  0.16125800  1
  H  127  1  0.24195300  0.37406600  0.15814100  1
  H  128  1  0.23729500  0.33724900  0.13247700  1
  H  129  1  0.17140900  0.37453300  0.11070600  1
  H  130  1  0.18745500  0.37251600  0.07392100  1
  H  135  1  0.25308100  0.33504400  0.09569300  1
  H  161  1  0.22455900  0.67209900  0.78945700  1
  H  162  1  0.20962400  0.64535300  0.81516200  1
  H  163  1  0.20943300  0.72250600  0.83556100  1
  H  164  1  0.19473800  0.69564400  0.86158100  1
  H  165  1  0.15507400  0.67509800  0.88341500  1
  H  166  1  0.10834200  0.67766500  0.88039400  1
  H  167  1  0.11031400  0.63850600  0.82292600  1
  H  168  1  0.15753900  0.63590300  0.82597600  1
  H  169  1  0.16475900  0.60987400  0.86212100  1
  H  170  1  0.18065200  0.57346300  0.85864500  1
  H  171  1  0.25811700  0.59754100  0.84695200  1
  H  172  1  0.24200700  0.63436100  0.85005200  1
  H  173  1  0.23734300  0.67109400  0.87580100  1
  H  174  1  0.17140800  0.63386600  0.89759000  1
  H  175  1  0.18745300  0.63589300  0.93437400  1
  H  180  1  0.25312500  0.67330600  0.91258900  1
  H  206  1  0.29865500  0.78521900  0.67217000  1
  H  207  1  0.31383100  0.81223600  0.64655100  1
  H  208  1  0.28467400  0.83512400  0.71910800  1
  H  209  1  0.30013900  0.86206200  0.69373800  1
  H  210  1  0.35178700  0.87121500  0.68253300  1
  H  211  1  0.39883700  0.86806400  0.68566400  1
  H  212  1  0.40090300  0.83003600  0.62748800  1
  H  213  1  0.35384100  0.83271800  0.62458900  1
  H  214  1  0.33734800  0.87327300  0.61061700  1
  H  215  1  0.32003500  0.87192300  0.57429900  1
  H  216  1  0.25346700  0.83642300  0.59725400  1
  H  217  1  0.27055600  0.83801500  0.63378900  1
  H  218  1  0.26771500  0.87389500  0.65991300  1
  H  219  1  0.34478900  0.89755000  0.64557900  1
  H  220  1  0.32920200  0.93428100  0.64846400  1
  H  225  1  0.25208100  0.91077200  0.66255200  1
  H  251  1  0.29862500  0.22305900  0.33606400  1
  H  252  1  0.31378300  0.19603200  0.36167800  1
  H  253  1  0.28458700  0.17316500  0.28912600  1
  H  254  1  0.30003800  0.14621800  0.31449000  1
  H  255  1  0.35170600  0.13709100  0.32567100  1
  H  256  1  0.39875800  0.14022400  0.32254400  1
  H  257  1  0.40084000  0.17817400  0.38077500  1
  H  258  1  0.35377700  0.17551000  0.38366100  1
  H  259  1  0.33724100  0.13495300  0.39758600  1
  H  260  1  0.31991700  0.13625700  0.43389900  1
  H  261  1  0.25338400  0.17182400  0.41097900  1
  H  262  1  0.27048800  0.17027800  0.37444500  1
  H  263  1  0.26764900  0.13437600  0.34833800  1
  H  264  1  0.34471700  0.11069800  0.36261500  1
  H  265  1  0.32911300  0.07397100  0.35974500  1
  H  270  1  0.25198900  0.09750900  0.34571400  1
  H  296  1  0.29874100  0.67216400  0.22304800  1
  H  297  1  0.31391100  0.64653500  0.19603700  1
  H  298  1  0.28452500  0.71901500  0.17310800  1
  H  299  1  0.29999200  0.69364200  0.14617800  1
  H  300  1  0.35173100  0.68251000  0.13716000  1
  H  301  1  0.39878600  0.68564700  0.14030200  1
  H  302  1  0.40089700  0.62732900  0.17811400  1
  H  303  1  0.35383700  0.62443400  0.17545000  1
  H  304  1  0.33721100  0.61054900  0.13491000  1
  H  305  1  0.31988500  0.57423600  0.13627900  1
  H  306  1  0.25349700  0.59718500  0.17202100  1
  H  307  1  0.27059600  0.63371400  0.17040200  1
  H  308  1  0.26767300  0.65974000  0.13438100  1
  H  309  1  0.34479700  0.64562500  0.11070100  1
  H  310  1  0.32919400  0.64852700  0.07397200  1
  H  315  1  0.25202500  0.66239000  0.09750900  1
  H  341  1  0.29858100  0.33609200  0.78522700  1
  H  342  1  0.31374500  0.36171700  0.81224100  1
  H  343  1  0.28462800  0.28915300  0.83513500  1
  H  344  1  0.30008300  0.31453100  0.86207000  1
  H  345  1  0.35170200  0.32574000  0.87125100  1
  H  346  1  0.39875000  0.32260300  0.86811000  1
  H  347  1  0.40083000  0.38075600  0.83004600  1
  H  348  1  0.35376700  0.38366000  0.83271900  1
  H  349  1  0.33727600  0.39766000  0.87326500  1
  H  350  1  0.31996700  0.43398000  0.87190000  1
  H  351  1  0.25338800  0.41101200  0.83642400  1
  H  352  1  0.27047200  0.37447700  0.83803000  1
  H  353  1  0.26763500  0.34834100  0.87390000  1
  H  354  1  0.34468700  0.36272600  0.89756200  1
  H  355  1  0.32909100  0.35985900  0.93429300  1
  H  360  1  0.25198700  0.34571900  0.91077500  1
  H  386  1  0.78275000  0.78971200  0.33607000  1
  H  387  1  0.79778400  0.81531100  0.36286600  1
  H  388  1  0.79936400  0.83545900  0.28565700  1
  H  389  1  0.81412800  0.86139700  0.31257200  1
  H  390  1  0.85335900  0.88355200  0.33341200  1
  H  391  1  0.90012200  0.87998000  0.33034300  1
  H  392  1  0.89767400  0.82205800  0.36871400  1
  H  393  1  0.85048000  0.82555800  0.37177000  1
  H  394  1  0.84365900  0.86131900  0.39839400  1
  H  395  1  0.82769200  0.85783800  0.43478100  1
  H  396  1  0.74995700  0.84759600  0.41063900  1
  H  397  1  0.76613700  0.85064300  0.37384000  1
  H  398  1  0.77131500  0.87595500  0.33662700  1
  H  399  1  0.83663300  0.89741200  0.37478200  1
  H  400  1  0.82072000  0.93424300  0.37275000  1
  H  405  1  0.75570100  0.91277500  0.33438400  1
  H  431  1  0.78299500  0.21857500  0.67222800  1
  H  432  1  0.79801200  0.19296900  0.64543400  1
  H  433  1  0.79933600  0.17274700  0.72262300  1
  H  434  1  0.81408200  0.14680000  0.69571000  1
  H  435  1  0.85332300  0.12470700  0.67497300  1
  H  436  1  0.90008100  0.12821300  0.67809900  1
  H  437  1  0.89785300  0.18603100  0.63956200  1
  H  438  1  0.85065800  0.18260200  0.63645700  1
  H  439  1  0.84372100  0.14685100  0.60987800  1
  H  440  1  0.82774800  0.15032600  0.57349000  1
  H  441  1  0.75005300  0.16072700  0.59764700  1
  H  442  1  0.76624300  0.15768600  0.63444100  1
  H  443  1  0.77131700  0.13231000  0.67156600  1
  H  444  1  0.83671900  0.11081700  0.63352800  1
  H  445  1  0.82078600  0.07399100  0.63554800  1
  H  450  1  0.75567900  0.09549100  0.67379300  1
  H  476  1  0.78255700  0.67209400  0.78975500  1
  H  477  1  0.79760300  0.64529900  0.81534200  1
  H  478  1  0.79942600  0.72251600  0.83542600  1
  H  479  1  0.81420200  0.69559900  0.86135400  1
  H  480  1  0.85336900  0.67467900  0.88365600  1
  H  481  1  0.90012200  0.67778700  0.88008400  1
  H  482  1  0.89766600  0.63974700  0.82194600  1
  H  483  1  0.85048200  0.63664700  0.82544800  1
  H  484  1  0.84385500  0.60984100  0.86109300  1
  H  485  1  0.82805300  0.57342900  0.85751200  1
  H  486  1  0.75013700  0.59735000  0.84771800  1
  H  487  1  0.76617300  0.63419300  0.85079100  1
  H  488  1  0.77134900  0.67158600  0.87597100  1
  H  489  1  0.83656900  0.63329500  0.89737500  1
  H  490  1  0.82066200  0.63530500  0.93421000  1
  H  495  1  0.75573800  0.67380900  0.91279200  1
  H  521  1  0.78294300  0.33611200  0.21856200  1
  H  522  1  0.79799000  0.36290200  0.19296100  1
  H  523  1  0.79933400  0.28571000  0.17275200  1
  H  524  1  0.81411000  0.31261700  0.14681500  1
  H  525  1  0.85331700  0.33333333  0.12467300  1
  H  526  1  0.90006300  0.33018300  0.12817900  1
  H  527  1  0.89789500  0.36865700  0.18604100  1
  H  528  1  0.85070600  0.37181500  0.18261600  1
  H  529  1  0.84380100  0.39841900  0.14694100  1
  H  530  1  0.82789000  0.43481700  0.15048200  1
  H  531  1  0.75012700  0.41073900  0.16073000  1
  H  532  1  0.76625900  0.37392700  0.15765300  1
  H  533  1  0.77134700  0.33673900  0.13231200  1
  H  534  1  0.83671700  0.37482000  0.11082700  1
  H  535  1  0.82078000  0.37280000  0.07400000  1
  H  540  1  0.75571100  0.33451100  0.09549600  1
  H  566  1  0.71130800  0.22288600  0.33652100  1
  H  567  1  0.69615400  0.19594300  0.36220800  1
  H  568  1  0.72176900  0.17325400  0.28867600  1
  H  569  1  0.70636700  0.14636000  0.31417800  1
  H  570  1  0.65649400  0.13537700  0.32636900  1
  H  571  1  0.60950200  0.13883200  0.32279500  1
  H  572  1  0.60756100  0.18019200  0.37863100  1
  H  573  1  0.65460800  0.17702300  0.38209700  1
  H  574  1  0.66947100  0.13674400  0.39792400  1
  H  575  1  0.68666900  0.13809800  0.43427900  1
  H  576  1  0.75561700  0.16998800  0.41085100  1
  H  577  1  0.73854800  0.16847700  0.37429200  1
  H  578  1  0.74026600  0.13438800  0.34690800  1
  H  579  1  0.66417600  0.11080300  0.36455300  1
  H  580  1  0.67979400  0.07404100  0.36180200  1
  H  585  1  0.75591400  0.09751100  0.34430600  1
  H  611  1  0.71094900  0.78536000  0.67182700  1
  H  612  1  0.69579900  0.81230600  0.64614000  1
  H  613  1  0.72197400  0.83505600  0.71951700  1
  H  614  1  0.70657300  0.86194900  0.69402300  1
  H  615  1  0.65653600  0.87274600  0.68202500  1
  H  616  1  0.60955200  0.86934000  0.68567900  1
  H  617  1  0.60733400  0.82834600  0.62958200  1
  H  618  1  0.65437900  0.83145700  0.62604000  1
  H  619  1  0.66951900  0.87170700  0.61038300  1
  H  620  1  0.68671900  0.87038000  0.57403100  1
  H  621  1  0.75541600  0.83806000  0.59737600  1
  H  622  1  0.73834900  0.83955000  0.63393200  1
  H  623  1  0.74024400  0.87385500  0.66111300  1
  H  624  1  0.66404200  0.89751200  0.64391900  1
  H  625  1  0.67970900  0.93426000  0.64665000  1
  H  630  1  0.75594600  0.91071500  0.66368400  1
  H  656  1  0.71133000  0.33656500  0.78538800  1
  H  657  1  0.69617600  0.36226700  0.81231500  1
  H  658  1  0.72180400  0.28875200  0.83504800  1
  H  659  1  0.70640100  0.31426700  0.86192600  1
  H  660  1  0.65650000  0.32646000  0.87284400  1
  H  661  1  0.60951000  0.32288500  0.86934200  1
  H  662  1  0.60762500  0.37875500  0.82802400  1
  H  663  1  0.65466500  0.38221700  0.83123900  1
  H  664  1  0.66954500  0.39801800  0.87154200  1
  H  665  1  0.68674900  0.43436800  0.87017300  1
  H  666  1  0.75563300  0.41092900  0.83818700  1
  H  667  1  0.73855600  0.37437400  0.83971900  1
  H  668  1  0.74028300  0.34703400  0.87387000  1
  H  669  1  0.66416400  0.36459200  0.89746600  1
  H  670  1  0.67979000  0.36182600  0.93423000  1
  H  675  1  0.75593200  0.34442000  0.91074700  1
  H  701  1  0.71110700  0.67175300  0.22287500  1
  H  702  1  0.69595300  0.64605600  0.19594200  1
  H  703  1  0.72180200  0.71951400  0.17319800  1
  H  704  1  0.70640300  0.69400300  0.14631300  1
  H  705  1  0.65652000  0.68190300  0.13536700  1
  H  706  1  0.60953000  0.68553500  0.13874900  1
  H  707  1  0.60737000  0.62961800  0.17999200  1
  H  708  1  0.65442200  0.62610000  0.17690400  1
  H  709  1  0.66943500  0.61028400  0.13669300  1
  H  710  1  0.68663500  0.57393000  0.13807500  1
  H  711  1  0.75548900  0.59736100  0.17009800  1
  H  712  1  0.73842300  0.63391600  0.16856000  1
  H  713  1  0.74023400  0.66121800  0.13439700  1
  H  714  1  0.66412600  0.64369100  0.11076400  1
  H  715  1  0.67978400  0.64642300  0.07401100  1
  H  720  1  0.75592200  0.66379800  0.09752900  1
  H  726  1  0.24689900  0.18975900  0.52206800  1
  H  727  1  0.27272500  0.18781700  0.48933400  1
  H  730  1  0.21875800  0.11657500  0.53803900  1
  H  731  1  0.24503500  0.10212200  0.52588600  1
  H  732  1  0.21518100  0.10700900  0.51090200  1
  H  734  1  0.27197600  0.11280100  0.46644200  1
  H  735  1  0.24103000  0.10494800  0.47714000  1
  H  736  1  0.27068100  0.10043300  0.49251300  1
  H  738  1  0.30364500  0.15217000  0.46778500  1
  H  740  1  0.20229100  0.15503000  0.54010200  1
  H  746  1  0.24700900  0.81847600  0.48611100  1
  H  747  1  0.27282700  0.82038900  0.51885200  1
  H  750  1  0.21884400  0.89166700  0.47021600  1
  H  751  1  0.24509000  0.90612400  0.48240800  1
  H  752  1  0.21522800  0.90118800  0.49736700  1
  H  754  1  0.27202600  0.89537800  0.54183500  1
  H  755  1  0.24107600  0.90322600  0.53114100  1
  H  756  1  0.27072900  0.90777900  0.51578000  1
  H  758  1  0.30374100  0.85597700  0.54042900  1
  H  760  1  0.20238900  0.85322400  0.46813200  1
  H  766  1  0.24600700  0.48668900  0.19013600  1
  H  767  1  0.27200800  0.51931200  0.18804800  1
  H  770  1  0.21935000  0.46964000  0.11679800  1
  H  771  1  0.24582000  0.48167800  0.10251100  1
  H  772  1  0.21584200  0.49665700  0.10686800  1
  H  774  1  0.27252600  0.54123600  0.11275300  1
  H  775  1  0.24175600  0.53038100  0.10465800  1
  H  776  1  0.27152000  0.51500500  0.10070200  1
  H  778  1  0.30358400  0.54033500  0.15201800  1
  H  780  1  0.20206400  0.46827700  0.15455700  1
  H  786  1  0.24655700  0.52193300  0.81835800  1
  H  787  1  0.27244400  0.48923500  0.82029800  1
  H  790  1  0.21911900  0.53826000  0.89165200  1
  H  791  1  0.24545900  0.52610200  0.90601000  1
  H  792  1  0.21553100  0.51115600  0.90131800  1
  H  794  1  0.27226900  0.46663200  0.89540100  1
  H  795  1  0.24140500  0.47739100  0.90338300  1
  H  796  1  0.27111200  0.49274900  0.90768000  1
  H  798  1  0.30367100  0.46784600  0.85596400  1
  H  800  1  0.20225200  0.54009600  0.85355100  1
  H  806  1  0.76143000  0.81851300  0.48604400  1
  H  807  1  0.73541700  0.82020900  0.51868500  1
  H  810  1  0.78892500  0.89192200  0.47033000  1
  H  811  1  0.76247800  0.90616700  0.48246200  1
  H  812  1  0.79232400  0.90143200  0.49750600  1
  H  814  1  0.73531700  0.89518000  0.54174600  1
  H  815  1  0.76627100  0.90324400  0.53121300  1
  H  816  1  0.73668200  0.90761100  0.51571400  1
  H  818  1  0.70406000  0.85508500  0.54027100  1
  H  820  1  0.80578100  0.85382600  0.46820600  1
  H  826  1  0.76154000  0.18974600  0.52226600  1
  H  827  1  0.73554000  0.18811400  0.48961700  1
  H  830  1  0.78890400  0.11629100  0.53791400  1
  H  831  1  0.76244800  0.10208300  0.52575200  1
  H  832  1  0.79231000  0.10681200  0.51072700  1
  H  834  1  0.73530900  0.11316300  0.46648500  1
  H  835  1  0.76625300  0.10505800  0.47700800  1
  H  836  1  0.73666000  0.10070600  0.49250300  1
  H  838  1  0.70412200  0.15341700  0.46799500  1
  H  840  1  0.80582700  0.15434900  0.54006300  1
  H  846  1  0.76241800  0.52175600  0.81816400  1
  H  847  1  0.73625700  0.48920900  0.81995700  1
  H  850  1  0.78833800  0.53850300  0.89175400  1
  H  851  1  0.76168300  0.52647200  0.90579900  1
  H  852  1  0.79165900  0.51144200  0.90161700  1
  H  854  1  0.73478900  0.46707100  0.89518500  1
  H  855  1  0.76555400  0.47775500  0.90352800  1
  H  856  1  0.73585100  0.49325700  0.90731600  1
  H  858  1  0.70421400  0.46810000  0.85501300  1
  H  860  1  0.80603800  0.53997500  0.85433300  1
  H  866  1  0.76184200  0.48618200  0.18988500  1
  H  867  1  0.73574700  0.51877400  0.18819800  1
  H  870  1  0.78866100  0.47014700  0.11636800  1
  H  871  1  0.76213500  0.48226400  0.10222100  1
  H  872  1  0.79203700  0.49729300  0.10676000  1
  H  874  1  0.73504800  0.54156000  0.11314900  1
  H  875  1  0.76593200  0.53099000  0.10495400  1
  H  876  1  0.73630500  0.51548300  0.10080300  1
  H  878  1  0.70407600  0.54020000  0.15335500  1
  H  880  1  0.80590200  0.46823200  0.15414100  1
  H  886  1  0.76168500  0.69090600  0.02703100  1
  H  887  1  0.76621900  0.69325300  0.98817500  1
  H  890  1  0.73944500  0.61639500  0.04333200  1
  H  891  1  0.75396500  0.60364900  0.02048100  1
  H  892  1  0.71967300  0.61092200  0.02012700  1
  H  894  1  0.74388300  0.62261700  0.95951300  1
  H  895  1  0.72263900  0.61365700  0.98048300  1
  H  896  1  0.75694000  0.60641400  0.98089000  1
  H  898  1  0.74560100  0.67211800  0.95101000  1
  H  900  1  0.76601200  0.65875300  0.05957200  1
  H  906  1  0.76160700  0.31730000  0.98125200  1
  H  907  1  0.76615300  0.31496700  0.02010800  1
  H  910  1  0.73947500  0.39182700  0.96492300  1
  H  911  1  0.75404900  0.40456500  0.98775600  1
  H  912  1  0.71974100  0.39734500  0.98813900  1
  H  914  1  0.74396900  0.38564700  0.04874300  1
  H  915  1  0.72272300  0.39462100  0.02778000  1
  H  916  1  0.75703700  0.40182000  0.02734700  1
  H  918  1  0.74557100  0.33616300  0.05727400  1
  H  920  1  0.76600200  0.34947800  0.94870800  1
  H  926  1  0.76161100  0.98122900  0.69097500  1
  H  927  1  0.76614900  0.02008300  0.69333000  1
  H  930  1  0.73944700  0.96493400  0.61645000  1
  H  931  1  0.75401300  0.98777200  0.60371500  1
  H  932  1  0.71970900  0.98815200  0.61095100  1
  H  934  1  0.74394700  0.04875200  0.62266800  1
  H  935  1  0.72269500  0.02779400  0.61368900  1
  H  936  1  0.75700700  0.02736300  0.60648000  1
  H  938  1  0.74556300  0.05725800  0.67216000  1
  H  940  1  0.76599200  0.94869400  0.65878400  1
  H  946  1  0.76157700  0.02700600  0.31722800  1
  H  947  1  0.76611200  0.98814900  0.31489400  1
  H  950  1  0.73947900  0.04334300  0.39176000  1
  H  951  1  0.75405500  0.02050900  0.40449600  1
  H  952  1  0.71974500  0.02012900  0.39728400  1
  H  954  1  0.74395900  0.95952100  0.38558200  1
  H  955  1  0.72271900  0.98048600  0.39456400  1
  H  956  1  0.75703700  0.98091700  0.40175100  1
  H  958  1  0.74551700  0.95098700  0.33611000  1
  H  960  1  0.76598800  0.05955300  0.34938900  1
  H  966  1  0.24683000  0.31738600  0.98139700  1
  H  967  1  0.24236700  0.31509700  0.02026600  1
  H  970  1  0.26933100  0.39180800  0.96496100  1
  H  971  1  0.25469300  0.40463300  0.98772600  1
  H  972  1  0.28897900  0.39734600  0.98821600  1
  H  974  1  0.26461300  0.38580800  0.04879200  1
  H  975  1  0.28594900  0.39469700  0.02784900  1
  H  976  1  0.25165700  0.40196200  0.02733700  1
  H  978  1  0.26309100  0.33639400  0.05740800  1
  H  980  1  0.24236900  0.34986300  0.94885600  1
  H  986  1  0.24693900  0.69091600  0.02689800  1
  H  987  1  0.24245900  0.69322900  0.98803200  1
  H  990  1  0.26938100  0.61647100  0.04328600  1
  H  991  1  0.25469500  0.60367100  0.02052800  1
  H  992  1  0.28899100  0.61092200  0.02001300  1
  H  994  1  0.26459500  0.62251200  0.95946200  1
  H  995  1  0.28593900  0.61359400  0.98038700  1
  H  996  1  0.25163700  0.60635900  0.98091700  1
  H  998  1  0.26316700  0.67191500  0.95086600  1
  H  1000  1  0.24243900  0.65838600  0.05941200  1
  H  1006  1  0.24690900  0.02688700  0.31726900  1
  H  1007  1  0.24246100  0.98801800  0.31496200  1
  H  1010  1  0.26926700  0.04330400  0.39172300  1
  H  1011  1  0.25460300  0.02053600  0.40452400  1
  H  1012  1  0.28890100  0.02004600  0.39728400  1
  H  1014  1  0.26456000  0.95947300  0.38569600  1
  H  1015  1  0.28587700  0.98041300  0.39462100  1
  H  1016  1  0.25157100  0.98092500  0.40183900  1
  H  1018  1  0.26315300  0.95086600  0.33628800  1
  H  1020  1  0.24237700  0.05941800  0.34976900  1
  H  1026  1  0.24702500  0.98139500  0.69096200  1
  H  1027  1  0.24254200  0.02026400  0.69325100  1
  H  1030  1  0.26936300  0.96495700  0.61650700  1
  H  1031  1  0.25464700  0.98770000  0.60370400  1
  H  1032  1  0.28895300  0.98823100  0.61091800  1
  H  1034  1  0.26454800  0.04878600  0.62248700  1
  H  1035  1  0.28589100  0.02786200  0.61356500  1
  H  1036  1  0.25157900  0.02731100  0.60636600  1
  H  1038  1  0.26322500  0.05741800  0.67186800  1
  H  1040  1  0.24247900  0.94885900  0.65846500  1
  H  1046  1  0.97939600  0.16088200  0.69279000  1
  H  1047  1  0.02654000  0.16141600  0.69341600  1
  H  1050  1  0.95395000  0.13774600  0.62105600  1
  H  1051  1  0.97996500  0.11888100  0.61652900  1
  H  1052  1  0.98175400  0.14622800  0.60602400  1
  H  1054  1  0.05545800  0.13594800  0.62316200  1
  H  1055  1  0.02924400  0.14570300  0.60691700  1
  H  1056  1  0.02860000  0.11837700  0.61755400  1
  H  1058  1  0.06333800  0.13182700  0.67191300  1
  H  1060  1  0.94382800  0.12880100  0.66062900  1
  H  1066  1  0.97923600  0.84719700  0.31570800  1
  H  1067  1  0.02636300  0.84672100  0.31488400  1
  H  1070  1  0.95418500  0.87045400  0.38749200  1
  H  1071  1  0.98014500  0.88941900  0.39181700  1
  H  1072  1  0.98212300  0.86212600  0.40243900  1
  H  1074  1  0.05566900  0.87253000  0.38492000  1
  H  1075  1  0.02961700  0.86274000  0.40132500  1
  H  1076  1  0.02876000  0.89002300  0.39058600  1
  H  1078  1  0.06331600  0.87622200  0.33600400  1
  H  1080  1  0.94378000  0.87927500  0.34784100  1
  H  1086  1  0.97957300  0.31527000  0.16088000  1
  H  1087  1  0.02671700  0.31480500  0.16137000  1
  H  1090  1  0.95373700  0.38693600  0.13780800  1
  H  1091  1  0.97977600  0.39161300  0.11901000  1
  H  1092  1  0.98142400  0.40206600  0.14638300  1
  H  1094  1  0.05526400  0.38524400  0.13617500  1
  H  1095  1  0.02891800  0.40136200  0.14589500  1
  H  1096  1  0.02843000  0.39077800  0.11854500  1
  H  1098  1  0.06333900  0.33673500  0.13164400  1
  H  1100  1  0.94401100  0.34726500  0.12883600  1
  H  1106  1  0.97920000  0.69254000  0.84717800  1
  H  1107  1  0.02632500  0.69339400  0.84668300  1
  H  1110  1  0.95423500  0.62073600  0.87042800  1
  H  1111  1  0.98018200  0.61644000  0.88941200  1
  H  1112  1  0.98220000  0.60581100  0.86212300  1
  H  1114  1  0.05571200  0.62340100  0.87255700  1
  H  1115  1  0.02969400  0.60696800  0.86275000  1
  H  1116  1  0.02879500  0.61771600  0.89002900  1
  H  1118  1  0.06330700  0.67238200  0.87614600  1
  H  1120  1  0.94378400  0.66033500  0.87927700  1
  H  1126  1  0.52766500  0.84397200  0.69401800  1
  H  1127  1  0.48050500  0.84388600  0.69361400  1
  H  1130  1  0.55564400  0.87363400  0.62526900  1
  H  1131  1  0.52936600  0.89230400  0.62141900  1
  H  1132  1  0.52868300  0.86581300  0.60884100  1
  H  1134  1  0.45408900  0.87456000  0.62480900  1
  H  1135  1  0.48096100  0.86607700  0.60856700  1
  H  1136  1  0.48101100  0.89256800  0.62115800  1
  H  1138  1  0.44347300  0.87452100  0.67296300  1
  H  1140  1  0.56510900  0.87720600  0.66674600  1
  H  1146  1  0.52779400  0.16435200  0.31446200  1
  H  1147  1  0.48063700  0.16439700  0.31465600  1
  H  1150  1  0.55537300  0.13476200  0.38333900  1
  H  1151  1  0.52916100  0.11598500  0.38700800  1
  H  1152  1  0.52824700  0.14244100  0.39964900  1
  H  1154  1  0.45382000  0.13352900  0.38328500  1
  H  1155  1  0.48052100  0.14208700  0.39968200  1
  H  1156  1  0.48080600  0.11562000  0.38704800  1
  H  1158  1  0.44344900  0.13387800  0.33504700  1
  H  1160  1  0.56528000  0.13122600  0.34169200  1
  H  1166  1  0.52775500  0.69386800  0.16424500  1
  H  1167  1  0.48058900  0.69354100  0.16440400  1
  H  1170  1  0.55550100  0.62507000  0.13455000  1
  H  1171  1  0.52921700  0.62129500  0.11586700  1
  H  1172  1  0.52848000  0.60869900  0.14234800  1
  H  1174  1  0.45394600  0.62483500  0.13362200  1
  H  1175  1  0.48076000  0.60852800  0.14210100  1
  H  1176  1  0.48086200  0.62114200  0.11562300  1
  H  1178  1  0.44344500  0.67306200  0.13384200  1
  H  1180  1  0.56525600  0.66651100  0.13096400  1
  H  1186  1  0.52772300  0.31447200  0.84379500  1
  H  1187  1  0.48056500  0.31468300  0.84384300  1
  H  1190  1  0.55542100  0.38329800  0.87343600  1
  H  1191  1  0.52921900  0.38699500  0.89221300  1
  H  1192  1  0.52832000  0.39963900  0.86575700  1
  H  1194  1  0.45386800  0.38332800  0.87473300  1
  H  1195  1  0.48058300  0.39970500  0.86617000  1
  H  1196  1  0.48087400  0.38706100  0.89263200  1
  H  1198  1  0.44344100  0.33519900  0.87447400  1
  H  1200  1  0.56511300  0.34149200  0.87684800  1
  H  1206  1  0.26755600  0.21740700  0.75168500  1
  H  1207  1  0.27776700  0.23924000  0.78303900  1
  H  1210  1  0.21877400  0.26331300  0.70256200  1
  H  1211  1  0.23298400  0.28873200  0.70963400  1
  H  1212  1  0.20276200  0.27985800  0.72206500  1
  H  1214  1  0.23786700  0.30951700  0.77096300  1
  H  1215  1  0.21188200  0.30119900  0.75386000  1
  H  1216  1  0.24218200  0.31100900  0.74229600  1
  H  1218  1  0.25779600  0.27427800  0.80533100  1
  H  1220  1  0.25246500  0.23275100  0.70202100  1
  H  1226  1  0.26744000  0.79083400  0.25648200  1
  H  1227  1  0.27765600  0.76897300  0.22514900  1
  H  1230  1  0.21886200  0.74491300  0.30572800  1
  H  1231  1  0.23315200  0.71951700  0.29868700  1
  H  1232  1  0.20287500  0.72829200  0.28627600  1
  H  1234  1  0.23798400  0.69863300  0.23738500  1
  H  1235  1  0.21200100  0.70692400  0.25450100  1
  H  1236  1  0.24235100  0.69720000  0.26604900  1
  H  1238  1  0.25772100  0.73386500  0.20293100  1
  H  1240  1  0.25248500  0.77552300  0.30618200  1
  H  1246  1  0.26758000  0.25660500  0.21737900  1
  H  1247  1  0.27774800  0.22524600  0.23921500  1
  H  1250  1  0.21891200  0.30579900  0.26328800  1
  H  1251  1  0.23313200  0.29872200  0.28870200  1
  H  1252  1  0.20287900  0.28632400  0.27985100  1
  H  1254  1  0.23792300  0.23739500  0.30950900  1
  H  1255  1  0.21195900  0.25452400  0.30119700  1
  H  1256  1  0.24228700  0.26605600  0.31098900  1
  H  1258  1  0.25778600  0.20298700  0.27426500  1
  H  1260  1  0.25259900  0.30629400  0.23272200  1
  H  1266  1  0.26760800  0.75168600  0.79084700  1
  H  1267  1  0.27782300  0.78303200  0.76900700  1
  H  1270  1  0.21879200  0.70257100  0.74496100  1
  H  1271  1  0.23302000  0.70962400  0.71954500  1
  H  1272  1  0.20279500  0.72206700  0.72839800  1
  H  1274  1  0.23792300  0.77094700  0.69873000  1
  H  1275  1  0.21192500  0.75385700  0.70705100  1
  H  1276  1  0.24222400  0.74227800  0.69725300  1
  H  1278  1  0.25782000  0.80532100  0.73395600  1
  H  1280  1  0.25253700  0.70203800  0.77551300  1
  H  1286  1  0.73996300  0.79102900  0.25647700  1
  H  1287  1  0.72972700  0.76919900  0.22512600  1
  H  1290  1  0.78936600  0.74529600  0.30531500  1
  H  1291  1  0.77543300  0.71979800  0.29816600  1
  H  1292  1  0.80552000  0.72895600  0.28571500  1
  H  1294  1  0.77058200  0.69922000  0.23677100  1
  H  1295  1  0.79648600  0.70766000  0.25388700  1
  H  1296  1  0.76631900  0.69755700  0.26543800  1
  H  1298  1  0.74957700  0.73440400  0.20261100  1
  H  1300  1  0.75520900  0.77579700  0.30594100  1
  H  1306  1  0.74005600  0.21724800  0.75178200  1
  H  1307  1  0.72979900  0.23907800  0.78312500  1
  H  1310  1  0.78951300  0.26296900  0.70297200  1
  H  1311  1  0.77557800  0.28847000  0.71011600  1
  H  1312  1  0.80565700  0.27930800  0.72257700  1
  H  1314  1  0.77070500  0.30904300  0.77151300  1
  H  1315  1  0.79661300  0.30060200  0.75440300  1
  H  1316  1  0.76645400  0.31071000  0.74284400  1
  H  1318  1  0.74963500  0.27385700  0.80566100  1
  H  1320  1  0.75535600  0.23248000  0.70233000  1
  H  1326  1  0.73997100  0.75176400  0.79106200  1
  H  1327  1  0.72977900  0.78312200  0.76923000  1
  H  1330  1  0.78922200  0.70283600  0.74531300  1
  H  1331  1  0.77526300  0.70998900  0.71982200  1
  H  1332  1  0.80538800  0.72240500  0.72894200  1
  H  1334  1  0.77050400  0.77138100  0.69921500  1
  H  1335  1  0.79639000  0.75423600  0.70763900  1
  H  1336  1  0.76618500  0.74271700  0.69757300  1
  H  1338  1  0.74962900  0.80559200  0.73441200  1
  H  1340  1  0.75511100  0.70225900  0.77581700  1
  H  1346  1  0.74003800  0.25654900  0.21722400  1
  H  1347  1  0.72978300  0.22519500  0.23903700  1
  H  1350  1  0.78949300  0.30533800  0.26297100  1
  H  1351  1  0.77555200  0.29818200  0.28846600  1
  H  1352  1  0.80563400  0.28572500  0.27930300  1
  H  1354  1  0.77067600  0.23677600  0.30901200  1
  H  1355  1  0.79658500  0.25388900  0.30058200  1
  H  1356  1  0.76642400  0.26544500  0.31069200  1
  H  1358  1  0.74962500  0.20264600  0.27381400  1
  H  1360  1  0.75533600  0.30599700  0.23248600  1
  C  1  1  0.22148800  0.08097500  0.65530300  1
  C  2  1  0.19775600  0.08603300  0.64399000  1
  C  3  1  0.18826500  0.10785500  0.64291500  1
  C  4  1  0.20146100  0.12571900  0.65357700  1
  C  5  1  0.22580100  0.12035400  0.66432100  1
  C  6  1  0.23548600  0.09853000  0.66539900  1
  C  7  1  0.19164100  0.14951700  0.65034600  1
  C  8  1  0.20108400  0.15355700  0.62656700  1
  C  9  1  0.22852000  0.15710500  0.62183000  1
  C  10  1  0.23821800  0.15875200  0.60006500  1
  C  11  1  0.22101500  0.15642300  0.58182400  1
  C  12  1  0.19385700  0.15203500  0.58612000  1
  C  13  1  0.18432800  0.15034700  0.60790400  1
  C  14  1  0.16148100  0.15215400  0.65359300  1
  C  15  1  0.20241500  0.16619000  0.66720100  1
  C  16  1  0.21038900  0.18795500  0.66139800  1
  C  17  1  0.21912100  0.20337000  0.67726300  1
  C  18  1  0.21968900  0.19796300  0.69995800  1
  C  19  1  0.21026200  0.17694400  0.70618200  1
  C  20  1  0.20167400  0.16156600  0.69021700  1
  C  21  1  0.14614900  0.13760700  0.66690900  1
  C  22  1  0.11828500  0.13951900  0.66870500  1
  C  23  1  0.10433000  0.15661500  0.65778100  1
  C  24  1  0.11953700  0.17241500  0.64622400  1
  C  25  1  0.14747200  0.17049300  0.64463700  1
  C  46  1  0.22146800  0.92728400  0.35290800  1
  C  47  1  0.19776900  0.92221400  0.36426100  1
  C  48  1  0.18828500  0.90038900  0.36533700  1
  C  49  1  0.20147500  0.88253000  0.35465900  1
  C  50  1  0.22579900  0.88790500  0.34389700  1
  C  51  1  0.23547000  0.90973300  0.34280900  1
  C  52  1  0.19165900  0.85873100  0.35788500  1
  C  53  1  0.20109400  0.85467500  0.38166100  1
  C  54  1  0.22854200  0.85115400  0.38638600  1
  C  55  1  0.23825900  0.84950400  0.40814500  1
  C  56  1  0.22106900  0.85181600  0.42639500  1
  C  57  1  0.19390700  0.85620600  0.42211500  1
  C  58  1  0.18436400  0.85789900  0.40033700  1
  C  59  1  0.16149900  0.85610000  0.35464600  1
  C  60  1  0.20242700  0.84206600  0.34102000  1
  C  61  1  0.21041500  0.82030200  0.34682100  1
  C  62  1  0.21914300  0.80488500  0.33095400  1
  C  63  1  0.21966900  0.81028100  0.30825800  1
  C  64  1  0.21024400  0.83130200  0.30203400  1
  C  65  1  0.20167200  0.84668300  0.31800200  1
  C  66  1  0.14616000  0.87065200  0.34134000  1
  C  67  1  0.11829500  0.86874600  0.33955800  1
  C  68  1  0.10434700  0.85163800  0.35046800  1
  C  69  1  0.11955800  0.83583900  0.36201800  1
  C  70  1  0.14749400  0.83775600  0.36359600  1
  C  91  1  0.22146600  0.35309400  0.08099900  1
  C  92  1  0.19780200  0.36449300  0.08608200  1
  C  93  1  0.18832200  0.36556300  0.10790900  1
  C  94  1  0.20145300  0.35481400  0.12575500  1
  C  95  1  0.22575100  0.34401500  0.12036500  1
  C  96  1  0.23541900  0.34292800  0.09853600  1
  C  97  1  0.19162200  0.35802400  0.14955300  1
  C  98  1  0.20098500  0.38181800  0.15362700  1
  C  99  1  0.22843000  0.38663700  0.15703500  1
  C  100  1  0.23805000  0.40842400  0.15871000  1
  C  101  1  0.22075300  0.42662400  0.15655400  1
  C  102  1  0.19357300  0.42225600  0.15232100  1
  C  103  1  0.18413500  0.40045100  0.15057500  1
  C  104  1  0.16146600  0.35472300  0.15217500  1
  C  105  1  0.20245700  0.34117700  0.16620800  1
  C  106  1  0.21055100  0.34697600  0.18794600  1
  C  107  1  0.21932000  0.33110800  0.20334400  1
  C  108  1  0.21977800  0.30840600  0.19796200  1
  C  109  1  0.21021600  0.30218400  0.17698400  1
  C  110  1  0.20161200  0.31815400  0.16161800  1
  C  111  1  0.14612800  0.34150500  0.13754300  1
  C  112  1  0.11826900  0.33966300  0.13946900  1
  C  113  1  0.10432100  0.35044900  0.15665600  1
  C  114  1  0.11953400  0.36189900  0.17252800  1
  C  115  1  0.14746400  0.36352500  0.17059300  1
  C  136  1  0.22149800  0.65527000  0.92728400  1
  C  137  1  0.19782000  0.64388800  0.92220500  1
  C  138  1  0.18833300  0.64282300  0.90038200  1
  C  139  1  0.20149300  0.65354100  0.88253300  1
  C  140  1  0.22579100  0.66433900  0.88791500  1
  C  141  1  0.23545600  0.66543000  0.90974500  1
  C  142  1  0.19166500  0.65032700  0.85873300  1
  C  143  1  0.20107400  0.62654000  0.85467900  1
  C  144  1  0.22851600  0.62177200  0.85120200  1
  C  145  1  0.23818000  0.59999700  0.84954200  1
  C  146  1  0.22093200  0.58177500  0.85178500  1
  C  147  1  0.19375900  0.58610200  0.85608700  1
  C  148  1  0.18426300  0.60789400  0.85778400  1
  C  149  1  0.16150800  0.65360200  0.85610200  1
  C  150  1  0.20246300  0.66718500  0.84207400  1
  C  151  1  0.21051300  0.66137800  0.82032600  1
  C  152  1  0.21926200  0.67724400  0.80491800  1
  C  153  1  0.21977000  0.69994300  0.81030700  1
  C  154  1  0.21026000  0.70617000  0.83130200  1
  C  155  1  0.20166400  0.69020400  0.84667500  1
  C  156  1  0.14616200  0.66683600  0.87071100  1
  C  157  1  0.11829700  0.66862200  0.86880900  1
  C  158  1  0.10435700  0.65779700  0.85164300  1
  C  159  1  0.11957400  0.64629700  0.83580900  1
  C  160  1  0.14751300  0.64473900  0.83770800  1
  C  181  1  0.28924800  0.92627500  0.65623700  1
  C  182  1  0.31618400  0.92165600  0.65163400  1
  C  183  1  0.32543900  0.89976200  0.65027900  1
  C  184  1  0.30853400  0.88129000  0.65410000  1
  C  185  1  0.28129700  0.88635200  0.65821000  1
  C  186  1  0.27187500  0.90822200  0.65957000  1
  C  187  1  0.31749100  0.85740400  0.64988300  1
  C  188  1  0.30707400  0.85427700  0.62626000  1
  C  189  1  0.28209200  0.84430500  0.62141200  1
  C  190  1  0.27167700  0.84359400  0.59981000  1
  C  191  1  0.28564200  0.85302700  0.58196600  1
  C  192  1  0.30994200  0.86385200  0.58653100  1
  C  193  1  0.32011000  0.86464000  0.60815000  1
  C  194  1  0.34764400  0.85393200  0.65217900  1
  C  195  1  0.30683500  0.84049300  0.66654400  1
  C  196  1  0.30725900  0.81753700  0.66161800  1
  C  197  1  0.29844600  0.80147600  0.67678500  1
  C  198  1  0.28924200  0.80750500  0.69792600  1
  C  199  1  0.29013700  0.83011200  0.70364700  1
  C  200  1  0.29909100  0.84609200  0.68842200  1
  C  201  1  0.36173400  0.86254500  0.67062700  1
  C  202  1  0.38962800  0.86079100  0.67249400  1
  C  203  1  0.40470400  0.84948600  0.65633800  1
  C  204  1  0.39074300  0.83886900  0.63918200  1
  C  205  1  0.36286300  0.84081500  0.63734400  1
  C  226  1  0.28915600  0.08199000  0.35199500  1
  C  227  1  0.31609800  0.08659900  0.35657700  1
  C  228  1  0.32536600  0.10849100  0.35792300  1
  C  229  1  0.30847600  0.12697100  0.35410300  1
  C  230  1  0.28123000  0.12191600  0.35001800  1
  C  231  1  0.27179300  0.10004900  0.34866500  1
  C  232  1  0.31741700  0.15085700  0.35833700  1
  C  233  1  0.30699200  0.15399100  0.38195800  1
  C  234  1  0.28200100  0.16394000  0.38681200  1
  C  235  1  0.27157800  0.16463300  0.40841200  1
  C  236  1  0.28552500  0.15516000  0.42624600  1
  C  237  1  0.30984100  0.14436100  0.42168000  1
  C  238  1  0.32000700  0.14359100  0.40006000  1
  C  239  1  0.34757200  0.15432300  0.35605300  1
  C  240  1  0.30677100  0.16778100  0.34168500  1
  C  241  1  0.30720700  0.19073500  0.34661100  1
  C  242  1  0.29840400  0.20680500  0.33144800  1
  C  243  1  0.28919600  0.20078200  0.31030400  1
  C  244  1  0.29006900  0.17817400  0.30458400  1
  C  245  1  0.29901600  0.16218900  0.31980700  1
  C  246  1  0.36166200  0.14572600  0.33759700  1
  C  247  1  0.38955400  0.14749100  0.33572000  1
  C  248  1  0.40463300  0.15876400  0.35189400  1
  C  249  1  0.39067800  0.16936200  0.36906500  1
  C  250  1  0.36279400  0.16742600  0.37089900  1
  C  271  1  0.28921400  0.65618500  0.08199400  1
  C  272  1  0.31616400  0.65163100  0.08660400  1
  C  273  1  0.32542700  0.65026300  0.10849600  1
  C  274  1  0.30851200  0.65402600  0.12697000  1
  C  275  1  0.28126200  0.65809200  0.12192100  1
  C  276  1  0.27183300  0.65946700  0.10005300  1
  C  277  1  0.31745500  0.64981100  0.15086200  1
  C  278  1  0.30702200  0.62619000  0.15399800  1
  C  279  1  0.28208000  0.62134300  0.16404100  1
  C  280  1  0.27166400  0.59974300  0.16477500  1
  C  281  1  0.28555500  0.58190500  0.15525700  1
  C  282  1  0.30981900  0.58646700  0.14437400  1
  C  283  1  0.32000500  0.60808000  0.14358700  1
  C  284  1  0.34761200  0.65209200  0.15433100  1
  C  285  1  0.30681100  0.66648500  0.16776800  1
  C  286  1  0.30730500  0.66159000  0.19072800  1
  C  287  1  0.29848800  0.67675800  0.20678600  1
  C  288  1  0.28921200  0.69787700  0.20074600  1
  C  289  1  0.29004700  0.70357400  0.17813100  1
  C  290  1  0.29900200  0.68834300  0.16215500  1
  C  291  1  0.36169800  0.67056100  0.14575700  1
  C  292  1  0.38958800  0.67244600  0.14752900  1
  C  293  1  0.40467600  0.65625600  0.15877400  1
  C  294  1  0.39072900  0.63905300  0.16932700  1
  C  295  1  0.36284800  0.63721300  0.16738700  1
  C  316  1  0.28914800  0.35205800  0.92628400  1
  C  317  1  0.31608000  0.35666900  0.92166700  1
  C  318  1  0.32534400  0.35801400  0.89977500  1
  C  319  1  0.30844600  0.35417500  0.88130200  1
  C  320  1  0.28121200  0.35005200  0.88635900  1
  C  321  1  0.27178300  0.34869900  0.90822800  1
  C  322  1  0.31741100  0.35838700  0.85741800  1
  C  323  1  0.30699400  0.38201100  0.85428300  1
  C  324  1  0.28200900  0.38685300  0.84431700  1
  C  325  1  0.27159000  0.40845300  0.84360700  1
  C  326  1  0.28555900  0.42630400  0.85302600  1
  C  327  1  0.30986900  0.42174200  0.86384100  1
  C  328  1  0.32003700  0.40012600  0.86463100  1
  C  329  1  0.34756200  0.35608600  0.85395200  1
  C  330  1  0.30676300  0.34172800  0.84050100  1
  C  331  1  0.30717900  0.34664900  0.81754600  1
  C  332  1  0.29837200  0.33148100  0.80148400  1
  C  333  1  0.28918000  0.31033400  0.80751400  1
  C  334  1  0.29007300  0.30461900  0.83012300  1
  C  335  1  0.29902900  0.31984700  0.84610100  1
  C  336  1  0.36165200  0.33764600  0.86258700  1
  C  337  1  0.38954400  0.33577000  0.86082900  1
  C  338  1  0.40462300  0.35191600  0.84951400  1
  C  339  1  0.39066800  0.36907000  0.83888500  1
  C  340  1  0.36278600  0.37091200  0.84082800  1
  C  361  1  0.78701100  0.92731800  0.35291400  1
  C  362  1  0.81047400  0.92213800  0.36455600  1
  C  363  1  0.81987300  0.90028800  0.36564000  1
  C  364  1  0.80684700  0.88251300  0.35468700  1
  C  365  1  0.78278800  0.88800600  0.34358000  1
  C  366  1  0.77320000  0.90985700  0.34248700  1
  C  367  1  0.81660000  0.85869000  0.35789700  1
  C  368  1  0.80716500  0.85461200  0.38167700  1
  C  369  1  0.77965400  0.85150700  0.38643500  1
  C  370  1  0.76995600  0.84986700  0.40819900  1
  C  371  1  0.78724800  0.85174000  0.42643300  1
  C  372  1  0.81452600  0.85558600  0.42212500  1
  C  373  1  0.82405900  0.85727600  0.40034200  1
  C  374  1  0.84675700  0.85603000  0.35462900  1
  C  375  1  0.80574300  0.84206100  0.34102200  1
  C  376  1  0.79720300  0.82044000  0.34682100  1
  C  377  1  0.78841300  0.80508200  0.33092300  1
  C  378  1  0.78832200  0.81039300  0.30820000  1
  C  379  1  0.79825500  0.83125900  0.30199800  1
  C  380  1  0.80690100  0.84658300  0.31799400  1
  C  381  1  0.86219000  0.87074400  0.34156800  1
  C  382  1  0.89000000  0.86858600  0.33954300  1
  C  383  1  0.90378800  0.85118900  0.35010900  1
  C  384  1  0.88850200  0.83522300  0.36134000  1
  C  385  1  0.86061400  0.83740100  0.36316500  1
  C  406  1  0.78704300  0.08093000  0.65534000  1
  C  407  1  0.81051800  0.08610400  0.64371300  1
  C  408  1  0.81993500  0.10795100  0.64264100  1
  C  409  1  0.80689100  0.12573200  0.65356900  1
  C  410  1  0.78279400  0.12025300  0.66462600  1
  C  411  1  0.77320400  0.09840200  0.66572400  1
  C  412  1  0.81667000  0.14955100  0.65038000  1
  C  413  1  0.80726500  0.15365800  0.62660000  1
  C  414  1  0.77975400  0.15679700  0.62184300  1
  C  415  1  0.77004800  0.15843500  0.60008100  1
  C  416  1  0.78732800  0.15651800  0.58184400  1
  C  417  1  0.81459400  0.15261800  0.58614500  1
  C  418  1  0.82412800  0.15091400  0.60792900  1
  C  419  1  0.84682900  0.15217400  0.65366300  1
  C  420  1  0.80582500  0.16617700  0.66726400  1
  C  421  1  0.79736000  0.18782000  0.66147100  1
  C  422  1  0.78856700  0.20318000  0.67736700  1
  C  423  1  0.78842700  0.19785600  0.70008700  1
  C  424  1  0.79827900  0.17696200  0.70628400  1
  C  425  1  0.80691000  0.16163400  0.69029000  1
  C  426  1  0.86219800  0.13748400  0.66680000  1
  C  427  1  0.89000800  0.13959900  0.66885100  1
  C  428  1  0.90386600  0.15693800  0.65825300  1
  C  429  1  0.88863800  0.17289600  0.64695100  1
  C  430  1  0.86074600  0.17075700  0.64509700  1
  C  451  1  0.78701500  0.65522200  0.92731500  1
  C  452  1  0.81043700  0.64353400  0.92211600  1
  C  453  1  0.81983100  0.64246200  0.90026300  1
  C  454  1  0.80684700  0.65347100  0.88250200  1
  C  455  1  0.78280200  0.66459300  0.88801100  1
  C  456  1  0.77322300  0.66568900  0.90986500  1
  C  457  1  0.81660800  0.65027800  0.85867800  1
  C  458  1  0.80725900  0.62648100  0.85457200  1
  C  459  1  0.77975000  0.62163500  0.85157700  1
  C  460  1  0.77013400  0.59984500  0.84992100  1
  C  461  1  0.78752100  0.58165800  0.85165900  1
  C  462  1  0.81480500  0.58604600  0.85537600  1
  C  463  1  0.82424000  0.60785400  0.85712200  1
  C  464  1  0.84676100  0.65360200  0.85602600  1
  C  465  1  0.80568900  0.66714300  0.84206600  1
  C  466  1  0.79706900  0.66134500  0.82046700  1
  C  467  1  0.78824800  0.67724400  0.80511800  1
  C  468  1  0.78825000  0.69997100  0.81040100  1
  C  469  1  0.79826100  0.70617300  0.83124200  1
  C  470  1  0.80691200  0.69017600  0.84656000  1
  C  471  1  0.86219400  0.66659400  0.87080100  1
  C  472  1  0.89000200  0.66864300  0.86864400  1
  C  473  1  0.90378800  0.65817800  0.85118600  1
  C  474  1  0.88850000  0.64703600  0.83516000  1
  C  475  1  0.86061200  0.64518800  0.83734000  1
  C  496  1  0.78704300  0.35300300  0.08094000  1
  C  497  1  0.81051600  0.36463400  0.08611300  1
  C  498  1  0.81993500  0.36570300  0.10795900  1
  C  499  1  0.80690200  0.35476300  0.12573800  1
  C  500  1  0.78281600  0.34369000  0.12025700  1
  C  501  1  0.77322500  0.34259100  0.09840600  1
  C  502  1  0.81669000  0.35794600  0.14955600  1
  C  503  1  0.80729300  0.38173200  0.15365800  1
  C  504  1  0.77979000  0.38651100  0.15678600  1
  C  505  1  0.77012000  0.40828300  0.15844100  1
  C  506  1  0.78743300  0.42650400  0.15656900  1
  C  507  1  0.81470200  0.42217300  0.15270600  1
  C  508  1  0.82420800  0.40038100  0.15099700  1
  C  509  1  0.84684900  0.35463600  0.15217600  1
  C  510  1  0.80583100  0.34106800  0.16617800  1
  C  511  1  0.79735200  0.34686200  0.18781800  1
  C  512  1  0.78853900  0.33096900  0.20317400  1
  C  513  1  0.78837600  0.30825100  0.19784500  1
  C  514  1  0.79826900  0.30204900  0.17696500  1
  C  515  1  0.80692200  0.31804100  0.16164300  1
  C  516  1  0.86220200  0.34151500  0.13746000  1
  C  517  1  0.89001000  0.33943200  0.13957400  1
  C  518  1  0.90388600  0.34999300  0.15692900  1
  C  519  1  0.88867200  0.36130200  0.17289100  1
  C  520  1  0.86077600  0.36316000  0.17077300  1
  C  541  1  0.71922900  0.08202400  0.35234800  1
  C  542  1  0.69256600  0.08664400  0.35793100  1
  C  543  1  0.68329200  0.10853300  0.35925000  1
  C  544  1  0.69983300  0.12697400  0.35434500  1
  C  545  1  0.72685500  0.12193300  0.34935400  1
  C  546  1  0.73630500  0.10006600  0.34803600  1
  C  547  1  0.69077100  0.15085400  0.35837200  1
  C  548  1  0.70097700  0.15408800  0.38203200  1
  C  549  1  0.72659200  0.16295300  0.38676400  1
  C  550  1  0.73695500  0.16363000  0.40838100  1
  C  551  1  0.72231200  0.15521400  0.42636000  1
  C  552  1  0.69732100  0.14545900  0.42192400  1
  C  553  1  0.68719700  0.14469700  0.40028600  1
  C  554  1  0.66065600  0.15424400  0.35577900  1
  C  555  1  0.70149100  0.16776300  0.34175100  1
  C  556  1  0.70202300  0.19065400  0.34694100  1
  C  557  1  0.71080000  0.20668600  0.33173000  1
  C  558  1  0.71898000  0.20069800  0.31028900  1
  C  559  1  0.71707900  0.17819300  0.30433300  1
  C  560  1  0.70814200  0.16225000  0.31960600  1
  C  561  1  0.64658900  0.14471700  0.33777700  1
  C  562  1  0.61875700  0.14668400  0.33561800  1
  C  563  1  0.60374500  0.15908700  0.35097700  1
  C  564  1  0.61769100  0.17052200  0.36760400  1
  C  565  1  0.64552600  0.16834400  0.36975800  1
  C  586  1  0.71920900  0.92624100  0.65587800  1
  C  587  1  0.69249800  0.92164400  0.65043500  1
  C  588  1  0.68319700  0.89976200  0.64913200  1
  C  589  1  0.69975300  0.88130000  0.65391900  1
  C  590  1  0.72682100  0.88632300  0.65876700  1
  C  591  1  0.73630100  0.90818200  0.66007500  1
  C  592  1  0.69068500  0.85742100  0.64989200  1
  C  593  1  0.70088700  0.85415500  0.62623700  1
  C  594  1  0.72644400  0.84519000  0.62147800  1
  C  595  1  0.73681100  0.84452100  0.59986300  1
  C  596  1  0.72224500  0.85307900  0.58190800  1
  C  597  1  0.69730300  0.86291200  0.58636000  1
  C  598  1  0.68718500  0.86366900  0.60800300  1
  C  599  1  0.66056400  0.85405700  0.65248900  1
  C  600  1  0.70139900  0.84050800  0.66651400  1
  C  601  1  0.70177800  0.81760300  0.66137500  1
  C  602  1  0.71055500  0.80157100  0.67658700  1
  C  603  1  0.71889400  0.80757200  0.69798100  1
  C  604  1  0.71715500  0.83009700  0.70389300  1
  C  605  1  0.70822000  0.84604300  0.68862000  1
  C  606  1  0.64657300  0.86348400  0.67058800  1
  C  607  1  0.61874700  0.86154800  0.67278900  1
  C  608  1  0.60365100  0.84927100  0.65738300  1
  C  609  1  0.61752200  0.83792800  0.64064800  1
  C  610  1  0.64535600  0.84007500  0.63845100  1
  C  631  1  0.71923900  0.35242700  0.92623900  1
  C  632  1  0.69257200  0.35799600  0.92162300  1
  C  633  1  0.68329200  0.35932100  0.89973400  1
  C  634  1  0.69984100  0.35444100  0.88129500  1
  C  635  1  0.72686800  0.34945500  0.88632600  1
  C  636  1  0.73631900  0.34813100  0.90819400  1
  C  637  1  0.69080100  0.35846300  0.85740800  1
  C  638  1  0.70102200  0.38211800  0.85417100  1
  C  639  1  0.72662500  0.38684500  0.84528400  1
  C  640  1  0.73699200  0.40846000  0.84458900  1
  C  641  1  0.72238400  0.42643900  0.85304700  1
  C  642  1  0.69739900  0.42201100  0.86281600  1
  C  643  1  0.68725900  0.40037600  0.86357300  1
  C  644  1  0.66068400  0.35588500  0.85400600  1
  C  645  1  0.70151500  0.34182700  0.84050800  1
  C  646  1  0.70203600  0.34700100  0.81761200  1
  C  647  1  0.71082200  0.33178100  0.80159000  1
  C  648  1  0.71901300  0.31034700  0.80759000  1
  C  649  1  0.71710300  0.30440300  0.83009700  1
  C  650  1  0.70816800  0.31968700  0.84603300  1
  C  651  1  0.64660100  0.33788100  0.86351600  1
  C  652  1  0.61877300  0.33572000  0.86151500  1
  C  653  1  0.60377400  0.35108900  0.84910900  1
  C  654  1  0.61773900  0.36772700  0.83770200  1
  C  655  1  0.64557100  0.36987900  0.83990800  1
  C  676  1  0.71923100  0.65581800  0.08201800  1
  C  677  1  0.69255200  0.65027300  0.08662200  1
  C  678  1  0.68325500  0.64896900  0.10850600  1
  C  679  1  0.69979300  0.65384400  0.12695700  1
  C  680  1  0.72682900  0.65879600  0.12193300  1
  C  681  1  0.73629900  0.66010400  0.10007100  1
  C  682  1  0.69069700  0.64983700  0.15083300  1
  C  683  1  0.70088900  0.62617900  0.15409700  1
  C  684  1  0.72648000  0.62144500  0.16301100  1
  C  685  1  0.73685100  0.59983200  0.16369100  1
  C  686  1  0.72223900  0.58185100  0.15524600  1
  C  687  1  0.69726500  0.58628500  0.14545600  1
  C  688  1  0.68713500  0.60792200  0.14468500  1
  C  689  1  0.66058000  0.65245500  0.15419000  1
  C  690  1  0.70140900  0.66646300  0.16774300  1
  C  691  1  0.70187100  0.66130600  0.19064200  1
  C  692  1  0.71065200  0.67652400  0.20666800  1
  C  693  1  0.71890600  0.69794000  0.20066500  1
  C  694  1  0.71707300  0.70386800  0.17814900  1
  C  695  1  0.70813000  0.68859000  0.16221300  1
  C  696  1  0.64656900  0.67049400  0.14467200  1
  C  697  1  0.61874100  0.67268500  0.14659700  1
  C  698  1  0.60366100  0.65732200  0.15894100  1
  C  699  1  0.61754800  0.64065100  0.17036600  1
  C  700  1  0.64538600  0.63846600  0.16823200  1
  C  721  1  0.26795600  0.15334200  0.48414700  1
  C  722  1  0.26446000  0.17354300  0.49531200  1
  C  723  1  0.24938500  0.17465000  0.51472400  1
  C  724  1  0.23766200  0.15554500  0.52378300  1
  C  725  1  0.24121600  0.13475300  0.51301600  1
  C  728  1  0.25653500  0.13363800  0.49301000  1
  C  729  1  0.22935300  0.11412900  0.52254700  1
  C  733  1  0.26034600  0.11189800  0.48158700  1
  C  737  1  0.28410600  0.15368200  0.46561800  1
  C  739  1  0.22142200  0.15873700  0.54201200  1
  C  741  1  0.26804600  0.85485800  0.52407400  1
  C  742  1  0.26456800  0.83467000  0.51288200  1
  C  743  1  0.24949500  0.83357900  0.49346900  1
  C  744  1  0.23778300  0.85269400  0.48441800  1
  C  745  1  0.24129900  0.87346900  0.49522500  1
  C  748  1  0.25661100  0.87456700  0.51523600  1
  C  749  1  0.22942000  0.89409900  0.48571800  1
  C  753  1  0.26040000  0.89629400  0.52668600  1
  C  757  1  0.28419800  0.85450100  0.54260100  1
  C  759  1  0.22151400  0.84950600  0.46620700  1
  C  761  1  0.26788000  0.52401900  0.15345000  1
  C  762  1  0.26399000  0.51314500  0.17375700  1
  C  763  1  0.24882000  0.49378900  0.17495000  1
  C  764  1  0.23741900  0.48446700  0.15583400  1
  C  765  1  0.24140700  0.49493300  0.13493600  1
  C  768  1  0.25678600  0.51490400  0.13373500  1
  C  769  1  0.22992600  0.48512800  0.11429300  1
  C  773  1  0.26095600  0.52605600  0.11189900  1
  C  777  1  0.28407100  0.54252500  0.15371700  1
  C  779  1  0.22089400  0.46642000  0.15916400  1
  C  781  1  0.26797600  0.48420200  0.85482300  1
  C  782  1  0.26431100  0.49528100  0.83459700  1
  C  783  1  0.24920000  0.51467300  0.83349000  1
  C  784  1  0.23764400  0.52382400  0.85262300  1
  C  785  1  0.24136900  0.51313800  0.87343800  1
  C  788  1  0.25670500  0.49313900  0.87455200  1
  C  789  1  0.22968100  0.52275500  0.89409300  1
  C  793  1  0.26067100  0.48179400  0.89631200  1
  C  797  1  0.28413000  0.46567600  0.85447300  1
  C  799  1  0.22124700  0.54195200  0.84940000  1
  C  801  1  0.73984300  0.85469900  0.52398600  1
  C  802  1  0.74357100  0.83455500  0.51277200  1
  C  803  1  0.75876300  0.83358900  0.49341300  1
  C  804  1  0.77037100  0.85278500  0.48444300  1
  C  805  1  0.76656200  0.87352500  0.49525300  1
  C  808  1  0.75113300  0.87449400  0.51521100  1
  C  809  1  0.77826200  0.89425300  0.48580600  1
  C  813  1  0.74704700  0.89618500  0.52666100  1
  C  817  1  0.72364500  0.85418400  0.54249000  1
  C  819  1  0.78676800  0.84973300  0.46628000  1
  C  821  1  0.73990300  0.15362400  0.48428300  1
  C  822  1  0.74365400  0.17375000  0.49552500  1
  C  823  1  0.75884000  0.17468000  0.51488800  1
  C  824  1  0.77040100  0.15545800  0.52384600  1
  C  825  1  0.76658000  0.13473700  0.51300300  1
  C  828  1  0.75115700  0.13380700  0.49304000  1
  C  829  1  0.77824800  0.11398800  0.52243000  1
  C  833  1  0.74704100  0.11213100  0.48156800  1
  C  837  1  0.72371700  0.15418300  0.46577300  1
  C  839  1  0.78682600  0.15848300  0.54199500  1
  C  841  1  0.74000500  0.48436200  0.85456600  1
  C  842  1  0.74414000  0.49530600  0.83432800  1
  C  843  1  0.75941400  0.51461700  0.83330700  1
  C  844  1  0.77067600  0.52383600  0.85253100  1
  C  845  1  0.76640800  0.51331300  0.87336400  1
  C  848  1  0.75093300  0.49338300  0.87438900  1
  C  849  1  0.77769400  0.52302600  0.89412600  1
  C  853  1  0.74645900  0.48219000  0.89616200  1
  C  857  1  0.72379300  0.46586600  0.85408700  1
  C  859  1  0.78734000  0.54183200  0.84937200  1
  C  861  1  0.73987300  0.52393500  0.15366300  1
  C  862  1  0.74377600  0.51280000  0.17383000  1
  C  863  1  0.75901600  0.49346900  0.17478900  1
  C  864  1  0.77047000  0.48442100  0.15556400  1
  C  865  1  0.76647800  0.49515200  0.13480300  1
  C  868  1  0.75101700  0.51509400  0.13384100  1
  C  869  1  0.77801100  0.48562900  0.11404500  1
  C  873  1  0.74676400  0.52646800  0.11213200  1
  C  877  1  0.72366300  0.54243100  0.15419600  1
  C  879  1  0.78702500  0.46635900  0.15864000  1
  C  881  1  0.75631800  0.65981700  0.98136600  1
  C  882  1  0.76083800  0.67837400  0.99489900  1
  C  883  1  0.75816900  0.67698300  0.01785800  1
  C  884  1  0.75083000  0.65699800  0.02811700  1
  C  885  1  0.74632200  0.63783400  0.01485700  1
  C  888  1  0.74864100  0.63935400  0.99124800  1
  C  889  1  0.73948100  0.61614900  0.02536700  1
  C  893  1  0.74278200  0.61956100  0.97719500  1
  C  897  1  0.75913700  0.66305000  0.95880000  1
  C  899  1  0.74923600  0.65732200  0.05099600  1
  C  901  1  0.75631000  0.34841700  0.02690400  1
  C  902  1  0.76079100  0.32984700  0.01337900  1
  C  903  1  0.75811500  0.33123100  0.99042000  1
  C  904  1  0.75079600  0.35121800  0.98015400  1
  C  905  1  0.74633800  0.37039500  0.99340500  1
  C  908  1  0.74866600  0.36888500  0.01701400  1
  C  909  1  0.73953400  0.39208300  0.98288700  1
  C  913  1  0.74285700  0.38869300  0.03105900  1
  C  917  1  0.75913300  0.34519200  0.04947100  1
  C  919  1  0.74922000  0.35089100  0.95727500  1
  C  921  1  0.75629800  0.02689600  0.65988500  1
  C  922  1  0.76078700  0.01336200  0.67844500  1
  C  923  1  0.75811500  0.99040300  0.67705100  1
  C  924  1  0.75079800  0.98014600  0.65705900  1
  C  925  1  0.74632400  0.99340700  0.63789000  1
  C  928  1  0.74864800  0.01701500  0.63941300  1
  C  929  1  0.73950500  0.98289900  0.61620000  1
  C  933  1  0.74283300  0.03107000  0.61961300  1
  C  937  1  0.75911900  0.04946100  0.66312100  1
  C  939  1  0.74921200  0.95726700  0.65737600  1
  C  941  1  0.75628200  0.98135600  0.34834600  1
  C  942  1  0.76075900  0.99487900  0.32977600  1
  C  943  1  0.75808900  0.01783900  0.33115900  1
  C  944  1  0.75078200  0.02810700  0.35114700  1
  C  945  1  0.74632800  0.01485700  0.37032800  1
  C  948  1  0.74865000  0.99124800  0.36881700  1
  C  949  1  0.73953400  0.02537800  0.39201700  1
  C  953  1  0.74284900  0.97720500  0.38862900  1
  C  957  1  0.75909500  0.95879000  0.34512100  1
  C  959  1  0.74920800  0.05098700  0.35082000  1
  C  961  1  0.25229200  0.34854200  0.02700900  1
  C  962  1  0.24775400  0.32996200  0.01351300  1
  C  963  1  0.25038600  0.33131600  0.99054800  1
  C  964  1  0.25772900  0.35128000  0.98025700  1
  C  965  1  0.26228300  0.37046100  0.99347800  1
  C  968  1  0.25996200  0.36898900  0.01708800  1
  C  969  1  0.26919100  0.39211100  0.98292500  1
  C  973  1  0.26578900  0.38881500  0.03110300  1
  C  977  1  0.24948500  0.34535400  0.04958000  1
  C  979  1  0.25921900  0.35095000  0.95737900  1
  C  981  1  0.25234800  0.65978100  0.98126700  1
  C  982  1  0.24783800  0.67835800  0.99477300  1
  C  983  1  0.25047700  0.67699000  0.01773700  1
  C  984  1  0.25781600  0.65701600  0.02801400  1
  C  985  1  0.26233000  0.63783500  0.01478200  1
  C  988  1  0.25999600  0.63932300  0.99117400  1
  C  989  1  0.26921700  0.61617600  0.02532200  1
  C  993  1  0.26578300  0.61949600  0.97714700  1
  C  997  1  0.24953500  0.66298300  0.95869900  1
  C  999  1  0.25929200  0.65732500  0.05089300  1
  C  1001  1  0.25232000  0.98126700  0.34841700  1
  C  1002  1  0.24781600  0.99476700  0.32983500  1
  C  1003  1  0.25043900  0.01773200  0.33120000  1
  C  1004  1  0.25774000  0.02801700  0.35117800  1
  C  1005  1  0.26226100  0.01479100  0.37036200  1
  C  1008  1  0.25994400  0.99118200  0.36887900  1
  C  1009  1  0.26912600  0.02533900  0.39202400  1
  C  1013  1  0.26572900  0.97716200  0.38871000  1
  C  1017  1  0.24952100  0.95869700  0.34522000  1
  C  1019  1  0.25922700  0.05089600  0.35086000  1
  C  1021  1  0.25237600  0.02700500  0.65978700  1
  C  1022  1  0.24789700  0.01351100  0.67837900  1
  C  1023  1  0.25054100  0.99054700  0.67702600  1
  C  1024  1  0.25785000  0.98025700  0.65705100  1
  C  1025  1  0.26233200  0.99347500  0.63785500  1
  C  1028  1  0.25999400  0.01708400  0.63932700  1
  C  1029  1  0.26919100  0.98292000  0.61619700  1
  C  1033  1  0.26574300  0.03109700  0.61948500  1
  C  1037  1  0.24956700  0.04957500  0.66297600  1
  C  1039  1  0.25933000  0.95737700  0.65737500  1
  C  1041  1  0.03218900  0.15010900  0.66054300  1
  C  1042  1  0.01726600  0.15731500  0.67890400  1
  C  1043  1  0.98935400  0.15703800  0.67851900  1
  C  1044  1  0.97539500  0.14960400  0.65974500  1
  C  1045  1  0.98998000  0.14336000  0.64045800  1
  C  1048  1  0.01860800  0.14338500  0.64092700  1
  C  1049  1  0.97553300  0.13615800  0.62002600  1
  C  1053  1  0.03391200  0.13545200  0.62119900  1
  C  1057  1  0.05898300  0.14587800  0.66429300  1
  C  1059  1  0.94867700  0.14454500  0.66295500  1
  C  1061  1  0.03220300  0.85810100  0.34770900  1
  C  1062  1  0.01717900  0.85079100  0.32944400  1
  C  1063  1  0.98926900  0.85104500  0.32994200  1
  C  1064  1  0.97542300  0.85849900  0.34876800  1
  C  1065  1  0.99011300  0.86486200  0.36795600  1
  C  1068  1  0.01873500  0.86488900  0.36735700  1
  C  1069  1  0.97576600  0.87211300  0.38841900  1
  C  1073  1  0.03413500  0.87295300  0.38698200  1
  C  1077  1  0.05898300  0.86228800  0.34384200  1
  C  1079  1  0.94868700  0.86351200  0.34566100  1
  C  1081  1  0.03218500  0.34772500  0.15014500  1
  C  1082  1  0.01736500  0.32929700  0.15731600  1
  C  1083  1  0.98945200  0.32958600  0.15706000  1
  C  1084  1  0.97538500  0.34832300  0.14966800  1
  C  1085  1  0.98986800  0.36767500  0.14345600  1
  C  1088  1  0.01849800  0.36731100  0.14348200  1
  C  1089  1  0.97531600  0.38805900  0.13627000  1
  C  1093  1  0.03370700  0.38712000  0.13562500  1
  C  1097  1  0.05898000  0.34407500  0.14584100  1
  C  1099  1  0.94866700  0.34500100  0.14462700  1
  C  1101  1  0.03220600  0.66058100  0.85807900  1
  C  1102  1  0.01715800  0.67883100  0.85076300  1
  C  1103  1  0.98924900  0.67831300  0.85102700  1
  C  1104  1  0.97542700  0.65948000  0.85849400  1
  C  1105  1  0.99013900  0.64030400  0.86485400  1
  C  1108  1  0.01876100  0.64092500  0.86488100  1
  C  1109  1  0.97581600  0.61982800  0.87210300  1
  C  1113  1  0.03418100  0.62132000  0.87296100  1
  C  1117  1  0.05898600  0.66447500  0.86225000  1
  C  1119  1  0.94869100  0.66257000  0.86352200  1
  C  1121  1  0.47606700  0.85779700  0.66162300  1
  C  1122  1  0.49030000  0.84919700  0.67974400  1
  C  1123  1  0.51820600  0.84922500  0.67996200  1
  C  1124  1  0.53285200  0.85788500  0.66209300  1
  C  1125  1  0.51897100  0.86593400  0.64311500  1
  C  1128  1  0.49033200  0.86596200  0.64290700  1
  C  1129  1  0.53408800  0.87488200  0.62373300  1
  C  1133  1  0.47569600  0.87525700  0.62342800  1
  C  1137  1  0.44897000  0.86106700  0.66475000  1
  C  1139  1  0.55979000  0.86141000  0.66602600  1
  C  1141  1  0.47600500  0.15048300  0.34662800  1
  C  1142  1  0.49034600  0.15913400  0.32858600  1
  C  1143  1  0.51825400  0.15912500  0.32848800  1
  C  1144  1  0.53278300  0.15049000  0.34643500  1
  C  1145  1  0.51879600  0.14237400  0.36532400  1
  C  1148  1  0.49015700  0.14229700  0.36539300  1
  C  1149  1  0.53380900  0.13342900  0.38476200  1
  C  1153  1  0.47541900  0.13291500  0.38477800  1
  C  1157  1  0.44892000  0.14725300  0.34339800  1
  C  1159  1  0.55971600  0.14696700  0.34264600  1
  C  1161  1  0.47604100  0.66157600  0.15045600  1
  C  1162  1  0.49034000  0.67966200  0.15906100  1
  C  1163  1  0.51824600  0.67983600  0.15899400  1
  C  1164  1  0.53281900  0.66195300  0.15028500  1
  C  1165  1  0.51888400  0.64299600  0.14225200  1
  C  1168  1  0.49024500  0.64284400  0.14225100  1
  C  1169  1  0.53393800  0.62358600  0.13329200  1
  C  1173  1  0.47554700  0.62340600  0.13293400  1
  C  1177  1  0.44894200  0.66475300  0.14723700  1
  C  1179  1  0.55974800  0.66580800  0.14671900  1
  C  1181  1  0.47598900  0.34665300  0.85777400  1
  C  1182  1  0.49029600  0.32860400  0.84910000  1
  C  1183  1  0.51820400  0.32849500  0.84905800  1
  C  1184  1  0.53276700  0.34643200  0.85767200  1
  C  1185  1  0.51881400  0.36532400  0.86582300  1
  C  1188  1  0.49017700  0.36540900  0.86594300  1
  C  1189  1  0.53386000  0.38474400  0.87476600  1
  C  1193  1  0.47546900  0.38480300  0.87533900  1
  C  1197  1  0.44890600  0.34344100  0.86103200  1
  C  1199  1  0.55974200  0.34265400  0.86106500  1
  C  1201  1  0.25906700  0.26867000  0.77185300  1
  C  1202  1  0.26706400  0.24637000  0.77051300  1
  C  1203  1  0.26090200  0.23339700  0.75204000  1
  C  1204  1  0.24639500  0.24219700  0.73416100  1
  C  1205  1  0.23782300  0.26469400  0.73505400  1
  C  1208  1  0.24378000  0.27789700  0.75417900  1
  C  1209  1  0.22231000  0.27453000  0.71629400  1
  C  1213  1  0.23351600  0.30111500  0.75551500  1
  C  1217  1  0.26554400  0.27980500  0.79128000  1
  C  1219  1  0.24278200  0.22875000  0.71576200  1
  C  1221  1  0.25904900  0.73952600  0.23639800  1
  C  1222  1  0.26698200  0.76184500  0.23769500  1
  C  1223  1  0.26081400  0.77483300  0.25615300  1
  C  1224  1  0.24635300  0.76603700  0.27406000  1
  C  1225  1  0.23786100  0.74351700  0.27321800  1
  C  1228  1  0.24382300  0.73029600  0.25410700  1
  C  1229  1  0.22241600  0.73367900  0.29201300  1
  C  1233  1  0.23363200  0.70705300  0.25282300  1
  C  1237  1  0.26551600  0.72837600  0.21697800  1
  C  1239  1  0.24276800  0.77949900  0.29245200  1
  C  1241  1  0.25908700  0.23646400  0.26865200  1
  C  1242  1  0.26707000  0.23778800  0.24634600  1
  C  1243  1  0.26093200  0.25626200  0.23337100  1
  C  1244  1  0.24646500  0.27416400  0.24217300  1
  C  1245  1  0.23790700  0.27328800  0.26467400  1
  C  1248  1  0.24383900  0.25416100  0.27788100  1
  C  1249  1  0.22243400  0.29206900  0.27451100  1
  C  1253  1  0.23359200  0.25284400  0.30110300  1
  C  1257  1  0.26554400  0.21703400  0.27979000  1
  C  1259  1  0.24289300  0.29256600  0.22872000  1
  C  1261  1  0.25910500  0.77184900  0.73958400  1
  C  1262  1  0.26710200  0.77051300  0.76188400  1
  C  1263  1  0.26093400  0.75204600  0.77486100  1
  C  1264  1  0.24640900  0.73417100  0.76607000  1
  C  1265  1  0.23785300  0.73505500  0.74356800  1
  C  1268  1  0.24381500  0.75417500  0.73036000  1
  C  1269  1  0.22234000  0.71629400  0.73373700  1
  C  1273  1  0.23356200  0.75550500  0.70713900  1
  C  1277  1  0.26558800  0.79127300  0.72844600  1
  C  1279  1  0.24283100  0.71576600  0.77951500  1
  C  1281  1  0.74880800  0.73987100  0.23613500  1
  C  1282  1  0.74060400  0.76211500  0.23757500  1
  C  1283  1  0.74677600  0.77508400  0.25604600  1
  C  1284  1  0.76148200  0.76633700  0.27383900  1
  C  1285  1  0.77025300  0.74389700  0.27285400  1
  C  1288  1  0.76432100  0.73071000  0.25371200  1
  C  1289  1  0.78592700  0.73410600  0.29154400  1
  C  1293  1  0.77484900  0.70758100  0.25225700  1
  C  1297  1  0.74221200  0.72871600  0.21674200  1
  C  1299  1  0.76504400  0.77975300  0.29226400  1
  C  1301  1  0.74890700  0.26840100  0.77213200  1
  C  1302  1  0.74070200  0.24615700  0.77068700  1
  C  1303  1  0.74688700  0.23318600  0.75222100  1
  C  1304  1  0.76161500  0.24193000  0.73444000  1
  C  1305  1  0.77038300  0.26437000  0.73542700  1
  C  1308  1  0.76444000  0.27755900  0.75456500  1
  C  1309  1  0.78606900  0.27415900  0.71674300  1
  C  1313  1  0.77497500  0.30068400  0.75602700  1
  C  1317  1  0.74230000  0.27955400  0.79152500  1
  C  1319  1  0.76517300  0.22851600  0.71601300  1
  C  1321  1  0.74879600  0.77206900  0.73988800  1
  C  1322  1  0.74062000  0.77065300  0.76214000  1
  C  1323  1  0.74676600  0.75217700  0.77511200  1
  C  1324  1  0.76142000  0.73435900  0.76635900  1
  C  1325  1  0.77016600  0.73532100  0.74391100  1
  C  1328  1  0.76425700  0.75446600  0.73072000  1
  C  1329  1  0.78579200  0.71660600  0.73411800  1
  C  1333  1  0.77475500  0.75589500  0.70758100  1
  C  1337  1  0.74223000  0.79147100  0.72873300  1
  C  1339  1  0.76495000  0.71593200  0.77978100  1
  C  1341  1  0.74888800  0.23617500  0.26836600  1
  C  1342  1  0.74068400  0.23762900  0.24612400  1
  C  1343  1  0.74686800  0.25610200  0.23316100  1
  C  1344  1  0.76159500  0.27388000  0.24191500  1
  C  1345  1  0.77035900  0.27288300  0.26435700  1
  C  1348  1  0.76441600  0.25373900  0.27753400  1
  C  1349  1  0.78604500  0.29156200  0.27415400  1
  C  1353  1  0.77494700  0.25226500  0.30066100  1
  C  1357  1  0.74227600  0.21677600  0.27951000  1
  C  1359  1  0.76514900  0.29231500  0.22851100  1
  N  41  1  0.22674100  0.21214200  0.71589800  1
  N  42  1  0.07772800  0.15845900  0.65705300  1
  N  43  1  0.22942200  0.05994700  0.65494500  1
  N  44  1  0.23172300  0.15774300  0.56166100  1
  N  86  1  0.22670500  0.79609200  0.29232200  1
  N  87  1  0.07774500  0.84981700  0.35123900  1
  N  88  1  0.22940000  0.94831300  0.35327600  1
  N  89  1  0.23179500  0.85049700  0.44655100  1
  N  131  1  0.22681900  0.29245900  0.21213500  1
  N  132  1  0.07771900  0.35112200  0.15853700  1
  N  133  1  0.22939000  0.35344900  0.05996800  1
  N  134  1  0.23135500  0.44682500  0.15796400  1
  N  176  1  0.22679300  0.71588600  0.79612300  1
  N  177  1  0.07775500  0.65701600  0.84982100  1
  N  178  1  0.22942400  0.65491200  0.94831500  1
  N  179  1  0.23159200  0.56159500  0.85041800  1
  N  221  1  0.28076200  0.79135700  0.71129000  1
  N  222  1  0.43131500  0.84832700  0.65609100  1
  N  223  1  0.28197100  0.94748000  0.65635100  1
  N  224  1  0.27416400  0.85286600  0.56207900  1
  N  266  1  0.28071800  0.21693500  0.29694800  1
  N  267  1  0.43124600  0.15990100  0.35216500  1
  N  268  1  0.28186900  0.06078900  0.35188300  1
  N  269  1  0.27406800  0.15533800  0.44614200  1
  N  311  1  0.28073200  0.71124400  0.21689000  1
  N  312  1  0.43128900  0.65600300  0.15991600  1
  N  313  1  0.28193300  0.65631300  0.06079200  1
  N  314  1  0.27409000  0.56201100  0.15548800  1
  N  356  1  0.28070200  0.29697100  0.79136900  1
  N  357  1  0.43123400  0.35216200  0.84835000  1
  N  358  1  0.28186300  0.35195900  0.94748500  1
  N  359  1  0.27409400  0.44619600  0.85284800  1
  N  401  1  0.78125000  0.79625000  0.29223100  1
  N  402  1  0.93034300  0.84890300  0.34977500  1
  N  403  1  0.77913000  0.94836300  0.35327400  1
  N  404  1  0.77652600  0.85048400  0.44659700  1
  N  446  1  0.78135700  0.21200300  0.71605300  1
  N  447  1  0.93043100  0.15917700  0.65861900  1
  N  448  1  0.77914800  0.05989000  0.65496200  1
  N  449  1  0.77659600  0.15776900  0.56168300  1
  N  491  1  0.78117600  0.71594500  0.79626400  1
  N  492  1  0.93034300  0.65852700  0.84889500  1
  N  493  1  0.77913400  0.65485400  0.94835900  1
  N  494  1  0.77691100  0.56145200  0.85032600  1
  N  536  1  0.78131900  0.29228000  0.21198900  1
  N  537  1  0.93044700  0.34957400  0.15919300  1
  N  538  1  0.77915600  0.35336000  0.05989700  1
  N  539  1  0.77674400  0.44668200  0.15786200  1
  N  581  1  0.72748000  0.21680400  0.29689000  1
  N  582  1  0.57717500  0.16078200  0.35042900  1
  N  583  1  0.72656400  0.06083600  0.35220300  1
  N  584  1  0.73376100  0.15524300  0.44625900  1
  N  626  1  0.72738400  0.79146300  0.71138000  1
  N  627  1  0.57707800  0.84761400  0.65798800  1
  N  628  1  0.72656200  0.94742500  0.65602100  1
  N  629  1  0.73368000  0.85302100  0.56200300  1
  N  671  1  0.72751200  0.29694100  0.79148900  1
  N  672  1  0.57721500  0.35052900  0.84735000  1
  N  673  1  0.72657600  0.35227200  0.94742700  1
  N  674  1  0.73381500  0.44634800  0.85295200  1
  N  716  1  0.72739800  0.71134600  0.21676800  1
  N  717  1  0.57708400  0.65790800  0.16057600  1
  N  718  1  0.72658600  0.65595400  0.06083400  1
  N  719  1  0.73368800  0.56195200  0.15529800  1
