# generated using pymatgen
data_H3C12(N2O)2
_symmetry_space_group_name_H-M   'P 1'
_cell_length_a   47.73350000
_cell_length_b   47.73350000
_cell_length_c   47.73350000
_cell_angle_alpha   90.00000000
_cell_angle_beta   90.00000000
_cell_angle_gamma   90.00000000
_symmetry_Int_Tables_number   1
_chemical_formula_structural   H3C12(N2O)2
_chemical_formula_sum   'H288 C1152 N384 O192'
_cell_volume   108760.16027657
_cell_formula_units_Z   96
loop_
 _symmetry_equiv_pos_site_id
 _symmetry_equiv_pos_as_xyz
  1  'x, y, z'
loop_
 _atom_site_type_symbol
 _atom_site_label
 _atom_site_symmetry_multiplicity
 _atom_site_fract_x
 _atom_site_fract_y
 _atom_site_fract_z
 _atom_site_occupancy
  H  7  1  0.30661300  0.13761800  0.39264900  1
  H  16  1  0.27549600  0.08374100  0.42449200  1
  H  19  1  0.26051500  0.15285500  0.48385900  1
  H  20  1  0.23485800  0.17596900  0.43595000  1
  H  21  1  0.37512600  0.13869000  0.46639400  1
  H  22  1  0.18452600  0.08958400  0.37538400  1
  H  29  1  0.74520200  0.91377700  0.39258800  1
  H  38  1  0.77615900  0.96776300  0.42453800  1
  H  41  1  0.79115700  0.89880900  0.48390100  1
  H  42  1  0.81692900  0.87559000  0.43584300  1
  H  43  1  0.67655200  0.91295800  0.46619900  1
  H  44  1  0.86704900  0.96206800  0.37523500  1
  H  51  1  0.74504100  0.13802000  0.66044400  1
  H  60  1  0.77595600  0.08388300  0.62858600  1
  H  63  1  0.79104000  0.15268100  0.56913700  1
  H  64  1  0.81672800  0.17601300  0.61719800  1
  H  65  1  0.67639100  0.13888000  0.58680400  1
  H  66  1  0.86679200  0.08960500  0.67800200  1
  H  73  1  0.30657300  0.91377300  0.66040000  1
  H  82  1  0.27564500  0.96779400  0.62857700  1
  H  85  1  0.26060500  0.89889300  0.56907600  1
  H  86  1  0.23487100  0.87567000  0.61702600  1
  H  87  1  0.37522100  0.91282600  0.58678500  1
  H  88  1  0.18470500  0.96206200  0.67779000  1
  H  95  1  0.39194100  0.30667800  0.13827500  1
  H  104  1  0.42368100  0.27555500  0.08439300  1
  H  107  1  0.48322000  0.26066400  0.15345600  1
  H  108  1  0.43542000  0.23501900  0.17661400  1
  H  109  1  0.46564400  0.37524800  0.13933700  1
  H  110  1  0.37468900  0.18454700  0.09036000  1
  H  117  1  0.39191800  0.74519400  0.91443100  1
  H  126  1  0.42394700  0.77616600  0.96854400  1
  H  129  1  0.48320800  0.79118600  0.89970100  1
  H  130  1  0.43503000  0.81683500  0.87632600  1
  H  131  1  0.46552600  0.67652100  0.91358500  1
  H  132  1  0.37445400  0.86696800  0.96282100  1
  H  139  1  0.65971700  0.74503200  0.13866200  1
  H  148  1  0.62790500  0.77595800  0.08460100  1
  H  151  1  0.56831600  0.79088100  0.15343400  1
  H  152  1  0.61623600  0.81665500  0.17673600  1
  H  153  1  0.58617100  0.67630300  0.13944000  1
  H  154  1  0.67705500  0.86690900  0.09041200  1
  H  161  1  0.65973400  0.30645800  0.91448300  1
  H  170  1  0.62782500  0.27553200  0.96845200  1
  H  173  1  0.56850200  0.26036800  0.89944800  1
  H  174  1  0.61656300  0.23460000  0.87634000  1
  H  175  1  0.58603700  0.37500700  0.91349900  1
  H  176  1  0.67717400  0.18464200  0.96288600  1
  H  183  1  0.13762800  0.39201800  0.30740000  1
  H  192  1  0.08366200  0.42379200  0.27628600  1
  H  195  1  0.15265500  0.48326900  0.26134900  1
  H  196  1  0.17589300  0.43538400  0.23573600  1
  H  197  1  0.13859300  0.46573600  0.37596700  1
  H  198  1  0.08962200  0.37460700  0.18537500  1
  H  205  1  0.91365000  0.39184400  0.74591800  1
  H  214  1  0.96777900  0.42389700  0.77683200  1
  H  217  1  0.89897200  0.48323700  0.79175000  1
  H  218  1  0.87557200  0.43512800  0.81747000  1
  H  219  1  0.91280500  0.46534000  0.67712400  1
  H  220  1  0.96206000  0.37460700  0.86773400  1
  H  227  1  0.13802500  0.65979200  0.74588700  1
  H  236  1  0.08394500  0.62780800  0.77678100  1
  H  239  1  0.15282400  0.56846700  0.79182500  1
  H  240  1  0.17609100  0.61656300  0.81757900  1
  H  241  1  0.13890900  0.58621500  0.67719900  1
  H  242  1  0.08956200  0.67712200  0.86768400  1
  H  249  1  0.91378400  0.65968100  0.30727100  1
  H  258  1  0.96776500  0.62790100  0.27635100  1
  H  261  1  0.89882600  0.56836000  0.26130300  1
  H  262  1  0.87566600  0.61629000  0.23549300  1
  H  263  1  0.91290800  0.58605800  0.37589700  1
  H  264  1  0.96203500  0.67714900  0.18543500  1
  H  271  1  0.13760400  0.30660000  0.66041700  1
  H  280  1  0.08372700  0.27548200  0.62856700  1
  H  283  1  0.15284000  0.26050500  0.56920200  1
  H  284  1  0.17595700  0.23485000  0.61711400  1
  H  285  1  0.13867800  0.37511800  0.58667200  1
  H  286  1  0.08957000  0.18451000  0.67767100  1
  H  293  1  0.91376100  0.74520400  0.66044600  1
  H  302  1  0.96776900  0.77615900  0.62846800  1
  H  305  1  0.89884200  0.79111700  0.56911200  1
  H  306  1  0.87558000  0.81688100  0.61718500  1
  H  307  1  0.91295600  0.67651000  0.58687500  1
  H  308  1  0.96204800  0.86704100  0.67778400  1
  H  315  1  0.13807100  0.74503600  0.39261300  1
  H  324  1  0.08393700  0.77592000  0.42446300  1
  H  327  1  0.15274500  0.79105200  0.48391600  1
  H  328  1  0.17603600  0.81677200  0.43585300  1
  H  329  1  0.13894300  0.67640500  0.46626600  1
  H  330  1  0.08960100  0.86675800  0.37503400  1
  H  337  1  0.91376700  0.30657100  0.39264000  1
  H  346  1  0.96779800  0.27564700  0.42446900  1
  H  349  1  0.89890700  0.26061600  0.48397200  1
  H  350  1  0.87567200  0.23488100  0.43602100  1
  H  351  1  0.91282800  0.37523100  0.46624500  1
  H  352  1  0.96206200  0.18470300  0.37526300  1
  H  359  1  0.30669200  0.39196600  0.91478300  1
  H  368  1  0.27556700  0.42371500  0.96867000  1
  H  371  1  0.26069900  0.48325600  0.89961500  1
  H  372  1  0.23505300  0.43545500  0.87644100  1
  H  373  1  0.37528100  0.46565400  0.91374400  1
  H  374  1  0.18456400  0.37471800  0.96268400  1
  H  381  1  0.74512200  0.39187400  0.13857900  1
  H  390  1  0.77616600  0.42381300  0.08452900  1
  H  393  1  0.79131800  0.48305500  0.15346000  1
  H  394  1  0.81689200  0.43488700  0.17673300  1
  H  395  1  0.67663400  0.46565600  0.13951300  1
  H  396  1  0.86696100  0.37429700  0.09022700  1
  H  403  1  0.74510800  0.65972300  0.91434900  1
  H  412  1  0.77596200  0.62789200  0.96844800  1
  H  415  1  0.79089300  0.56828600  0.89964900  1
  H  416  1  0.81672000  0.61621500  0.87634300  1
  H  417  1  0.67631700  0.58623400  0.91358500  1
  H  418  1  0.86690500  0.67706300  0.96268600  1
  H  425  1  0.30645800  0.65973400  0.13858700  1
  H  434  1  0.27551300  0.62780600  0.08461100  1
  H  437  1  0.26037100  0.56850200  0.15360800  1
  H  438  1  0.23462300  0.61657700  0.17674400  1
  H  439  1  0.37501300  0.58604300  0.13956400  1
  H  440  1  0.18462500  0.67716000  0.09020200  1
  H  447  1  0.39202700  0.13759900  0.74566100  1
  H  456  1  0.42379500  0.08363900  0.77677900  1
  H  459  1  0.48327700  0.15263700  0.79170800  1
  H  460  1  0.43540300  0.17587400  0.81731700  1
  H  461  1  0.46574200  0.13857500  0.67709000  1
  H  462  1  0.37461500  0.08961500  0.86769200  1
  H  469  1  0.39183000  0.91361600  0.30712600  1
  H  478  1  0.42389500  0.96775800  0.27622900  1
  H  481  1  0.48322500  0.89896400  0.26129400  1
  H  482  1  0.43509500  0.87555900  0.23556200  1
  H  483  1  0.46531700  0.91278200  0.37592500  1
  H  484  1  0.37458000  0.96206800  0.18533600  1
  H  491  1  0.65979200  0.13802300  0.30716200  1
  H  500  1  0.62780200  0.08394500  0.27624400  1
  H  503  1  0.56846900  0.15282300  0.26122500  1
  H  504  1  0.61656700  0.17611100  0.23549500  1
  H  505  1  0.58621700  0.13890300  0.37585100  1
  H  506  1  0.67711300  0.08959500  0.18534500  1
  H  513  1  0.65967700  0.91380900  0.74576800  1
  H  522  1  0.62792000  0.96777300  0.77669800  1
  H  525  1  0.56836600  0.89881700  0.79176000  1
  H  526  1  0.61628200  0.87568100  0.81756400  1
  H  527  1  0.58603100  0.91292300  0.67716600  1
  H  528  1  0.67714700  0.96204800  0.86762100  1
  H  535  1  0.74242400  0.91518700  0.66761900  1
  H  544  1  0.77458800  0.96690200  0.63759600  1
  H  547  1  0.78909400  0.89608300  0.57660500  1
  H  548  1  0.81506300  0.87511700  0.62153200  1
  H  549  1  0.67531000  0.91306900  0.59217700  1
  H  550  1  0.87101700  0.95754100  0.67902400  1
  H  557  1  0.30919400  0.13647500  0.66764600  1
  H  566  1  0.27709300  0.08481800  0.63759800  1
  H  569  1  0.26254500  0.15571800  0.57658900  1
  H  570  1  0.23655100  0.17657400  0.62153200  1
  H  571  1  0.37630800  0.13875200  0.59222100  1
  H  572  1  0.18059200  0.09405600  0.67891500  1
  H  579  1  0.30890000  0.91498000  0.38542300  1
  H  588  1  0.27688100  0.96685100  0.41570400  1
  H  591  1  0.26253900  0.89612900  0.47660000  1
  H  592  1  0.23655900  0.87501200  0.43156100  1
  H  593  1  0.37634400  0.91280300  0.46057000  1
  H  594  1  0.18049200  0.95746400  0.37415000  1
  H  601  1  0.74264000  0.13655100  0.38541100  1
  H  610  1  0.77470300  0.08474000  0.41556300  1
  H  613  1  0.78910200  0.15547100  0.47655600  1
  H  614  1  0.81505400  0.17654000  0.43161100  1
  H  615  1  0.67531600  0.13868400  0.46066200  1
  H  616  1  0.87118700  0.09409100  0.37423200  1
  H  623  1  0.66695100  0.74261900  0.91586400  1
  H  632  1  0.63687800  0.77473700  0.96764900  1
  H  635  1  0.57588300  0.78922300  0.89688600  1
  H  636  1  0.62082200  0.81515100  0.87586300  1
  H  637  1  0.59157800  0.67542700  0.91368700  1
  H  638  1  0.67822400  0.87121000  0.95831600  1
  H  645  1  0.66693400  0.30921000  0.13728100  1
  H  654  1  0.63679000  0.27712800  0.08552400  1
  H  657  1  0.57583200  0.26266900  0.15634000  1
  H  658  1  0.62080700  0.23663500  0.17732000  1
  H  659  1  0.59161400  0.37645300  0.13948700  1
  H  660  1  0.67819000  0.18067200  0.09484500  1
  H  667  1  0.38474000  0.30909100  0.91592900  1
  H  676  1  0.41478600  0.27692500  0.96758900  1
  H  679  1  0.47581000  0.26250100  0.89671200  1
  H  680  1  0.43085700  0.23663000  0.87576200  1
  H  681  1  0.46012300  0.37625800  0.91367300  1
  H  682  1  0.37341300  0.18047700  0.95817200  1
  H  689  1  0.38470900  0.74249900  0.13724700  1
  H  698  1  0.41492900  0.77463000  0.08545000  1
  H  701  1  0.47582300  0.78895500  0.15618500  1
  H  702  1  0.43083600  0.81490100  0.17731600  1
  H  703  1  0.45995400  0.67516300  0.13928800  1
  H  704  1  0.37346700  0.87105100  0.09490500  1
  H  711  1  0.91523600  0.66681700  0.74325400  1
  H  720  1  0.96697900  0.63666400  0.77536900  1
  H  723  1  0.89617800  0.57565000  0.78960700  1
  H  724  1  0.87512500  0.62052600  0.81562800  1
  H  725  1  0.91310700  0.59162400  0.67585700  1
  H  726  1  0.95748900  0.67791200  0.87184700  1
  H  733  1  0.13669800  0.66707400  0.30979500  1
  H  742  1  0.08484700  0.63700100  0.27775700  1
  H  745  1  0.15555200  0.57603400  0.26305000  1
  H  746  1  0.17655300  0.62105200  0.23709300  1
  H  747  1  0.13891500  0.59161800  0.37688400  1
  H  748  1  0.09398500  0.67846900  0.18129600  1
  H  755  1  0.91500300  0.38467100  0.30976600  1
  H  764  1  0.96681800  0.41484900  0.27766900  1
  H  767  1  0.89606700  0.47572500  0.26316900  1
  H  768  1  0.87500400  0.43066200  0.23724400  1
  H  769  1  0.91285100  0.46000800  0.37698900  1
  H  770  1  0.95747600  0.37317600  0.18132700  1
  H  777  1  0.13635500  0.38480900  0.74320100  1
  H  786  1  0.08469500  0.41492900  0.77534600  1
  H  789  1  0.15556000  0.47594000  0.78965100  1
  H  790  1  0.17654100  0.43104100  0.81557800  1
  H  791  1  0.13854100  0.46008600  0.67591300  1
  H  792  1  0.09412500  0.37372300  0.87186300  1
  H  799  1  0.91515400  0.74247200  0.38542900  1
  H  808  1  0.96689900  0.77458600  0.41547500  1
  H  811  1  0.89610400  0.78909400  0.47647200  1
  H  812  1  0.87513600  0.81510500  0.43154800  1
  H  813  1  0.91303000  0.67530800  0.46082300  1
  H  814  1  0.95758300  0.87102300  0.37405400  1
  H  821  1  0.13648300  0.30919600  0.38541500  1
  H  830  1  0.08481700  0.27709300  0.41546100  1
  H  833  1  0.15570600  0.26254300  0.47647200  1
  H  834  1  0.17657400  0.23655700  0.43152700  1
  H  835  1  0.13875200  0.37630800  0.46084400  1
  H  836  1  0.09406200  0.18059300  0.37413800  1
  H  843  1  0.91499000  0.30891900  0.66761700  1
  H  852  1  0.96685300  0.27688300  0.63734500  1
  H  855  1  0.89612900  0.26256000  0.57644000  1
  H  856  1  0.87500200  0.23659500  0.62147800  1
  H  857  1  0.91282800  0.37636000  0.59246900  1
  H  858  1  0.95743400  0.18049900  0.67889800  1
  H  865  1  0.13653300  0.74264000  0.66764200  1
  H  874  1  0.08473300  0.77471000  0.63747500  1
  H  877  1  0.15548800  0.78911200  0.57650900  1
  H  878  1  0.17654100  0.81505900  0.62146100  1
  H  879  1  0.13870800  0.67532200  0.59238700  1
  H  880  1  0.09407700  0.87119700  0.67880200  1
  H  887  1  0.74255800  0.66694500  0.13719000  1
  H  896  1  0.77469300  0.63693800  0.08545400  1
  H  899  1  0.78927400  0.57593300  0.15627200  1
  H  900  1  0.81520100  0.62086600  0.17720700  1
  H  901  1  0.67548400  0.59147100  0.13938400  1
  H  902  1  0.87117400  0.67828200  0.09471900  1
  H  909  1  0.30910800  0.66695300  0.91575300  1
  H  918  1  0.27706300  0.63674800  0.96755100  1
  H  921  1  0.26264400  0.57581400  0.89676200  1
  H  922  1  0.23659300  0.62079700  0.87574500  1
  H  923  1  0.37643000  0.59170200  0.91355700  1
  H  924  1  0.18060600  0.67814800  0.95823000  1
  H  931  1  0.30908700  0.38474000  0.13713100  1
  H  940  1  0.27692500  0.41480300  0.08546600  1
  H  943  1  0.26250300  0.47581000  0.15634400  1
  H  944  1  0.23662800  0.43085000  0.17729600  1
  H  945  1  0.37626200  0.46011500  0.13938600  1
  H  946  1  0.18048000  0.37341900  0.09487400  1
  H  953  1  0.74249100  0.38472800  0.91583700  1
  H  962  1  0.77462600  0.41490600  0.96762600  1
  H  965  1  0.78892000  0.47586300  0.89689800  1
  H  966  1  0.81487800  0.43090900  0.87576400  1
  H  967  1  0.67513800  0.45996000  0.91380000  1
  H  968  1  0.87103600  0.37344800  0.95812200  1
  H  975  1  0.66680000  0.91529400  0.30982200  1
  H  984  1  0.63664300  0.96702500  0.27766700  1
  H  987  1  0.57564000  0.89620700  0.26346700  1
  H  988  1  0.62051800  0.87513800  0.23748100  1
  H  989  1  0.59160300  0.91314300  0.37721700  1
  H  990  1  0.67789500  0.95747000  0.18119900  1
  H  997  1  0.66707900  0.13670900  0.74328500  1
  H  1006  1  0.63700700  0.08486800  0.77530700  1
  H  1009  1  0.57603100  0.15558100  0.79001500  1
  H  1010  1  0.62104200  0.17656200  0.81599900  1
  H  1011  1  0.59162800  0.13890700  0.67619000  1
  H  1012  1  0.67846300  0.09398300  0.87177500  1
  H  1019  1  0.38466100  0.91501300  0.74326400  1
  H  1028  1  0.41480900  0.96681600  0.77538000  1
  H  1031  1  0.47571600  0.89606700  0.78987300  1
  H  1032  1  0.43067400  0.87500000  0.81577900  1
  H  1033  1  0.46001700  0.91287000  0.67606000  1
  H  1034  1  0.37320300  0.95744900  0.87174600  1
  H  1041  1  0.38480900  0.13636500  0.30985800  1
  H  1050  1  0.41492400  0.08470000  0.27772300  1
  H  1053  1  0.47593600  0.15556300  0.26340000  1
  H  1054  1  0.43103500  0.17653600  0.23746400  1
  H  1055  1  0.46009200  0.13855300  0.37714000  1
  H  1056  1  0.37370800  0.09410900  0.18120700  1
  C  1  1  0.28656600  0.13674500  0.43194200  1
  C  2  1  0.30930300  0.14098900  0.41370900  1
  C  3  1  0.33590900  0.14863200  0.42411700  1
  C  4  1  0.33992700  0.15155400  0.45336500  1
  C  5  1  0.31714200  0.14713900  0.47186100  1
  C  6  1  0.29036800  0.14008400  0.46108900  1
  C  9  1  0.26141800  0.12548200  0.42119300  1
  C  10  1  0.23836900  0.14274000  0.41452000  1
  C  11  1  0.21303100  0.13045800  0.40513100  1
  C  12  1  0.21051000  0.10097500  0.40304200  1
  C  13  1  0.23337100  0.08368800  0.41064700  1
  C  14  1  0.25877000  0.09616600  0.41921900  1
  C  23  1  0.76516700  0.91473700  0.43192100  1
  C  24  1  0.74247600  0.91042300  0.41364900  1
  C  25  1  0.71584100  0.90284200  0.42402300  1
  C  26  1  0.71176400  0.90001800  0.45327500  1
  C  27  1  0.73451100  0.90447200  0.47180700  1
  C  28  1  0.76131200  0.91148600  0.46107000  1
  C  31  1  0.79030400  0.92604800  0.42119100  1
  C  32  1  0.81336000  0.90882700  0.41443800  1
  C  33  1  0.83865400  0.92116600  0.40500700  1
  C  34  1  0.84112800  0.95065500  0.40294500  1
  C  35  1  0.81825800  0.96789900  0.41061700  1
  C  36  1  0.79290000  0.95537100  0.41924200  1
  C  45  1  0.76500400  0.13691500  0.62111300  1
  C  46  1  0.74232800  0.14134100  0.63937700  1
  C  47  1  0.71571300  0.14897600  0.62898200  1
  C  48  1  0.71163200  0.15173500  0.59972800  1
  C  49  1  0.73436500  0.14716700  0.58120800  1
  C  50  1  0.76114700  0.14009900  0.59195700  1
  C  53  1  0.79011400  0.12559500  0.63188900  1
  C  54  1  0.81316300  0.14281400  0.63866700  1
  C  55  1  0.83843800  0.13048300  0.64815900  1
  C  56  1  0.84089800  0.10099600  0.65025800  1
  C  57  1  0.81803100  0.08375100  0.64257800  1
  C  58  1  0.79269300  0.09627500  0.63389400  1
  C  67  1  0.28660600  0.91477000  0.62106900  1
  C  68  1  0.30929000  0.91041500  0.63934100  1
  C  69  1  0.33591500  0.90278900  0.62896500  1
  C  70  1  0.33998600  0.89995700  0.59971500  1
  C  71  1  0.31724700  0.90447200  0.58118700  1
  C  72  1  0.29045800  0.91152700  0.59192000  1
  C  75  1  0.26147900  0.92608100  0.63182000  1
  C  76  1  0.23841100  0.90885800  0.63851600  1
  C  77  1  0.21311700  0.92118300  0.64796000  1
  C  78  1  0.21065300  0.95066800  0.65010100  1
  C  79  1  0.23353800  0.96791800  0.64247700  1
  C  80  1  0.25889800  0.95539800  0.63384800  1
  C  89  1  0.43124800  0.28665800  0.13737300  1
  C  90  1  0.41300100  0.30938200  0.14162700  1
  C  91  1  0.42339200  0.33599700  0.14926500  1
  C  92  1  0.45264000  0.34003200  0.15218200  1
  C  93  1  0.47114700  0.31726400  0.14775100  1
  C  94  1  0.46039400  0.29048100  0.14069300  1
  C  97  1  0.42050100  0.26149300  0.12614700  1
  C  98  1  0.41390200  0.23844300  0.14343200  1
  C  99  1  0.40450800  0.21308900  0.13118600  1
  C  100  1  0.40233800  0.21055700  0.10170900  1
  C  101  1  0.40987800  0.23341700  0.08439400  1
  C  102  1  0.41845200  0.25883100  0.09683800  1
  C  111  1  0.43125700  0.76514000  0.91551400  1
  C  112  1  0.41298200  0.74246800  0.91111500  1
  C  113  1  0.42336900  0.71584700  0.90349100  1
  C  114  1  0.45262300  0.71176400  0.90071300  1
  C  115  1  0.47114900  0.73449900  0.90525100  1
  C  116  1  0.46041200  0.76128700  0.91230700  1
  C  119  1  0.42050800  0.79026900  0.92682500  1
  C  120  1  0.41366800  0.81328800  0.90959200  1
  C  121  1  0.40420700  0.83857400  0.92192300  1
  C  122  1  0.40219800  0.84107600  0.95141100  1
  C  123  1  0.40994500  0.81823900  0.96866600  1
  C  124  1  0.41860300  0.79288800  0.95614800  1
  C  133  1  0.62036300  0.76495700  0.13761500  1
  C  134  1  0.63865400  0.74229200  0.14199100  1
  C  135  1  0.62829900  0.71565200  0.14960300  1
  C  136  1  0.59904900  0.71153800  0.15235800  1
  C  137  1  0.58050000  0.73425800  0.14783900  1
  C  138  1  0.59121400  0.76106100  0.14081000  1
  C  141  1  0.63110200  0.79010300  0.12632800  1
  C  142  1  0.63776400  0.81316900  0.14356800  1
  C  143  1  0.64720600  0.83848000  0.13126500  1
  C  144  1  0.64936100  0.84095400  0.10178400  1
  C  145  1  0.64177800  0.81807300  0.08451500  1
  C  146  1  0.63315100  0.79270100  0.09701200  1
  C  155  1  0.62042600  0.28643400  0.91540300  1
  C  156  1  0.63867500  0.30914600  0.91108800  1
  C  157  1  0.62827100  0.33576400  0.90347900  1
  C  158  1  0.59902200  0.33979900  0.90060000  1
  C  159  1  0.58051700  0.31703100  0.90506400  1
  C  160  1  0.59127700  0.29025500  0.91212200  1
  C  163  1  0.63118300  0.26133000  0.92676000  1
  C  164  1  0.63795900  0.23825800  0.90957500  1
  C  165  1  0.64740700  0.21298700  0.92194600  1
  C  166  1  0.64946600  0.21055000  0.95143900  1
  C  167  1  0.64177400  0.23344200  0.96864900  1
  C  168  1  0.63314200  0.25877800  0.95608500  1
  C  177  1  0.13664700  0.43132400  0.28738300  1
  C  178  1  0.14094800  0.41308700  0.31010300  1
  C  179  1  0.14858200  0.42349700  0.33671100  1
  C  180  1  0.15144300  0.45274700  0.34074800  1
  C  181  1  0.14696600  0.47125000  0.31798000  1
  C  182  1  0.13992000  0.46047500  0.29120200  1
  C  185  1  0.12541500  0.42055800  0.26223100  1
  C  186  1  0.14269700  0.41389400  0.23919900  1
  C  187  1  0.13044500  0.40445800  0.21386200  1
  C  188  1  0.10096700  0.40230900  0.21133200  1
  C  189  1  0.08365600  0.40990900  0.23417500  1
  C  190  1  0.09610500  0.41853000  0.25957200  1
  C  199  1  0.91475000  0.43121700  0.76580000  1
  C  200  1  0.91033800  0.41290700  0.74316100  1
  C  201  1  0.90271000  0.42325200  0.71652400  1
  C  202  1  0.89993600  0.45249800  0.71239300  1
  C  203  1  0.90448600  0.47105900  0.73509200  1
  C  204  1  0.91155000  0.46036600  0.76189700  1
  C  207  1  0.92605800  0.42050800  0.79094800  1
  C  208  1  0.90882700  0.41373700  0.81398600  1
  C  209  1  0.92115400  0.40432400  0.83929300  1
  C  210  1  0.95064300  0.40229600  0.84179200  1
  C  211  1  0.96789700  0.40998200  0.81893400  1
  C  212  1  0.95537900  0.41859300  0.79356600  1
  C  221  1  0.13699400  0.62044700  0.76582900  1
  C  222  1  0.14138100  0.63873200  0.74315900  1
  C  223  1  0.14902100  0.62837000  0.71653200  1
  C  224  1  0.15180200  0.59911800  0.71243700  1
  C  225  1  0.14728500  0.58057500  0.73516100  1
  C  226  1  0.14021800  0.59130000  0.76195100  1
  C  229  1  0.12565000  0.63118600  0.79094800  1
  C  230  1  0.14285200  0.63796700  0.81400700  1
  C  231  1  0.13049800  0.64740100  0.83929500  1
  C  232  1  0.10100600  0.64943100  0.84175500  1
  C  233  1  0.08377900  0.64174400  0.81887600  1
  C  234  1  0.09632500  0.63312300  0.79352600  1
  C  243  1  0.91474300  0.62035500  0.28728900  1
  C  244  1  0.91041900  0.63862100  0.30998400  1
  C  245  1  0.90282100  0.62824200  0.33661700  1
  C  246  1  0.89998800  0.59899200  0.34068100  1
  C  247  1  0.90446700  0.58046900  0.31793200  1
  C  248  1  0.91149400  0.59120700  0.29113900  1
  C  251  1  0.92605400  0.63110600  0.26216200  1
  C  252  1  0.90883800  0.63779300  0.23908600  1
  C  253  1  0.92116800  0.64725800  0.21380200  1
  C  254  1  0.95065300  0.64942900  0.21135500  1
  C  255  1  0.96789700  0.64181100  0.23424800  1
  C  256  1  0.95537300  0.63316300  0.25959800  1
  C  265  1  0.13673000  0.28655600  0.62112100  1
  C  266  1  0.14097500  0.30929000  0.63935400  1
  C  267  1  0.14861900  0.33589800  0.62894800  1
  C  268  1  0.15154100  0.33991600  0.59970000  1
  C  269  1  0.14712500  0.31713400  0.58120200  1
  C  270  1  0.14006900  0.29036000  0.59197400  1
  C  273  1  0.12546800  0.26140500  0.63186900  1
  C  274  1  0.14272600  0.23835900  0.63854100  1
  C  275  1  0.13044600  0.21301800  0.64792900  1
  C  276  1  0.10096300  0.21049600  0.65001500  1
  C  277  1  0.08367500  0.23335600  0.64240800  1
  C  278  1  0.09615200  0.25875700  0.63384000  1
  C  287  1  0.91474500  0.76514400  0.62110300  1
  C  288  1  0.91041700  0.74246800  0.63938700  1
  C  289  1  0.90283300  0.71582600  0.62902100  1
  C  290  1  0.90002000  0.71173500  0.59977400  1
  C  291  1  0.90449000  0.73446900  0.58123100  1
  C  292  1  0.91150600  0.76127400  0.59195300  1
  C  295  1  0.92605000  0.79029000  0.63182200  1
  C  296  1  0.90882300  0.81333600  0.63858300  1
  C  297  1  0.92115200  0.83863500  0.64801400  1
  C  298  1  0.95064000  0.84112000  0.65006700  1
  C  299  1  0.96789200  0.81825800  0.64238900  1
  C  300  1  0.95537300  0.79289600  0.63376400  1
  C  309  1  0.13697700  0.76501000  0.43194200  1
  C  310  1  0.14140100  0.74233000  0.41368000  1
  C  311  1  0.14903700  0.71571700  0.42407900  1
  C  312  1  0.15180200  0.71164300  0.45333400  1
  C  313  1  0.14723900  0.73437900  0.47184900  1
  C  314  1  0.14016700  0.76115700  0.46109800  1
  C  317  1  0.12563900  0.79011200  0.42116100  1
  C  318  1  0.14284200  0.81317100  0.41438400  1
  C  319  1  0.13049200  0.83843600  0.40488500  1
  C  320  1  0.10100400  0.84087500  0.40278200  1
  C  321  1  0.08377500  0.81799600  0.41046400  1
  C  322  1  0.09631700  0.79266800  0.41915200  1
  C  331  1  0.91477500  0.28661000  0.43197500  1
  C  332  1  0.91041300  0.30929000  0.41370100  1
  C  333  1  0.90278900  0.33591700  0.42407300  1
  C  334  1  0.89996100  0.33999200  0.45332300  1
  C  335  1  0.90448000  0.31725700  0.47185500  1
  C  336  1  0.91153600  0.29046900  0.46112300  1
  C  339  1  0.92608300  0.26148100  0.42122600  1
  C  340  1  0.90886100  0.23841500  0.41453100  1
  C  341  1  0.92118500  0.21311900  0.40508900  1
  C  342  1  0.95067000  0.21065300  0.40295000  1
  C  343  1  0.96792000  0.23353800  0.41057100  1
  C  344  1  0.95540200  0.25890000  0.41919800  1
  C  353  1  0.28668300  0.43127800  0.91569200  1
  C  354  1  0.30940300  0.41302900  0.91143500  1
  C  355  1  0.33602200  0.42341500  0.90380500  1
  C  356  1  0.34006300  0.45266100  0.90089300  1
  C  357  1  0.31729900  0.47117200  0.90532600  1
  C  358  1  0.29051300  0.46042500  0.91237800  1
  C  361  1  0.26151400  0.42053700  0.92691300  1
  C  362  1  0.23846600  0.41393800  0.90962300  1
  C  363  1  0.21311000  0.40454200  0.92186400  1
  C  364  1  0.21057300  0.40236900  0.95134000  1
  C  365  1  0.23342900  0.40991100  0.96865900  1
  C  366  1  0.25884500  0.41848800  0.95622100  1
  C  375  1  0.76516900  0.43116300  0.13756000  1
  C  376  1  0.74244900  0.41294100  0.14192100  1
  C  377  1  0.71585100  0.42338400  0.14955000  1
  C  378  1  0.71184200  0.45264200  0.15237300  1
  C  379  1  0.73462400  0.47112000  0.14786900  1
  C  380  1  0.76138800  0.46032200  0.14081000  1
  C  383  1  0.79027700  0.42036500  0.12624700  1
  C  384  1  0.81330100  0.41352300  0.14347200  1
  C  385  1  0.83858100  0.40405200  0.13113500  1
  C  386  1  0.84107400  0.40203800  0.10164500  1
  C  387  1  0.81823000  0.40979000  0.08439900  1
  C  388  1  0.79288500  0.41845500  0.09692300  1
  C  397  1  0.76499700  0.62035300  0.91542400  1
  C  398  1  0.74235100  0.63866300  0.91102700  1
  C  399  1  0.71570700  0.62832400  0.90340900  1
  C  400  1  0.71156900  0.59907600  0.90066700  1
  C  401  1  0.73427000  0.58051300  0.90520700  1
  C  402  1  0.76108000  0.59120500  0.91224400  1
  C  405  1  0.79013900  0.63107700  0.92673100  1
  C  406  1  0.81321500  0.63774500  0.90950600  1
  C  407  1  0.83851400  0.64719500  0.92182600  1
  C  408  1  0.84096700  0.64935700  0.95130900  1
  C  409  1  0.81807500  0.64177100  0.96856300  1
  C  410  1  0.79271600  0.63313400  0.95604800  1
  C  419  1  0.28643600  0.62042600  0.13765900  1
  C  420  1  0.30914600  0.63867500  0.14197800  1
  C  421  1  0.33576600  0.62827400  0.14958800  1
  C  422  1  0.33980300  0.59902200  0.15246000  1
  C  423  1  0.31703700  0.58051700  0.14799200  1
  C  424  1  0.29026200  0.59127700  0.14093400  1
  C  427  1  0.26133000  0.63118100  0.12630900  1
  C  428  1  0.23826700  0.63796500  0.14350300  1
  C  429  1  0.21298900  0.64741100  0.13113800  1
  C  430  1  0.21054000  0.64945800  0.10164600  1
  C  431  1  0.23342300  0.64175700  0.08442800  1
  C  432  1  0.25876400  0.63313000  0.09698400  1
  C  441  1  0.43133200  0.13662100  0.76567600  1
  C  442  1  0.41309600  0.14091900  0.74295600  1
  C  443  1  0.42350100  0.14855600  0.71634800  1
  C  444  1  0.45275300  0.15142000  0.71231100  1
  C  445  1  0.47125600  0.14694500  0.73507900  1
  C  446  1  0.46048400  0.13989700  0.76185500  1
  C  449  1  0.42056800  0.12539400  0.79083000  1
  C  450  1  0.41390800  0.14268000  0.81386200  1
  C  451  1  0.40447300  0.13043300  0.83919900  1
  C  452  1  0.40231700  0.10095600  0.84173400  1
  C  453  1  0.40991300  0.08364000  0.81889200  1
  C  454  1  0.41853400  0.09608400  0.79349500  1
  C  463  1  0.43120200  0.91472200  0.28724700  1
  C  464  1  0.41289000  0.91030400  0.30988300  1
  C  465  1  0.42323500  0.90267600  0.33652000  1
  C  466  1  0.45248100  0.89991100  0.34065600  1
  C  467  1  0.47104400  0.90446500  0.31795700  1
  C  468  1  0.46035400  0.91153000  0.29115400  1
  C  471  1  0.42049500  0.92604100  0.26210300  1
  C  472  1  0.41370900  0.90881700  0.23906300  1
  C  473  1  0.40429300  0.92115400  0.21376200  1
  C  474  1  0.40227300  0.95064500  0.21127100  1
  C  475  1  0.40997000  0.96789000  0.23413100  1
  C  476  1  0.41858400  0.95536500  0.25949300  1
  C  485  1  0.62044900  0.13699000  0.28722200  1
  C  486  1  0.63873400  0.14137600  0.30988900  1
  C  487  1  0.62837000  0.14901600  0.33651800  1
  C  488  1  0.59912000  0.15179700  0.34061400  1
  C  489  1  0.58057800  0.14727900  0.31789000  1
  C  490  1  0.59130000  0.14021300  0.29110000  1
  C  493  1  0.63118600  0.12565500  0.26209700  1
  C  494  1  0.63796900  0.14286700  0.23904600  1
  C  495  1  0.64740100  0.13052400  0.21375100  1
  C  496  1  0.64942400  0.10103300  0.21127700  1
  C  497  1  0.64173600  0.08379600  0.23414800  1
  C  498  1  0.63311700  0.09633100  0.25950300  1
  C  507  1  0.62035900  0.91475200  0.76576400  1
  C  508  1  0.63861600  0.91043800  0.74306100  1
  C  509  1  0.62823200  0.90284200  0.71643000  1
  C  510  1  0.59898000  0.90000100  0.71237600  1
  C  511  1  0.58046200  0.90447000  0.73513400  1
  C  512  1  0.59120900  0.91149400  0.76192400  1
  C  515  1  0.63111400  0.92606200  0.79089100  1
  C  516  1  0.63779100  0.90884800  0.81396900  1
  C  517  1  0.64725600  0.92118100  0.83925500  1
  C  518  1  0.64943100  0.95066300  0.84169600  1
  C  519  1  0.64182400  0.96790700  0.81880200  1
  C  520  1  0.63317600  0.95538100  0.79345100  1
  C  529  1  0.76324600  0.91415000  0.62872800  1
  C  530  1  0.74001900  0.91127600  0.64662500  1
  C  531  1  0.71330000  0.90449000  0.63589900  1
  C  532  1  0.70985600  0.90009300  0.60677900  1
  C  533  1  0.73315200  0.90287900  0.58862600  1
  C  534  1  0.75983500  0.90995000  0.59961700  1
  C  537  1  0.78859100  0.92500400  0.63954900  1
  C  538  1  0.81207900  0.90763500  0.64419900  1
  C  539  1  0.83804200  0.91973300  0.65200100  1
  C  540  1  0.84068400  0.94916300  0.65476200  1
  C  541  1  0.81719700  0.96652400  0.64974900  1
  C  542  1  0.79137900  0.95427700  0.64217200  1
  C  551  1  0.28837400  0.13759600  0.62875100  1
  C  552  1  0.31159000  0.14046100  0.64666500  1
  C  553  1  0.33830700  0.14726600  0.63594300  1
  C  554  1  0.34175800  0.15170700  0.60683200  1
  C  555  1  0.31845800  0.14895400  0.58868100  1
  C  556  1  0.29177000  0.14186400  0.59964800  1
  C  559  1  0.26303100  0.12669800  0.63955100  1
  C  560  1  0.23951900  0.14403900  0.64418300  1
  C  561  1  0.21355900  0.13190700  0.65194700  1
  C  562  1  0.21095000  0.10247400  0.65470200  1
  C  563  1  0.23446600  0.08514200  0.64970500  1
  C  564  1  0.26027600  0.09741900  0.64214900  1
  C  573  1  0.28825700  0.91405600  0.42441900  1
  C  574  1  0.31137900  0.91105200  0.40640600  1
  C  575  1  0.33812900  0.90422200  0.41703000  1
  C  576  1  0.34170300  0.89988400  0.44614200  1
  C  577  1  0.31849500  0.90276200  0.46439300  1
  C  578  1  0.29178200  0.90989100  0.45352000  1
  C  581  1  0.26289900  0.92495400  0.41367600  1
  C  582  1  0.23944000  0.90757000  0.40893900  1
  C  583  1  0.21347100  0.91966000  0.40113100  1
  C  584  1  0.21081200  0.94909400  0.39843300  1
  C  585  1  0.23427800  0.96646800  0.40351300  1
  C  586  1  0.26009200  0.95422900  0.41111600  1
  C  595  1  0.76334900  0.13752000  0.42436900  1
  C  596  1  0.74018900  0.14047900  0.40639600  1
  C  597  1  0.71344600  0.14727400  0.41705900  1
  C  598  1  0.70991900  0.15163400  0.44617700  1
  C  599  1  0.73316200  0.14877800  0.46438900  1
  C  600  1  0.75986700  0.14168600  0.45347400  1
  C  603  1  0.78870400  0.12663500  0.41359600  1
  C  604  1  0.81218800  0.14400700  0.40894500  1
  C  605  1  0.83817400  0.13191900  0.40119200  1
  C  606  1  0.84081400  0.10248600  0.39843500  1
  C  607  1  0.81732700  0.08512100  0.40346700  1
  C  608  1  0.79149400  0.09736400  0.41099400  1
  C  617  1  0.62803500  0.76339900  0.91488800  1
  C  618  1  0.64595700  0.74019700  0.91196300  1
  C  619  1  0.63525600  0.71347800  0.90514000  1
  C  620  1  0.60613600  0.71000700  0.90075500  1
  C  621  1  0.58796400  0.73328200  0.90359000  1
  C  622  1  0.59892300  0.75996700  0.91069800  1
  C  625  1  0.63883800  0.78874600  0.92575600  1
  C  626  1  0.64348300  0.81223900  0.90839500  1
  C  627  1  0.65125300  0.83821000  0.92049600  1
  C  628  1  0.65400000  0.84085200  0.94992800  1
  C  629  1  0.64899700  0.81735700  0.96728700  1
  C  630  1  0.64144500  0.79153400  0.95503100  1
  C  639  1  0.62800100  0.28846000  0.13830300  1
  C  640  1  0.64595100  0.31164100  0.14122700  1
  C  641  1  0.63526200  0.33836800  0.14804000  1
  C  642  1  0.60614900  0.34186500  0.15242900  1
  C  643  1  0.58795800  0.31860200  0.14961900  1
  C  644  1  0.59889600  0.29190400  0.14252300  1
  C  647  1  0.63877800  0.26310700  0.12741500  1
  C  648  1  0.64344100  0.23961600  0.14477700  1
  C  649  1  0.65120700  0.21364700  0.13266900  1
  C  650  1  0.65394500  0.21101700  0.10323400  1
  C  651  1  0.64891700  0.23451000  0.08588100  1
  C  652  1  0.64134800  0.26032700  0.09813700  1
  C  661  1  0.42365000  0.28829400  0.91481900  1
  C  662  1  0.40571900  0.31150000  0.91194200  1
  C  663  1  0.41642200  0.33822600  0.90514400  1
  C  664  1  0.44553400  0.34169900  0.90072000  1
  C  665  1  0.46370400  0.31841600  0.90348100  1
  C  666  1  0.45275100  0.29172400  0.91057400  1
  C  669  1  0.41284800  0.26294500  0.92568700  1
  C  670  1  0.40819100  0.23947100  0.90829900  1
  C  671  1  0.40040400  0.21348900  0.92037400  1
  C  672  1  0.39764500  0.21083100  0.94980200  1
  C  673  1  0.40264600  0.23430900  0.96718200  1
  C  674  1  0.41022800  0.26013600  0.95495600  1
  C  683  1  0.42367100  0.76320400  0.13822300  1
  C  684  1  0.40569600  0.74004400  0.14116600  1
  C  685  1  0.41636000  0.71329400  0.14792900  1
  C  686  1  0.44547700  0.70975700  0.15227200  1
  C  687  1  0.46369500  0.73299900  0.14942900  1
  C  688  1  0.45277800  0.75971200  0.14236700  1
  C  691  1  0.41289900  0.78856600  0.12736300  1
  C  692  1  0.40820000  0.81201900  0.14476700  1
  C  693  1  0.40042700  0.83800500  0.13270200  1
  C  694  1  0.39770400  0.84069500  0.10327000  1
  C  695  1  0.40278800  0.81724100  0.08587900  1
  C  696  1  0.41033000  0.79139800  0.09809200  1
  C  705  1  0.91423400  0.62784600  0.76393100  1
  C  706  1  0.91134100  0.64582900  0.74077100  1
  C  707  1  0.90454300  0.63520000  0.71401800  1
  C  708  1  0.90015800  0.60608800  0.71047000  1
  C  709  1  0.90296700  0.58785100  0.73369600  1
  C  710  1  0.91004200  0.59874700  0.76041800  1
  C  713  1  0.92506500  0.63858300  0.78932000  1
  C  714  1  0.90766400  0.64318600  0.81279400  1
  C  715  1  0.91971500  0.65092000  0.83880100  1
  C  716  1  0.94914300  0.65368800  0.84147800  1
  C  717  1  0.96654100  0.64871800  0.81800600  1
  C  718  1  0.95433400  0.64119100  0.79215600  1
  C  727  1  0.13764300  0.62817900  0.28897100  1
  C  728  1  0.14063300  0.64608300  0.31217900  1
  C  729  1  0.14747600  0.63533800  0.33887500  1
  C  730  1  0.15183600  0.60621400  0.34231500  1
  C  731  1  0.14896400  0.58806900  0.31902100  1
  C  732  1  0.14182700  0.59906100  0.29235600  1
  C  735  1  0.12671100  0.63901200  0.26366000  1
  C  736  1  0.14402700  0.64370300  0.24014200  1
  C  737  1  0.13186500  0.65149800  0.21420400  1
  C  738  1  0.10242500  0.65422600  0.21162700  1
  C  739  1  0.08511900  0.64917500  0.23515100  1
  C  740  1  0.09742700  0.64158900  0.26093800  1
  C  749  1  0.91402500  0.42360400  0.28900700  1
  C  750  1  0.91106000  0.40565600  0.31218700  1
  C  751  1  0.90425400  0.41635100  0.33891300  1
  C  752  1  0.89989800  0.44547100  0.34240700  1
  C  753  1  0.90273700  0.46366000  0.31914700  1
  C  754  1  0.90984900  0.45271100  0.29245700  1
  C  757  1  0.92492500  0.41279800  0.26367400  1
  C  758  1  0.90755100  0.40803400  0.24021300  1
  C  759  1  0.91965200  0.40019100  0.21426000  1
  C  760  1  0.94908800  0.39748800  0.21161900  1
  C  761  1  0.96645100  0.40259600  0.23508400  1
  C  762  1  0.95420200  0.41023000  0.26088600  1
  C  771  1  0.13745900  0.42375100  0.76393700  1
  C  772  1  0.14032400  0.40578800  0.74075600  1
  C  773  1  0.14709400  0.41645200  0.71400800  1
  C  774  1  0.15151200  0.44556100  0.71049300  1
  C  775  1  0.14874000  0.46376900  0.73374900  1
  C  776  1  0.14168400  0.45285000  0.76046400  1
  C  779  1  0.12660400  0.41299100  0.78930900  1
  C  780  1  0.14399700  0.40838000  0.81278800  1
  C  781  1  0.13193400  0.40065800  0.83879400  1
  C  782  1  0.10250500  0.39789000  0.84146300  1
  C  783  1  0.08511900  0.40288500  0.81798500  1
  C  784  1  0.09733500  0.41038300  0.79213100  1
  C  793  1  0.91414000  0.76326900  0.42433700  1
  C  794  1  0.91124700  0.74005700  0.40642300  1
  C  795  1  0.90445300  0.71333300  0.41713300  1
  C  796  1  0.90006400  0.70986800  0.44625300  1
  C  797  1  0.90286700  0.73315200  0.46442000  1
  C  798  1  0.90994800  0.75983900  0.45344700  1
  C  801  1  0.92500900  0.78861200  0.41352900  1
  C  802  1  0.90765200  0.81210900  0.40887800  1
  C  803  1  0.91976300  0.83806800  0.40107900  1
  C  804  1  0.94919300  0.84069500  0.39831600  1
  C  805  1  0.96654300  0.81719700  0.40332900  1
  C  806  1  0.95428400  0.79138500  0.41090600  1
  C  815  1  0.13759500  0.28837400  0.42431000  1
  C  816  1  0.14046500  0.31159200  0.40639600  1
  C  817  1  0.14727000  0.33830700  0.41712000  1
  C  818  1  0.15170600  0.34175600  0.44623400  1
  C  819  1  0.14894800  0.31845600  0.46438500  1
  C  820  1  0.14185700  0.29177000  0.45341500  1
  C  823  1  0.12669800  0.26303300  0.41350800  1
  C  824  1  0.14404100  0.23952100  0.40887400  1
  C  825  1  0.13191000  0.21356300  0.40111000  1
  C  826  1  0.10247700  0.21095200  0.39835300  1
  C  827  1  0.08514400  0.23446600  0.40335000  1
  C  828  1  0.09741900  0.26027800  0.41091100  1
  C  837  1  0.91406000  0.28827500  0.62862300  1
  C  838  1  0.91106200  0.31140000  0.64663600  1
  C  839  1  0.90424100  0.33815000  0.63601000  1
  C  840  1  0.89990200  0.34172400  0.60689900  1
  C  841  1  0.90277700  0.31851600  0.58864900  1
  C  842  1  0.90989800  0.29179900  0.59952200  1
  C  845  1  0.92495000  0.26291400  0.63936900  1
  C  846  1  0.90756000  0.23945900  0.64410300  1
  C  847  1  0.91964100  0.21348700  0.65191300  1
  C  848  1  0.94907300  0.21082000  0.65461600  1
  C  849  1  0.96645500  0.23428200  0.64953700  1
  C  850  1  0.95422500  0.26010000  0.64193300  1
  C  859  1  0.13751500  0.76335300  0.62868600  1
  C  860  1  0.14046800  0.74019100  0.64665900  1
  C  861  1  0.14727100  0.71345100  0.63599600  1
  C  862  1  0.15164500  0.70992700  0.60688000  1
  C  863  1  0.14879600  0.73317100  0.58866800  1
  C  864  1  0.14169500  0.75987500  0.59958300  1
  C  867  1  0.12662800  0.78870600  0.63945600  1
  C  868  1  0.14400000  0.81219300  0.64411400  1
  C  869  1  0.13191100  0.83817900  0.65186100  1
  C  870  1  0.10247700  0.84082000  0.65460500  1
  C  871  1  0.08511300  0.81733600  0.64956900  1
  C  872  1  0.09735600  0.79150100  0.64204800  1
  C  881  1  0.76340100  0.62806200  0.13821700  1
  C  882  1  0.74016800  0.64594900  0.14110800  1
  C  883  1  0.71345900  0.63521200  0.14792400  1
  C  884  1  0.71003200  0.60609200  0.15233200  1
  C  885  1  0.73333800  0.58795400  0.14952800  1
  C  886  1  0.76000900  0.59895000  0.14243000  1
  C  889  1  0.78873100  0.63889300  0.12733800  1
  C  890  1  0.81224100  0.64353300  0.14468200  1
  C  891  1  0.83819900  0.65131000  0.13256100  1
  C  892  1  0.84081800  0.65406500  0.10312800  1
  C  893  1  0.81730900  0.64906800  0.08578800  1
  C  894  1  0.79149600  0.64151200  0.09806100  1
  C  903  1  0.28840300  0.62799300  0.91476600  1
  C  904  1  0.31156100  0.64597000  0.91181700  1
  C  905  1  0.33829700  0.63530600  0.90499700  1
  C  906  1  0.34182300  0.60619300  0.90062100  1
  C  907  1  0.31858100  0.58797700  0.90345300  1
  C  908  1  0.29187500  0.59889200  0.91056000  1
  C  911  1  0.26304400  0.63874800  0.92566000  1
  C  912  1  0.23955500  0.64342000  0.90829700  1
  C  913  1  0.21358400  0.65117800  0.92040600  1
  C  914  1  0.21095000  0.65390300  0.94984000  1
  C  915  1  0.23444100  0.64886900  0.96719500  1
  C  916  1  0.26026000  0.64130800  0.95493900  1
  C  925  1  0.28829400  0.42365200  0.13823800  1
  C  926  1  0.31149600  0.40571900  0.14111600  1
  C  927  1  0.33822400  0.41642000  0.14791500  1
  C  928  1  0.34170100  0.44553000  0.15234000  1
  C  929  1  0.31842000  0.46370400  0.14957500  1
  C  930  1  0.29172600  0.45275300  0.14248100  1
  C  933  1  0.26294500  0.41285500  0.12736700  1
  C  934  1  0.23947100  0.40819100  0.14475400  1
  C  935  1  0.21348900  0.40040400  0.13267700  1
  C  936  1  0.21083300  0.39765400  0.10324700  1
  C  937  1  0.23430900  0.40265800  0.08586900  1
  C  938  1  0.26013600  0.41024000  0.09809700  1
  C  947  1  0.76318700  0.42369400  0.91486300  1
  C  948  1  0.74003200  0.40571500  0.91192300  1
  C  949  1  0.71327700  0.41637200  0.90516300  1
  C  950  1  0.70973600  0.44549000  0.90081800  1
  C  951  1  0.73297400  0.46371200  0.90366100  1
  C  952  1  0.75968900  0.45279900  0.91071900  1
  C  955  1  0.78855700  0.41292400  0.92570800  1
  C  956  1  0.81200800  0.40824600  0.90829700  1
  C  957  1  0.83799600  0.40046100  0.92034900  1
  C  958  1  0.84069000  0.39770200  0.94977700  1
  C  959  1  0.81723700  0.40276700  0.96717600  1
  C  960  1  0.79139400  0.41032400  0.95497700  1
  C  969  1  0.62782900  0.91428700  0.28914300  1
  C  970  1  0.64581300  0.91140000  0.31230500  1
  C  971  1  0.63518300  0.90459700  0.33905700  1
  C  972  1  0.60607300  0.90020400  0.34260400  1
  C  973  1  0.58783700  0.90300900  0.31937500  1
  C  974  1  0.59873200  0.91008400  0.29265400  1
  C  977  1  0.63856800  0.92509900  0.26374800  1
  C  978  1  0.64317100  0.90768300  0.24028600  1
  C  979  1  0.65090500  0.91971500  0.21427100  1
  C  980  1  0.65367100  0.94914000  0.21157300  1
  C  981  1  0.64869900  0.96655800  0.23503000  1
  C  982  1  0.64117400  0.95436700  0.26089000  1
  C  991  1  0.62818100  0.13766600  0.76410700  1
  C  992  1  0.64608900  0.14064700  0.74089900  1
  C  993  1  0.63534600  0.14748200  0.71420100  1
  C  994  1  0.60622000  0.15184200  0.71075700  1
  C  995  1  0.58807500  0.14898000  0.73404800  1
  C  996  1  0.59906600  0.14185100  0.76071700  1
  C  999  1  0.63901200  0.12672800  0.78941800  1
  C  1000  1  0.64369500  0.14403800  0.81294300  1
  C  1001  1  0.65148800  0.13186900  0.83887600  1
  C  1002  1  0.65422000  0.10243000  0.84144500  1
  C  1003  1  0.64917700  0.08513000  0.81791600  1
  C  1004  1  0.64159100  0.09744400  0.79213100  1
  C  1013  1  0.42358900  0.91402900  0.76403100  1
  C  1014  1  0.40564800  0.91107100  0.74084600  1
  C  1015  1  0.41634900  0.90427000  0.71412100  1
  C  1016  1  0.44547100  0.89991300  0.71063500  1
  C  1017  1  0.46365100  0.90274700  0.73390200  1
  C  1018  1  0.45269900  0.90985600  0.76058900  1
  C  1021  1  0.41277700  0.92492100  0.78936600  1
  C  1022  1  0.40803600  0.90754100  0.81282900  1
  C  1023  1  0.40020500  0.91963500  0.83878800  1
  C  1024  1  0.39749200  0.94906900  0.84143600  1
  C  1025  1  0.40257900  0.96643900  0.81797100  1
  C  1026  1  0.41019800  0.95419600  0.79216300  1
  C  1035  1  0.42374800  0.13746700  0.28912000  1
  C  1036  1  0.40578800  0.14033400  0.31230100  1
  C  1037  1  0.41645400  0.14710600  0.33904900  1
  C  1038  1  0.44556500  0.15152300  0.34256200  1
  C  1039  1  0.46376900  0.14874800  0.31930400  1
  C  1040  1  0.45284800  0.14169000  0.29259100  1
  C  1043  1  0.41298700  0.12660500  0.26375000  1
  C  1044  1  0.40837400  0.14399300  0.24026700  1
  C  1045  1  0.40064700  0.13192400  0.21426700  1
  C  1046  1  0.39788000  0.10249400  0.21160400  1
  C  1047  1  0.40287600  0.08511400  0.23508600  1
  C  1048  1  0.41037800  0.09733600  0.26093600  1
  C  1057  1  0.18948400  0.14781300  0.40137000  1
  C  1059  1  0.15445600  0.17388600  0.42586200  1
  C  1060  1  0.14890300  0.18942300  0.40119800  1
  C  1062  1  0.18355700  0.16292300  0.37655500  1
  C  1063  1  0.19696500  0.15940300  0.35310400  1
  C  1064  1  0.14297400  0.17886500  0.45009300  1
  C  1067  1  0.86223700  0.90387700  0.40115800  1
  C  1069  1  0.89729000  0.87787000  0.42569900  1
  C  1070  1  0.90275000  0.86219300  0.40110600  1
  C  1072  1  0.86800700  0.88855400  0.37644200  1
  C  1073  1  0.85446300  0.89190400  0.35304600  1
  C  1074  1  0.90882700  0.87299900  0.44992500  1
  C  1077  1  0.86202100  0.14778400  0.65193800  1
  C  1079  1  0.89706400  0.17373500  0.62733900  1
  C  1080  1  0.90256100  0.18941100  0.65192600  1
  C  1082  1  0.86787000  0.16306500  0.67666300  1
  C  1083  1  0.85441900  0.15966300  0.70010600  1
  C  1084  1  0.90853800  0.17860200  0.60308200  1
  C  1087  1  0.18953200  0.90387000  0.65170800  1
  C  1089  1  0.15455900  0.87780500  0.62714200  1
  C  1090  1  0.14894600  0.86228700  0.65180000  1
  C  1092  1  0.18357100  0.88875300  0.67650800  1
  C  1093  1  0.19694700  0.89227100  0.69997800  1
  C  1094  1  0.14307100  0.87287300  0.60290600  1
  C  1097  1  0.40083800  0.18954300  0.14856000  1
  C  1099  1  0.42545600  0.15469700  0.17475900  1
  C  1100  1  0.40075200  0.14896200  0.19016200  1
  C  1102  1  0.37598700  0.18342900  0.16353800  1
  C  1103  1  0.35245900  0.19666600  0.15989600  1
  C  1104  1  0.44973700  0.14337200  0.17984400  1
  C  1107  1  0.40031800  0.86213900  0.90461800  1
  C  1109  1  0.42482300  0.89721000  0.87860100  1
  C  1110  1  0.40023500  0.90258000  0.86288400  1
  C  1112  1  0.37560400  0.86784500  0.88926600  1
  C  1113  1  0.35222800  0.85426600  0.89261800  1
  C  1114  1  0.44903500  0.90878500  0.87374700  1
  C  1117  1  0.65091800  0.86206100  0.14858600  1
  C  1119  1  0.62626000  0.89697600  0.17465400  1
  C  1120  1  0.65089300  0.90262000  0.19020500  1
  C  1122  1  0.67568900  0.86805900  0.16373600  1
  C  1123  1  0.69918800  0.85473700  0.16022000  1
  C  1124  1  0.60196900  0.90833900  0.17962000  1
  C  1127  1  0.65126200  0.18940100  0.90465800  1
  C  1129  1  0.62684300  0.15423900  0.87871000  1
  C  1130  1  0.65145200  0.14884200  0.86303100  1
  C  1132  1  0.67602000  0.18366100  0.88938800  1
  C  1133  1  0.69940000  0.19722900  0.89277500  1
  C  1134  1  0.60266500  0.14257700  0.87389400  1
  C  1137  1  0.14781600  0.40071600  0.19032700  1
  C  1139  1  0.17394400  0.42523000  0.15535500  1
  C  1140  1  0.18939700  0.40053200  0.14973500  1
  C  1142  1  0.16283800  0.37586800  0.18431600  1
  C  1143  1  0.15924200  0.35239000  0.19765600  1
  C  1144  1  0.17898400  0.44947500  0.14392800  1
  C  1147  1  0.90384900  0.40049600  0.86286600  1
  C  1149  1  0.87773800  0.42508700  0.89780800  1
  C  1150  1  0.86208800  0.40048000  0.90329000  1
  C  1152  1  0.88856700  0.37576300  0.86868100  1
  C  1153  1  0.89199200  0.35233500  0.85521300  1
  C  1154  1  0.87282100  0.44933200  0.90928400  1
  C  1157  1  0.14779300  0.65120300  0.86288000  1
  C  1159  1  0.17375300  0.62663300  0.89793700  1
  C  1160  1  0.18947200  0.65120500  0.90337600  1
  C  1162  1  0.16311400  0.67591700  0.86867100  1
  C  1163  1  0.15973100  0.69934100  0.85518300  1
  C  1164  1  0.17860600  0.60238600  0.90943900  1
  C  1167  1  0.90386400  0.65104600  0.19021700  1
  C  1169  1  0.87786300  0.62656400  0.15514000  1
  C  1170  1  0.86233300  0.65122400  0.14956800  1
  C  1172  1  0.88873000  0.67584800  0.18431200  1
  C  1173  1  0.89220300  0.69928200  0.19776400  1
  C  1174  1  0.87295500  0.60235500  0.14358300  1
  C  1177  1  0.14780300  0.18947300  0.65168900  1
  C  1179  1  0.17388100  0.15445000  0.62719500  1
  C  1180  1  0.18941900  0.14889800  0.65185700  1
  C  1182  1  0.16291300  0.18354600  0.67650400  1
  C  1183  1  0.15939000  0.19695200  0.69995500  1
  C  1184  1  0.17886300  0.14297100  0.60296400  1
  C  1187  1  0.90385400  0.86220800  0.65187100  1
  C  1189  1  0.87781900  0.89725400  0.62735000  1
  C  1190  1  0.86216400  0.90271400  0.65195500  1
  C  1192  1  0.88855000  0.86797700  0.67660000  1
  C  1193  1  0.89192100  0.85443500  0.69999500  1
  C  1194  1  0.87293200  0.90878900  0.60312800  1
  C  1197  1  0.14777700  0.86203200  0.40110000  1
  C  1199  1  0.17369800  0.89710200  0.42569100  1
  C  1200  1  0.18939100  0.90258400  0.40111200  1
  C  1202  1  0.16307500  0.86786600  0.37638100  1
  C  1203  1  0.15969600  0.85439400  0.35294700  1
  C  1204  1  0.17854600  0.90859200  0.44994400  1
  C  1207  1  0.90387000  0.18953500  0.40134300  1
  C  1209  1  0.87780100  0.15456600  0.42591000  1
  C  1210  1  0.86228300  0.14895300  0.40125100  1
  C  1212  1  0.88875300  0.18357400  0.37654300  1
  C  1213  1  0.89227300  0.19694700  0.35307300  1
  C  1214  1  0.87286700  0.14308000  0.45014700  1
  C  1217  1  0.18956800  0.40086900  0.90448600  1
  C  1219  1  0.15471800  0.42547900  0.87828500  1
  C  1220  1  0.14897800  0.40077100  0.86289500  1
  C  1222  1  0.18344900  0.37601300  0.88952000  1
  C  1223  1  0.19668500  0.35248400  0.89316900  1
  C  1224  1  0.14339200  0.44976000  0.87319600  1
  C  1227  1  0.86215500  0.40018600  0.14842900  1
  C  1229  1  0.89722500  0.42473900  0.17440700  1
  C  1230  1  0.90259900  0.40018000  0.19016300  1
  C  1232  1  0.86786600  0.37549900  0.16382200  1
  C  1233  1  0.85429300  0.35211500  0.16050800  1
  C  1234  1  0.90879400  0.44896100  0.17922400  1
  C  1237  1  0.86210300  0.65092200  0.90451800  1
  C  1239  1  0.89702200  0.62627700  0.87844600  1
  C  1240  1  0.90263900  0.65090500  0.86287800  1
  C  1242  1  0.86807400  0.67569100  0.88935200  1
  C  1243  1  0.85473300  0.69918000  0.89285900  1
  C  1244  1  0.90839800  0.60199200  0.87348300  1
  C  1247  1  0.18940800  0.65126600  0.14843300  1
  C  1249  1  0.15424200  0.62684900  0.17437700  1
  C  1250  1  0.14884300  0.65146100  0.19005300  1
  C  1252  1  0.18366800  0.67602400  0.16370200  1
  C  1253  1  0.19723500  0.69940200  0.16031300  1
  C  1254  1  0.14257800  0.60267300  0.17919300  1
  C  1257  1  0.40073100  0.14780800  0.86273200  1
  C  1259  1  0.42524200  0.17395300  0.89769200  1
  C  1260  1  0.40053800  0.18939500  0.90331700  1
  C  1262  1  0.37587600  0.16281900  0.86874800  1
  C  1263  1  0.35239600  0.15921200  0.85541400  1
  C  1264  1  0.44948700  0.17900300  0.90911400  1
  C  1267  1  0.40045700  0.90385600  0.19018500  1
  C  1269  1  0.42503700  0.87776900  0.15521800  1
  C  1270  1  0.40043600  0.86210100  0.14975700  1
  C  1272  1  0.37573000  0.88855400  0.18439000  1
  C  1273  1  0.35231200  0.89196000  0.19788100  1
  C  1274  1  0.44927800  0.87286900  0.14372600  1
  C  1277  1  0.65120300  0.14783200  0.19017400  1
  C  1279  1  0.62663700  0.17382200  0.15513800  1
  C  1280  1  0.65121800  0.18952600  0.14968600  1
  C  1282  1  0.67592100  0.16314700  0.18438700  1
  C  1283  1  0.69934700  0.15974900  0.19787000  1
  C  1284  1  0.60239200  0.17869000  0.14364200  1
  C  1287  1  0.65103300  0.90387900  0.86284300  1
  C  1289  1  0.62653300  0.87786600  0.89790000  1
  C  1290  1  0.65119000  0.86232300  0.90345800  1
  C  1292  1  0.67583800  0.88874900  0.86876100  1
  C  1293  1  0.69928000  0.89223900  0.85533000  1
  C  1294  1  0.60231700  0.87296100  0.90944500  1
  C  1297  1  0.69311700  0.64743600  0.90293600  1
  C  1299  1  0.66917100  0.68239100  0.92978700  1
  C  1300  1  0.65357900  0.69022800  0.90576800  1
  C  1302  1  0.67672800  0.65441000  0.87921300  1
  C  1303  1  0.67991400  0.64302200  0.85467800  1
  C  1304  1  0.66666667  0.69379100  0.95443900  1
  C  1307  1  0.35866400  0.40437000  0.90325900  1
  C  1309  1  0.38264700  0.36932500  0.92996500  1
  C  1310  1  0.39811000  0.36148200  0.90586700  1
  C  1312  1  0.37492500  0.39737700  0.87945100  1
  C  1313  1  0.37159600  0.40873400  0.85492400  1
  C  1314  1  0.38521400  0.35788100  0.95458900  1
  C  1317  1  0.35843000  0.64730000  0.15007100  1
  C  1319  1  0.38240900  0.68226700  0.12326000  1
  C  1320  1  0.39798900  0.69008100  0.14729500  1
  C  1322  1  0.37477400  0.65428500  0.17382200  1
  C  1323  1  0.37154800  0.64289400  0.19835000  1
  C  1324  1  0.38491000  0.69369100  0.09862000  1
  C  1327  1  0.69318800  0.40436200  0.15007400  1
  C  1329  1  0.66910700  0.36944500  0.12329300  1
  C  1330  1  0.65359500  0.36161200  0.14736500  1
  C  1332  1  0.67687500  0.39739600  0.17385200  1
  C  1333  1  0.68016400  0.40877600  0.19837600  1
  C  1334  1  0.66652100  0.35805000  0.09864800  1
  C  1337  1  0.90235600  0.69319900  0.64808800  1
  C  1339  1  0.92918400  0.66922600  0.68304600  1
  C  1340  1  0.90517800  0.65358500  0.69081700  1
  C  1342  1  0.87863900  0.67678200  0.65501800  1
  C  1343  1  0.85411100  0.67996900  0.64361500  1
  C  1344  1  0.95382500  0.66674300  0.69447200  1
  C  1347  1  0.90225700  0.35854100  0.40500500  1
  C  1349  1  0.92901000  0.38251500  0.36999400  1
  C  1350  1  0.90493700  0.39802000  0.36215700  1
  C  1352  1  0.87848100  0.37485800  0.39803900  1
  C  1353  1  0.85395200  0.37157300  0.40940600  1
  C  1354  1  0.95364000  0.38505000  0.35855900  1
  C  1357  1  0.14912100  0.35856400  0.64797300  1
  C  1359  1  0.12235700  0.38256400  0.68296500  1
  C  1360  1  0.14641900  0.39809800  0.69078300  1
  C  1362  1  0.17290000  0.37486500  0.65496600  1
  C  1363  1  0.19742400  0.37160300  0.64357700  1
  C  1364  1  0.09772400  0.38510100  0.69439500  1
  C  1367  1  0.14955200  0.69309600  0.40500900  1
  C  1369  1  0.12274900  0.66909200  0.37005700  1
  C  1370  1  0.14682400  0.65361800  0.36215700  1
  C  1372  1  0.17333500  0.67681800  0.39797400  1
  C  1373  1  0.19786500  0.68008800  0.40934800  1
  C  1374  1  0.09809300  0.66652100  0.35868300  1
  C  1377  1  0.64728500  0.90236000  0.69379400  1
  C  1379  1  0.68222300  0.92918600  0.66979200  1
  C  1380  1  0.69003500  0.90515700  0.65420300  1
  C  1382  1  0.65423200  0.87862800  0.67740700  1
  C  1383  1  0.64285200  0.85409400  0.68062700  1
  C  1384  1  0.69364300  0.95382700  0.66728800  1
  C  1387  1  0.40414600  0.90214800  0.35912500  1
  C  1389  1  0.36913500  0.92892000  0.38308300  1
  C  1390  1  0.36132100  0.90486800  0.39863400  1
  C  1392  1  0.39718200  0.87838700  0.37546400  1
  C  1393  1  0.40856000  0.85385900  0.37220600  1
  C  1394  1  0.35771100  0.95355900  0.38560500  1
  C  1397  1  0.64744900  0.14948400  0.35913800  1
  C  1399  1  0.68240100  0.12264000  0.38310200  1
  C  1400  1  0.69023000  0.14666300  0.39869100  1
  C  1402  1  0.65443100  0.17321600  0.37551200  1
  C  1403  1  0.64303500  0.19774500  0.37231700  1
  C  1404  1  0.69380200  0.09799000  0.38559500  1
  C  1407  1  0.40444100  0.14912400  0.69371600  1
  C  1409  1  0.36942400  0.12242700  0.66968500  1
  C  1410  1  0.36158500  0.14653200  0.65423000  1
  C  1412  1  0.39746300  0.17293600  0.67745700  1
  C  1413  1  0.40887600  0.19744300  0.68075900  1
  C  1414  1  0.35799000  0.09780100  0.66709300  1
  C  1417  1  0.64739400  0.69305000  0.15008000  1
  C  1419  1  0.68234300  0.66907700  0.12324400  1
  C  1420  1  0.69018400  0.65350300  0.14727300  1
  C  1422  1  0.65437100  0.67667800  0.17381400  1
  C  1423  1  0.64299100  0.67988700  0.19834900  1
  C  1424  1  0.69374500  0.66657400  0.09859400  1
  C  1427  1  0.40435300  0.35864500  0.14980800  1
  C  1429  1  0.36932100  0.38264100  0.12309700  1
  C  1430  1  0.36147800  0.39810400  0.14719500  1
  C  1432  1  0.39736200  0.37490600  0.17361500  1
  C  1433  1  0.40871300  0.37157300  0.19814600  1
  C  1434  1  0.35788100  0.38521200  0.09847200  1
  C  1437  1  0.64729600  0.35843000  0.90300100  1
  C  1439  1  0.68226100  0.38240900  0.92982100  1
  C  1440  1  0.69006900  0.39799500  0.90578900  1
  C  1442  1  0.65427800  0.37478300  0.87925500  1
  C  1443  1  0.64289000  0.37156300  0.85472700  1
  C  1444  1  0.69368300  0.38490400  0.95446200  1
  C  1447  1  0.40429700  0.69322800  0.90295500  1
  C  1449  1  0.36933600  0.66919900  0.92972400  1
  C  1450  1  0.36152200  0.65366000  0.90566400  1
  C  1452  1  0.39734400  0.67689400  0.87918500  1
  C  1453  1  0.40875900  0.68014300  0.85467200  1
  C  1454  1  0.35792700  0.66666667  0.95436500  1
  C  1457  1  0.69320100  0.90237700  0.40497100  1
  C  1459  1  0.66921800  0.92922400  0.37003400  1
  C  1460  1  0.65356800  0.90522200  0.36225900  1
  C  1462  1  0.67677800  0.87866600  0.39803700  1
  C  1463  1  0.67996700  0.85413200  0.40942700  1
  C  1464  1  0.66673500  0.95387100  0.35862000  1
  C  1467  1  0.35854300  0.90226400  0.64802900  1
  C  1469  1  0.38251700  0.92902200  0.68303600  1
  C  1470  1  0.39802400  0.90494900  0.69087700  1
  C  1472  1  0.37486000  0.87849000  0.65499900  1
  C  1473  1  0.37157300  0.85395800  0.64363600  1
  C  1474  1  0.38505200  0.95365500  0.69446800  1
  C  1477  1  0.35857400  0.14913400  0.40509100  1
  C  1479  1  0.38257200  0.12236900  0.37009900  1
  C  1480  1  0.39810400  0.14643100  0.36227600  1
  C  1482  1  0.37487500  0.17291300  0.39809600  1
  C  1483  1  0.37161300  0.19743700  0.40948400  1
  C  1484  1  0.38510700  0.09773600  0.35866600  1
  C  1487  1  0.69309600  0.14950700  0.64805800  1
  C  1489  1  0.66909200  0.12273100  0.68302800  1
  C  1490  1  0.65362700  0.14681300  0.69091700  1
  C  1492  1  0.67682600  0.17329800  0.65508100  1
  C  1493  1  0.68010100  0.19782100  0.64369500  1
  C  1494  1  0.66651700  0.09808100  0.69441600  1
  C  1497  1  0.90233300  0.64730600  0.35924500  1
  C  1499  1  0.92914400  0.68226700  0.38323200  1
  C  1500  1  0.90510800  0.69007900  0.39881400  1
  C  1502  1  0.87859700  0.65424900  0.37563100  1
  C  1503  1  0.85406900  0.64285500  0.37242000  1
  C  1504  1  0.95378300  0.69369100  0.38573300  1
  C  1507  1  0.90217800  0.40416300  0.69391700  1
  C  1509  1  0.92894500  0.36915400  0.66995500  1
  C  1510  1  0.90489100  0.36134200  0.65440600  1
  C  1512  1  0.87841400  0.39720300  0.67758100  1
  C  1513  1  0.85388700  0.40858100  0.68084300  1
  C  1514  1  0.95358000  0.35772600  0.66743100  1
  C  1517  1  0.14948600  0.64744700  0.69391100  1
  C  1519  1  0.12263900  0.68239700  0.66995100  1
  C  1520  1  0.14666100  0.69023200  0.65436200  1
  C  1522  1  0.17321800  0.65443300  0.67753900  1
  C  1523  1  0.19774800  0.64304100  0.68073400  1
  C  1524  1  0.09798700  0.69379800  0.66745600  1
  C  1527  1  0.14914500  0.40443700  0.35934500  1
  C  1529  1  0.12244000  0.36942600  0.38337400  1
  C  1530  1  0.14654200  0.36158500  0.39883500  1
  C  1532  1  0.17295500  0.39745700  0.37560800  1
  C  1533  1  0.19746400  0.40886800  0.37230900  1
  C  1534  1  0.09781200  0.35799600  0.38596600  1
  C  1537  1  0.23187900  0.99597500  0.40436600  1
  C  1539  1  0.23689200  0.03658300  0.43345200  1
  C  1540  1  0.23138300  0.05410600  0.41011400  1
  C  1542  1  0.22571600  0.01340900  0.38116800  1
  C  1543  1  0.22157600  0.00425100  0.35585500  1
  C  1544  1  0.24156000  0.04550500  0.45879500  1
  C  1547  1  0.81972200  0.05561500  0.40431600  1
  C  1549  1  0.81466500  0.01501300  0.43340000  1
  C  1550  1  0.82019700  0.99748400  0.41007300  1
  C  1552  1  0.82592500  0.03818200  0.38112900  1
  C  1553  1  0.83005600  0.04733600  0.35581100  1
  C  1554  1  0.80998200  0.00610100  0.45874300  1
  C  1557  1  0.81957500  0.99603200  0.64889400  1
  C  1559  1  0.81449700  0.03663000  0.61980800  1
  C  1560  1  0.81996700  0.05416500  0.64314600  1
  C  1562  1  0.82569300  0.01347600  0.67209800  1
  C  1563  1  0.82987600  0.00431600  0.69740300  1
  C  1564  1  0.80984800  0.04553500  0.59445500  1
  C  1567  1  0.23211600  0.05563100  0.64885000  1
  C  1569  1  0.23712900  0.01504500  0.61973200  1
  C  1570  1  0.23161700  0.99750500  0.64305800  1
  C  1572  1  0.22593600  0.03818100  0.67203100  1
  C  1573  1  0.22174400  0.04733200  0.69733800  1
  C  1574  1  0.24179500  0.00614800  0.59438100  1
  C  1577  1  0.40351700  0.23189800  0.99668800  1
  C  1579  1  0.43263500  0.23691300  0.03727100  1
  C  1580  1  0.40931200  0.23140600  0.05481400  1
  C  1582  1  0.38033700  0.22572200  0.01414000  1
  C  1583  1  0.35502100  0.22156600  0.00499700  1
  C  1584  1  0.45798600  0.24158700  0.04616900  1
  C  1587  1  0.40364700  0.81967400  0.05637700  1
  C  1589  1  0.43274400  0.81468600  0.01577700  1
  C  1590  1  0.40940800  0.82019300  0.99824900  1
  C  1592  1  0.38045400  0.82585800  0.03894600  1
  C  1593  1  0.35512800  0.82994700  0.04809800  1
  C  1594  1  0.45809300  0.81003700  0.00686300  1
  C  1597  1  0.64812800  0.81972400  0.99679700  1
  C  1599  1  0.61903700  0.81454300  0.03738200  1
  C  1600  1  0.64236000  0.82003600  0.05493100  1
  C  1602  1  0.67131500  0.82585800  0.01425600  1
  C  1603  1  0.69661800  0.83008800  0.00510800  1
  C  1604  1  0.59369000  0.80983600  0.04627300  1
  C  1607  1  0.64807900  0.23213700  0.05637000  1
  C  1609  1  0.61898900  0.23709300  0.01575900  1
  C  1610  1  0.64232500  0.23156100  0.99824000  1
  C  1612  1  0.67127500  0.22594200  0.03894400  1
  C  1613  1  0.69657800  0.22177300  0.04811400  1
  C  1614  1  0.59364200  0.24173800  0.00683700  1
  C  1617  1  0.99595700  0.40348600  0.23268600  1
  C  1619  1  0.03651800  0.43264400  0.23765300  1
  C  1620  1  0.05407700  0.40932700  0.23217400  1
  C  1622  1  0.01342600  0.38030900  0.22654500  1
  C  1623  1  0.00430600  0.35497700  0.22243500  1
  C  1624  1  0.04539900  0.45800700  0.24228900  1
  C  1627  1  0.05561500  0.40372700  0.82040500  1
  C  1629  1  0.01499900  0.43279500  0.81535000  1
  C  1630  1  0.99748200  0.40945900  0.82089300  1
  C  1632  1  0.03819400  0.38053600  0.82662500  1
  C  1633  1  0.04736100  0.35522400  0.83076400  1
  C  1634  1  0.00607500  0.45813100  0.81065500  1
  C  1637  1  0.99604900  0.64790300  0.82041300  1
  C  1639  1  0.03669800  0.61889400  0.81529900  1
  C  1640  1  0.05419200  0.64225500  0.82080900  1
  C  1642  1  0.01345000  0.67112800  0.82656400  1
  C  1643  1  0.00424600  0.69641400  0.83077300  1
  C  1644  1  0.04564900  0.59356400  0.81061500  1
  C  1647  1  0.05560500  0.64829100  0.23282600  1
  C  1649  1  0.01505400  0.61912700  0.23785400  1
  C  1650  1  0.99748400  0.64242900  0.23234200  1
  C  1652  1  0.03812600  0.67145300  0.22665400  1
  C  1653  1  0.04724400  0.69677300  0.22246400  1
  C  1654  1  0.00618900  0.59376300  0.24251900  1
  C  1657  1  0.99596100  0.23187500  0.64868500  1
  C  1659  1  0.03657200  0.23687800  0.61960300  1
  C  1660  1  0.05409300  0.23136800  0.64294000  1
  C  1662  1  0.01339300  0.22570900  0.67188400  1
  C  1663  1  0.00423300  0.22157400  0.69719800  1
  C  1664  1  0.04549700  0.24154300  0.59426000  1
  C  1667  1  0.05560600  0.81973200  0.64871200  1
  C  1669  1  0.01501200  0.81467100  0.61961500  1
  C  1670  1  0.99747800  0.82020600  0.64293800  1
  C  1672  1  0.03816700  0.82593600  0.67189300  1
  C  1673  1  0.04731400  0.83007100  0.69721300  1
  C  1674  1  0.00610700  0.80998200  0.59427200  1
  C  1677  1  0.99605300  0.81955600  0.40417100  1
  C  1679  1  0.03666100  0.81445100  0.43324300  1
  C  1680  1  0.05418800  0.81990800  0.40989400  1
  C  1682  1  0.01349100  0.82567000  0.38096300  1
  C  1683  1  0.00432200  0.82986600  0.35566200  1
  C  1684  1  0.04557200  0.80980000  0.45859200  1
  C  1687  1  0.05563200  0.23211600  0.40420500  1
  C  1689  1  0.01504600  0.23712700  0.43332000  1
  C  1690  1  0.99750700  0.23161500  0.40999500  1
  C  1692  1  0.03818400  0.22593400  0.38102400  1
  C  1693  1  0.04733700  0.22174400  0.35571500  1
  C  1694  1  0.00614700  0.24179200  0.45867200  1
  C  1697  1  0.23190000  0.40353800  0.05636400  1
  C  1699  1  0.23692000  0.43266300  0.01578600  1
  C  1700  1  0.23141400  0.40934100  0.99823900  1
  C  1702  1  0.22572600  0.38036000  0.03890800  1
  C  1703  1  0.22156800  0.35504200  0.04804600  1
  C  1704  1  0.24159500  0.45801400  0.00689300  1
  C  1707  1  0.81967400  0.40358900  0.99667900  1
  C  1709  1  0.81470400  0.43264200  0.03731300  1
  C  1710  1  0.82018700  0.40928100  0.05481400  1
  C  1712  1  0.82583900  0.38037000  0.01408400  1
  C  1713  1  0.82991400  0.35505500  0.00490000  1
  C  1714  1  0.81007900  0.45798400  0.04625600  1
  C  1717  1  0.81966100  0.64818600  0.05627700  1
  C  1719  1  0.81449900  0.61906600  0.01571000  1
  C  1720  1  0.82001100  0.64237500  0.99814800  1
  C  1722  1  0.82581200  0.67135900  0.03880500  1
  C  1723  1  0.83004600  0.69666600  0.04793800  1
  C  1724  1  0.80979400  0.59371500  0.00683500  1
  C  1727  1  0.23207200  0.64803500  0.99670500  1
  C  1729  1  0.23705200  0.61895700  0.03732300  1
  C  1730  1  0.23152700  0.64229900  0.05483800  1
  C  1732  1  0.22588700  0.67123500  0.01412900  1
  C  1733  1  0.22171600  0.69653800  0.00495400  1
  C  1734  1  0.24170200  0.59361200  0.04625000  1
  C  1737  1  0.40347600  0.99594200  0.82037800  1
  C  1739  1  0.43264000  0.03649800  0.81541000  1
  C  1740  1  0.40932700  0.05406100  0.82089700  1
  C  1742  1  0.38030300  0.01341400  0.82652800  1
  C  1743  1  0.35497100  0.00429700  0.83064900  1
  C  1744  1  0.45800300  0.04537400  0.81077000  1
  C  1747  1  0.40371600  0.05560900  0.23267300  1
  C  1749  1  0.43278200  0.01499200  0.23772600  1
  C  1750  1  0.40944600  0.99747500  0.23218100  1
  C  1752  1  0.38052300  0.03818900  0.22645500  1
  C  1753  1  0.35521400  0.04735700  0.22231600  1
  C  1754  1  0.45811800  0.00606700  0.24241700  1
  C  1757  1  0.64788200  0.99606300  0.23260400  1
  C  1759  1  0.61887800  0.03671700  0.23770900  1
  C  1760  1  0.64224100  0.05420800  0.23220400  1
  C  1762  1  0.67110900  0.01346200  0.22645100  1
  C  1763  1  0.69639600  0.00425500  0.22224900  1
  C  1764  1  0.59355000  0.04567100  0.24239800  1
  C  1767  1  0.64829500  0.05561500  0.82023100  1
  C  1769  1  0.61913700  0.01506200  0.81519500  1
  C  1770  1  0.64244000  0.99749400  0.82070700  1
  C  1772  1  0.67145900  0.03813700  0.82640300  1
  C  1773  1  0.69677700  0.04725700  0.83059700  1
  C  1774  1  0.59377400  0.00619500  0.81052700  1
  C  1777  1  0.72921900  0.49305000  0.90302000  1
  C  1779  1  0.73145900  0.53493200  0.93046200  1
  C  1780  1  0.72986900  0.55124000  0.90570600  1
  C  1782  1  0.72648600  0.50929800  0.87836600  1
  C  1783  1  0.72512200  0.49869800  0.85331700  1
  C  1784  1  0.73395800  0.54522700  0.95559500  1
  C  1787  1  0.32234000  0.55863900  0.90287300  1
  C  1789  1  0.32002000  0.51682800  0.93042600  1
  C  1790  1  0.32160000  0.50046000  0.90570800  1
  C  1792  1  0.32506300  0.54232100  0.87826400  1
  C  1793  1  0.32640800  0.55285700  0.85318500  1
  C  1794  1  0.31749600  0.50660900  0.95558700  1
  C  1797  1  0.32212600  0.49304600  0.15023100  1
  C  1799  1  0.31981500  0.53492600  0.12278200  1
  C  1800  1  0.32135500  0.55123100  0.14754300  1
  C  1802  1  0.32478400  0.50930700  0.17488600  1
  C  1803  1  0.32618200  0.49870000  0.19993000  1
  C  1804  1  0.31731600  0.54520800  0.09764400  1
  C  1807  1  0.72968700  0.55859900  0.15015400  1
  C  1809  1  0.73200800  0.51674000  0.12268000  1
  C  1810  1  0.73035700  0.50041400  0.14742200  1
  C  1812  1  0.72688400  0.54232800  0.17478600  1
  C  1813  1  0.72540500  0.55291400  0.19983400  1
  C  1814  1  0.73450500  0.50647000  0.09753700  1
  C  1817  1  0.90224300  0.72947300  0.49376600  1
  C  1819  1  0.92971200  0.73172100  0.53563200  1
  C  1820  1  0.90496600  0.73011000  0.55195400  1
  C  1822  1  0.87760200  0.72671600  0.51003400  1
  C  1823  1  0.85254800  0.72532300  0.49945000  1
  C  1824  1  0.95485100  0.73422200  0.54591200  1
  C  1827  1  0.90216300  0.32231700  0.55931600  1
  C  1829  1  0.92965700  0.32005000  0.51746500  1
  C  1830  1  0.90491400  0.32160200  0.50113400  1
  C  1832  1  0.87752600  0.32502100  0.54303400  1
  C  1833  1  0.85246200  0.32632800  0.55360500  1
  C  1834  1  0.95480500  0.31755500  0.50720300  1
  C  1837  1  0.14955400  0.32215100  0.49373100  1
  C  1839  1  0.12201800  0.31983800  0.53555300  1
  C  1840  1  0.14674200  0.32141200  0.55191200  1
  C  1842  1  0.17417300  0.32483300  0.51004000  1
  C  1843  1  0.19923800  0.32624500  0.49948400  1
  C  1844  1  0.09686000  0.31732400  0.54577800  1
  C  1847  1  0.14944100  0.72942900  0.55932600  1
  C  1849  1  0.12200200  0.73167300  0.51744200  1
  C  1850  1  0.14675800  0.73004900  0.50113200  1
  C  1852  1  0.17409200  0.72665900  0.54307800  1
  C  1853  1  0.19913500  0.72525200  0.55368700  1
  C  1854  1  0.09686600  0.73414300  0.50714900  1
  C  1857  1  0.49299500  0.90214400  0.73019200  1
  C  1859  1  0.53484400  0.92964700  0.73242100  1
  C  1860  1  0.55117900  0.90491200  0.73080700  1
  C  1862  1  0.50928400  0.87751600  0.72743900  1
  C  1863  1  0.49871700  0.85245400  0.72605000  1
  C  1864  1  0.54510300  0.95479500  0.73491600  1
  C  1867  1  0.55850300  0.90233700  0.32313200  1
  C  1869  1  0.51660100  0.92974900  0.32083500  1
  C  1870  1  0.50031300  0.90497600  0.32236700  1
  C  1872  1  0.54227100  0.87766700  0.32580300  1
  C  1873  1  0.55288800  0.85262100  0.32709500  1
  C  1874  1  0.50629200  0.95487600  0.31834500  1
  C  1877  1  0.49310900  0.14942500  0.32304100  1
  C  1879  1  0.53501000  0.12201600  0.32072000  1
  C  1880  1  0.55130000  0.14678900  0.32225600  1
  C  1882  1  0.50934500  0.17409600  0.32570000  1
  C  1883  1  0.49871700  0.19913200  0.32708500  1
  C  1884  1  0.54531300  0.09688800  0.31821300  1
  C  1887  1  0.55872500  0.14951400  0.73036300  1
  C  1889  1  0.51695300  0.12189200  0.73251300  1
  C  1890  1  0.50054800  0.14657500  0.73080700  1
  C  1892  1  0.54237600  0.17409100  0.72751400  1
  C  1893  1  0.55288000  0.19917700  0.72609600  1
  C  1894  1  0.50676100  0.09671400  0.73498300  1
  C  1897  1  0.49303500  0.72924900  0.15005800  1
  C  1899  1  0.53490700  0.73149500  0.12260100  1
  C  1900  1  0.55122500  0.72988100  0.14735100  1
  C  1902  1  0.50929200  0.72649400  0.17470300  1
  C  1903  1  0.49870200  0.72511500  0.19975500  1
  C  1904  1  0.54519400  0.73400200  0.09746600  1
  C  1907  1  0.55861600  0.32233100  0.15020300  1
  C  1909  1  0.51680500  0.31998100  0.12265200  1
  C  1910  1  0.50043500  0.32156200  0.14736900  1
  C  1912  1  0.54229600  0.32505300  0.17481200  1
  C  1913  1  0.55283200  0.32641400  0.19988800  1
  C  1914  1  0.50658500  0.31745200  0.09749100  1
  C  1917  1  0.49304600  0.32212000  0.90282500  1
  C  1919  1  0.53492800  0.31980900  0.93027500  1
  C  1920  1  0.55123300  0.32134700  0.90551300  1
  C  1922  1  0.50930900  0.32477600  0.87816900  1
  C  1923  1  0.49870200  0.32617600  0.85312600  1
  C  1924  1  0.54520800  0.31731200  0.95541300  1
  C  1927  1  0.55861800  0.72958600  0.90297000  1
  C  1929  1  0.51676300  0.73179800  0.93045800  1
  C  1930  1  0.50043000  0.73015800  0.90572200  1
  C  1932  1  0.54234400  0.72682500  0.87833500  1
  C  1933  1  0.55292400  0.72543400  0.85327900  1
  C  1934  1  0.50649300  0.73425800  0.95560300  1
  C  1937  1  0.72949400  0.90224500  0.55927600  1
  C  1939  1  0.73178600  0.92969900  0.51740200  1
  C  1940  1  0.73016200  0.90495100  0.50108400  1
  C  1942  1  0.72672600  0.87760400  0.54301500  1
  C  1943  1  0.72530400  0.85255400  0.55360700  1
  C  1944  1  0.73430200  0.95483500  0.50712000  1
  C  1947  1  0.32229800  0.90214800  0.49372400  1
  C  1949  1  0.32003700  0.92964700  0.53557600  1
  C  1950  1  0.32158800  0.90490100  0.55190600  1
  C  1952  1  0.32500200  0.87751200  0.51000700  1
  C  1953  1  0.32630700  0.85244700  0.49943700  1
  C  1954  1  0.31754200  0.95479300  0.54583700  1
  C  1957  1  0.32215500  0.14956200  0.55933500  1
  C  1959  1  0.31984700  0.12203000  0.51750900  1
  C  1960  1  0.32142000  0.14675500  0.50115100  1
  C  1962  1  0.32483500  0.17418300  0.54302500  1
  C  1963  1  0.32624500  0.19924700  0.55358400  1
  C  1964  1  0.31733300  0.09687200  0.50728100  1
  C  1967  1  0.72941600  0.14940700  0.49373100  1
  C  1969  1  0.73166800  0.12194900  0.53560300  1
  C  1970  1  0.73003400  0.14669600  0.55192300  1
  C  1972  1  0.72663600  0.17405000  0.50999200  1
  C  1973  1  0.72522000  0.19909800  0.49939600  1
  C  1974  1  0.73414700  0.09680900  0.54588500  1
  C  1977  1  0.90213600  0.49300200  0.32286500  1
  C  1979  1  0.92964300  0.53484900  0.32065300  1
  C  1980  1  0.90490700  0.55118500  0.32226400  1
  C  1982  1  0.87750700  0.50929000  0.32561800  1
  C  1983  1  0.85244500  0.49872700  0.32699700  1
  C  1984  1  0.95479100  0.54510600  0.31816400  1
  C  1987  1  0.90231400  0.55851800  0.72993600  1
  C  1989  1  0.92974700  0.51663100  0.73222800  1
  C  1990  1  0.90498500  0.50032800  0.73068600  1
  C  1992  1  0.87765200  0.54227100  0.72725600  1
  C  1993  1  0.85260000  0.55287600  0.72596200  1
  C  1994  1  0.95487900  0.50633400  0.73472100  1
  C  1997  1  0.14942000  0.49310600  0.73000900  1
  C  1999  1  0.12201600  0.53501200  0.73232600  1
  C  2000  1  0.14679100  0.55130000  0.73079500  1
  C  2002  1  0.17409400  0.50934000  0.72735500  1
  C  2003  1  0.19912800  0.49870800  0.72597000  1
  C  2004  1  0.09688900  0.54531900  0.73483400  1
  C  2007  1  0.14950700  0.55871900  0.32270400  1
  C  2009  1  0.12189900  0.51693900  0.32054600  1
  C  2010  1  0.14658700  0.50054100  0.32225200  1
  C  2012  1  0.17408900  0.54237800  0.32554900  1
  C  2013  1  0.19917200  0.55288800  0.32696900  1
  C  2014  1  0.09672500  0.50674000  0.31807600  1
  N  1058  1  0.17487900  0.15426100  0.42489400  1
  N  1061  1  0.16385100  0.18338100  0.37773500  1
  N  1065  1  0.13289300  0.18353500  0.47142800  1
  N  1066  1  0.20877600  0.15614200  0.33240400  1
  N  1068  1  0.87688500  0.89751200  0.42468500  1
  N  1071  1  0.88769900  0.86808800  0.37767000  1
  N  1075  1  0.91895400  0.86842600  0.47125800  1
  N  1076  1  0.84253000  0.89501300  0.33239100  1
  N  1078  1  0.87663600  0.15412000  0.62838500  1
  N  1081  1  0.88758800  0.18350600  0.67540800  1
  N  1085  1  0.91861100  0.18317300  0.58172100  1
  N  1086  1  0.84256800  0.15650900  0.72080000  1
  N  1088  1  0.17497500  0.89743500  0.62814800  1
  N  1091  1  0.16384800  0.86831300  0.67529900  1
  N  1095  1  0.13298500  0.86824500  0.58156200  1
  N  1096  1  0.20873100  0.89552800  0.72069500  1
  N  1098  1  0.42443800  0.17511100  0.15512700  1
  N  1101  1  0.37720300  0.16372700  0.18399900  1
  N  1105  1  0.47111600  0.13342600  0.18460500  1
  N  1106  1  0.33169200  0.20832700  0.15653000  1
  N  1108  1  0.42382400  0.87682400  0.89826200  1
  N  1111  1  0.37681100  0.88751700  0.86878000  1
  N  1115  1  0.47035500  0.91894800  0.86918400  1
  N  1116  1  0.33159300  0.84230400  0.89573100  1
  N  1118  1  0.62731800  0.87655000  0.15503600  1
  N  1121  1  0.67442600  0.88777700  0.18417800  1
  N  1125  1  0.58058200  0.91831500  0.18427400  1
  N  1126  1  0.71993200  0.84300100  0.15696600  1
  N  1128  1  0.62779000  0.17465400  0.89834600  1
  N  1131  1  0.67485100  0.16394700  0.86893700  1
  N  1135  1  0.58137600  0.13233800  0.86936400  1
  N  1136  1  0.72003500  0.20918200  0.89592000  1
  N  1138  1  0.15432700  0.42426400  0.17578500  1
  N  1141  1  0.18328700  0.37703300  0.16459900  1
  N  1145  1  0.18370700  0.47082000  0.13389400  1
  N  1146  1  0.15591800  0.33166600  0.20940900  1
  N  1148  1  0.89741400  0.42405000  0.87744000  1
  N  1151  1  0.86806500  0.37700100  0.88833800  1
  N  1155  1  0.86820800  0.47068400  0.91935600  1
  N  1156  1  0.89516800  0.33165400  0.84334500  1
  N  1158  1  0.15411800  0.62766600  0.87752600  1
  N  1161  1  0.18357700  0.67466700  0.88836800  1
  N  1165  1  0.18316500  0.58103400  0.91953400  1
  N  1166  1  0.15659100  0.72002000  0.84330100  1
  N  1168  1  0.89746800  0.62752400  0.17558300  1
  N  1171  1  0.86831300  0.67467500  0.16456200  1
  N  1175  1  0.86834800  0.58103600  0.13343500  1
  N  1176  1  0.89542300  0.71996600  0.20961600  1
  N  1178  1  0.15425300  0.17487100  0.62816300  1
  N  1181  1  0.18337300  0.16384300  0.67532400  1
  N  1185  1  0.18353500  0.13289200  0.58162700  1
  N  1186  1  0.15612700  0.20876200  0.72065500  1
  N  1188  1  0.89746800  0.87685400  0.62835100  1
  N  1191  1  0.86808000  0.88766800  0.67538700  1
  N  1195  1  0.86834000  0.91891800  0.58179700  1
  N  1196  1  0.89505100  0.84250500  0.72064900  1
  N  1198  1  0.15409100  0.87666500  0.42464700  1
  N  1201  1  0.18350900  0.88759200  0.37763600  1
  N  1205  1  0.18310200  0.91867800  0.47130000  1
  N  1206  1  0.15656200  0.84252600  0.33225900  1
  N  1208  1  0.89743300  0.17498100  0.42490300  1
  N  1211  1  0.86831000  0.16385100  0.37775400  1
  N  1215  1  0.86823900  0.13299500  0.47149100  1
  N  1216  1  0.89553000  0.20872900  0.33235400  1
  N  1218  1  0.17513500  0.42446700  0.89791400  1
  N  1221  1  0.16374200  0.37722100  0.86906300  1
  N  1225  1  0.13344600  0.47113700  0.86842800  1
  N  1226  1  0.20834500  0.33171700  0.89654000  1
  N  1228  1  0.87683700  0.42370400  0.15474900  1
  N  1231  1  0.88754000  0.37674200  0.18430600  1
  N  1235  1  0.91894800  0.47029200  0.18375400  1
  N  1236  1  0.84233500  0.33147200  0.15743000  1
  N  1238  1  0.87660200  0.62732900  0.89807100  1
  N  1241  1  0.88778100  0.67443200  0.86890100  1
  N  1245  1  0.91838200  0.58060900  0.86883000  1
  N  1246  1  0.84298000  0.71991600  0.89610600  1
  N  1248  1  0.17465900  0.62779400  0.15474400  1
  N  1251  1  0.16395000  0.67485700  0.18414900  1
  N  1255  1  0.13233700  0.58138200  0.18372000  1
  N  1256  1  0.20918800  0.72003900  0.15716700  1
  N  1258  1  0.42427900  0.15433100  0.87726600  1
  N  1261  1  0.37703700  0.18327300  0.88846200  1
  N  1265  1  0.47083300  0.18373600  0.91914300  1
  N  1266  1  0.33167100  0.15587700  0.84366700  1
  N  1268  1  0.42400200  0.89744300  0.17559100  1
  N  1271  1  0.37696800  0.86805700  0.16473000  1
  N  1275  1  0.47062500  0.86826900  0.13363800  1
  N  1276  1  0.33163700  0.89511800  0.20976700  1
  N  1278  1  0.62766600  0.15417600  0.17554000  1
  N  1281  1  0.67467500  0.18361600  0.16469800  1
  N  1285  1  0.58104100  0.18326200  0.13355000  1
  N  1286  1  0.72002700  0.15659800  0.20974800  1
  N  1288  1  0.62750500  0.89747700  0.87746300  1
  N  1291  1  0.67465600  0.86832300  0.88850000  1
  N  1295  1  0.58099400  0.86835700  0.91958500  1
  N  1296  1  0.71997200  0.89547200  0.84349600  1
  N  1298  1  0.68829000  0.66170300  0.92707200  1
  N  1301  1  0.65804500  0.67574100  0.88163000  1
  N  1305  1  0.66443100  0.70392900  0.97613800  1
  N  1306  1  0.68275500  0.63290800  0.83304000  1
  N  1308  1  0.36354800  0.39004700  0.92735300  1
  N  1311  1  0.39356600  0.37600000  0.88176400  1
  N  1315  1  0.38753500  0.34770100  0.97626200  1
  N  1316  1  0.36863000  0.41882100  0.83328700  1
  N  1318  1  0.36327100  0.66159400  0.12595300  1
  N  1321  1  0.39348700  0.67559300  0.17142400  1
  N  1325  1  0.38717500  0.70385200  0.07693200  1
  N  1326  1  0.36867200  0.63278000  0.21998600  1
  N  1328  1  0.68826300  0.39010500  0.12595100  1
  N  1331  1  0.65815800  0.37608800  0.17149100  1
  N  1335  1  0.66418300  0.34791700  0.07695500  1
  N  1336  1  0.68309500  0.41888600  0.22000700  1
  N  1338  1  0.92647300  0.68837800  0.66238800  1
  N  1341  1  0.88105000  0.65805800  0.67631100  1
  N  1345  1  0.97551600  0.66449800  0.70463100  1
  N  1346  1  0.83247600  0.68281000  0.63348800  1
  N  1348  1  0.92636200  0.36340500  0.39070000  1
  N  1351  1  0.88082600  0.39351200  0.37667500  1
  N  1355  1  0.97532100  0.38734600  0.34839100  1
  N  1356  1  0.83231500  0.36864500  0.41950400  1
  N  1358  1  0.12501500  0.36343200  0.66227700  1
  N  1361  1  0.17053700  0.39356600  0.67628600  1
  N  1365  1  0.07604200  0.38739500  0.70456200  1
  N  1366  1  0.21905600  0.36869300  0.63346500  1
  N  1368  1  0.12541700  0.68819400  0.39076700  1
  N  1371  1  0.17096300  0.65815600  0.37662000  1
  N  1375  1  0.07639100  0.66419600  0.34856600  1
  N  1376  1  0.21950200  0.68300500  0.41945000  1
  N  1378  1  0.66156000  0.92648800  0.68894000  1
  N  1381  1  0.67554900  0.88102500  0.65870300  1
  N  1385  1  0.70379900  0.97551800  0.66502300  1
  N  1386  1  0.63274600  0.83245500  0.68349700  1
  N  1388  1  0.38983300  0.92625500  0.36396700  1
  N  1391  1  0.37583900  0.88075500  0.39414000  1
  N  1395  1  0.34755300  0.97524400  0.38788700  1
  N  1396  1  0.41866600  0.83222300  0.36930200  1
  N  1398  1  0.66172200  0.12535200  0.36396900  1
  N  1401  1  0.67574300  0.17079800  0.39421400  1
  N  1405  1  0.70394200  0.07629100  0.38785300  1
  N  1406  1  0.63291400  0.21938300  0.36947000  1
  N  1408  1  0.39013900  0.12502800  0.68879500  1
  N  1411  1  0.37610500  0.17063100  0.65879100  1
  N  1415  1  0.34782100  0.07612600  0.66474500  1
  N  1416  1  0.41901400  0.21906000  0.68370000  1
  N  1418  1  0.66165700  0.68820200  0.12594600  1
  N  1421  1  0.67570400  0.65799500  0.17141000  1
  N  1425  1  0.70388300  0.66430700  0.07689600  1
  N  1426  1  0.63288300  0.68274700  0.21999000  1
  N  1428  1  0.39003800  0.36353500  0.12571300  1
  N  1431  1  0.37599000  0.39355400  0.17130000  1
  N  1435  1  0.34770800  0.38753700  0.07679700  1
  N  1436  1  0.41879400  0.36860100  0.21978500  1
  N  1438  1  0.66159000  0.36326700  0.92712000  1
  N  1441  1  0.67558200  0.39349900  0.88166000  1
  N  1445  1  0.70384100  0.38716200  0.97615100  1
  N  1446  1  0.63277800  0.36869100  0.83309000  1
  N  1448  1  0.39001500  0.68833600  0.92706800  1
  N  1451  1  0.37602700  0.65818800  0.88154600  1
  N  1455  1  0.34777900  0.66432600  0.97605400  1
  N  1456  1  0.41889700  0.68304000  0.83305000  1
  N  1458  1  0.68837800  0.92650200  0.39068400  1
  N  1461  1  0.65804700  0.88109000  0.37675000  1
  N  1465  1  0.66448900  0.97556400  0.34847000  1
  N  1466  1  0.68281000  0.83249300  0.41954200  1
  N  1468  1  0.36340700  0.92637200  0.66233100  1
  N  1471  1  0.39351400  0.88083800  0.67636100  1
  N  1475  1  0.38734600  0.97533600  0.70463500  1
  N  1476  1  0.36864300  0.83231900  0.63354500  1
  N  1478  1  0.36344300  0.12502700  0.39078600  1
  N  1481  1  0.39357300  0.17055000  0.37677300  1
  N  1485  1  0.38740100  0.07605400  0.34850200  1
  N  1486  1  0.36870500  0.21906800  0.41959800  1
  N  1488  1  0.68819200  0.12538100  0.66231500  1
  N  1491  1  0.65816700  0.17094300  0.67644100  1
  N  1495  1  0.66418500  0.07638600  0.70454500  1
  N  1496  1  0.68302100  0.21945200  0.63358200  1
  N  1498  1  0.92645200  0.66159200  0.36409400  1
  N  1501  1  0.88098700  0.67557400  0.39432700  1
  N  1505  1  0.97547200  0.70384900  0.38799600  1
  N  1506  1  0.83243400  0.63273600  0.36955800  1
  N  1508  1  0.92628200  0.38985000  0.68907400  1
  N  1511  1  0.88077800  0.37586000  0.65890400  1
  N  1515  1  0.97526500  0.34756500  0.66514500  1
  N  1516  1  0.83225200  0.41868900  0.68375000  1
  N  1518  1  0.12535300  0.66171800  0.68908000  1
  N  1521  1  0.17079800  0.67574800  0.65883900  1
  N  1525  1  0.07628600  0.70393300  0.66519700  1
  N  1526  1  0.21938700  0.63292200  0.68358100  1
  N  1528  1  0.12504700  0.39013900  0.36426600  1
  N  1531  1  0.17064400  0.37610100  0.39427400  1
  N  1535  1  0.07613500  0.34783100  0.38831000  1
  N  1536  1  0.21908100  0.41900100  0.36936900  1
  N  1538  1  0.23700500  0.00852500  0.42939700  1
  N  1541  1  0.22614100  0.04156400  0.38507100  1
  N  1545  1  0.24563200  0.05345500  0.48113200  1
  N  1546  1  0.21794300  0.99613500  0.33350200  1
  N  1548  1  0.81456000  0.04307000  0.42934000  1
  N  1551  1  0.82547500  0.01002800  0.38503600  1
  N  1555  1  0.80589700  0.99816100  0.48108300  1
  N  1556  1  0.83368500  0.05544800  0.33345800  1
  N  1558  1  0.81443000  0.00857300  0.62386600  1
  N  1561  1  0.82523800  0.04162900  0.66818700  1
  N  1565  1  0.80579200  0.05347000  0.57210800  1
  N  1566  1  0.83355100  0.99619800  0.71974800  1
  N  1568  1  0.23724400  0.04310100  0.62381100  1
  N  1571  1  0.22634800  0.01002900  0.66810300  1
  N  1575  1  0.24586500  0.99822000  0.57203400  1
  N  1576  1  0.21806500  0.05544200  0.71968500  1
  N  1578  1  0.42855600  0.23702800  0.00921700  1
  N  1581  1  0.38426000  0.22615100  0.04229300  1
  N  1585  1  0.48032900  0.24566600  0.05409900  1
  N  1586  1  0.33266800  0.21791400  0.99689300  1
  N  1588  1  0.42868000  0.81455600  0.04383400  1
  N  1591  1  0.38436500  0.82542900  0.01079300  1
  N  1595  1  0.48043800  0.80598100  0.99892200  1
  N  1596  1  0.33276800  0.83353800  0.05620800  1
  N  1598  1  0.62310500  0.81451600  0.00932500  1
  N  1601  1  0.66739500  0.82536600  0.04240800  1
  N  1605  1  0.57135100  0.80572500  0.05419500  1
  N  1606  1  0.71895800  0.83380000  0.99700200  1
  N  1608  1  0.62304700  0.23724200  0.04381700  1
  N  1611  1  0.66736600  0.22631900  0.01078900  1
  N  1615  1  0.57129900  0.24579200  0.99888900  1
  N  1616  1  0.71892300  0.21811300  0.05624000  1
  N  1618  1  0.00846600  0.42854200  0.23777600  1
  N  1621  1  0.04157500  0.38425600  0.22696400  1
  N  1625  1  0.05331300  0.48036100  0.24633600  1
  N  1626  1  0.99622500  0.33260900  0.21882300  1
  N  1628  1  0.04305900  0.42874500  0.81523700  1
  N  1631  1  0.01003800  0.38443000  0.82617600  1
  N  1635  1  0.99812400  0.48046300  0.80655700  1
  N  1636  1  0.05548500  0.33287700  0.83439900  1
  N  1638  1  0.00863300  0.62290400  0.81523200  1
  N  1641  1  0.04161000  0.66726700  0.82610900  1
  N  1645  1  0.05362400  0.57123800  0.80652600  1
  N  1646  1  0.99608900  0.71874000  0.83446800  1
  N  1648  1  0.04310500  0.62323900  0.23795900  1
  N  1651  1  0.00997800  0.66749100  0.22707300  1
  N  1655  1  0.99829000  0.57140800  0.24659200  1
  N  1656  1  0.05532200  0.71913000  0.21878300  1
  N  1658  1  0.00851400  0.23699700  0.62365600  1
  N  1661  1  0.04154900  0.22613000  0.66798400  1
  N  1665  1  0.05344900  0.24561400  0.57192100  1
  N  1666  1  0.99611600  0.21794300  0.71954900  1
  N  1668  1  0.04306900  0.81456800  0.62368400  1
  N  1671  1  0.01001400  0.82548500  0.66797700  1
  N  1675  1  0.99817400  0.80589100  0.57193200  1
  N  1676  1  0.05542000  0.83370000  0.71956800  1
  N  1678  1  0.00860100  0.81440100  0.42919500  1
  N  1681  1  0.04164600  0.82520000  0.38486200  1
  N  1685  1  0.05351300  0.80574200  0.48093500  1
  N  1686  1  0.99619800  0.83355100  0.33333333  1
  N  1688  1  0.04310100  0.23724200  0.42924400  1
  N  1691  1  0.01003100  0.22634800  0.38494800  1
  N  1695  1  0.99821800  0.24586500  0.48101600  1
  N  1696  1  0.05544700  0.21806500  0.33337000  1
  N  1698  1  0.23703100  0.42857700  0.04384000  1
  N  1701  1  0.22616000  0.38428800  0.01075500  1
  N  1705  1  0.24567600  0.48035900  0.99896700  1
  N  1706  1  0.21791800  0.33268700  0.05614500  1
  N  1708  1  0.81457500  0.42861100  0.00925200  1
  N  1711  1  0.82540600  0.38424800  0.04224200  1
  N  1715  1  0.80604600  0.48032300  0.05422400  1
  N  1716  1  0.83349200  0.33270300  0.99676100  1
  N  1718  1  0.81445900  0.62315300  0.04376300  1
  N  1721  1  0.82533600  0.66741800  0.01065600  1
  N  1725  1  0.80568600  0.57136800  0.99892600  1
  N  1726  1  0.83376200  0.71901300  0.05603000  1
  N  1728  1  0.23718600  0.62300700  0.00926300  1
  N  1731  1  0.22627700  0.66733400  0.04228400  1
  N  1735  1  0.24576200  0.57127400  0.05420300  1
  N  1736  1  0.21805400  0.71888100  0.99682400  1
  N  1738  1  0.42853300  0.00844700  0.81528500  1
  N  1741  1  0.38425600  0.04156300  0.82611200  1
  N  1745  1  0.48035900  0.05328400  0.80671800  1
  N  1746  1  0.33260300  0.99621800  0.83426700  1
  N  1748  1  0.42873400  0.04305200  0.23783900  1
  N  1751  1  0.38442000  0.01003300  0.22689900  1
  N  1755  1  0.48045100  0.99811500  0.24651200  1
  N  1756  1  0.33286700  0.05548200  0.21868100  1
  N  1758  1  0.62288500  0.00865100  0.23778500  1
  N  1761  1  0.66725000  0.04162300  0.22690400  1
  N  1765  1  0.57122600  0.05364900  0.24648900  1
  N  1766  1  0.71872200  0.99609500  0.21855700  1
  N  1768  1  0.62324600  0.04311300  0.81509600  1
  N  1771  1  0.66750000  0.00999000  0.82598000  1
  N  1775  1  0.57141800  0.99829500  0.80645500  1
  N  1776  1  0.71913400  0.05533800  0.83428000  1
  N  1778  1  0.73150900  0.50670500  0.92787400  1
  N  1781  1  0.72747400  0.53762200  0.88080500  1
  N  1785  1  0.73618700  0.55442800  0.97770900  1
  N  1786  1  0.72387900  0.48924500  0.83123400  1
  N  1788  1  0.32000000  0.54504700  0.92775700  1
  N  1791  1  0.32404300  0.51400600  0.88077300  1
  N  1795  1  0.31524400  0.49747700  0.97772600  1
  N  1796  1  0.32763400  0.56225100  0.83107500  1
  N  1798  1  0.31981100  0.50670100  0.12537700  1
  N  1801  1  0.32377300  0.53763100  0.17244800  1
  N  1805  1  0.31508900  0.55439900  0.07552400  1
  N  1806  1  0.32745600  0.48924100  0.22201000  1
  N  1808  1  0.73203300  0.54496300  0.12529300  1
  N  1811  1  0.72786400  0.51400400  0.17232700  1
  N  1815  1  0.73673000  0.49729400  0.07541100  1
  N  1816  1  0.72406200  0.56235600  0.22191700  1
  N  1818  1  0.92710400  0.73176900  0.50740700  1
  N  1821  1  0.88005700  0.72769900  0.53835600  1
  N  1825  1  0.97697200  0.73644900  0.55509900  1
  N  1826  1  0.83045900  0.72405500  0.49001000  1
  N  1828  1  0.92703200  0.32001200  0.54568600  1
  N  1831  1  0.87999600  0.32400700  0.51471400  1
  N  1835  1  0.97693200  0.31532800  0.49803400  1
  N  1836  1  0.83036200  0.32752000  0.56303000  1
  N  1838  1  0.12467300  0.31982400  0.50733300  1
  N  1841  1  0.17167300  0.32384000  0.53836000  1
  N  1845  1  0.07472000  0.31508100  0.55491800  1
  N  1846  1  0.22133700  0.32752700  0.49007100  1
  N  1848  1  0.12458900  0.73172900  0.54566900  1
  N  1851  1  0.17165300  0.72762300  0.51475400  1
  N  1855  1  0.07474600  0.73634400  0.49795000  1
  N  1856  1  0.22121400  0.72396700  0.56314700  1
  N  1858  1  0.50662100  0.92701600  0.73248500  1
  N  1861  1  0.53760600  0.87999000  0.72840000  1
  N  1865  1  0.55427300  0.97692400  0.73713800  1
  N  1866  1  0.48929600  0.83035800  0.72478600  1
  N  1868  1  0.54483100  0.92718300  0.32083100  1
  N  1871  1  0.51394700  0.88008400  0.32475300  1
  N  1875  1  0.49707900  0.97698700  0.31612000  1
  N  1876  1  0.56235600  0.83054000  0.32827300  1
  N  1878  1  0.50678200  0.12458300  0.32072200  1
  N  1881  1  0.53766800  0.17167900  0.32467100  1
  N  1885  1  0.55452200  0.07477700  0.31597300  1
  N  1886  1  0.48923700  0.22120500  0.32834800  1
  N  1888  1  0.54516800  0.12460400  0.73263600  1
  N  1891  1  0.51405800  0.17153200  0.72840000  1
  N  1895  1  0.49765500  0.07455800  0.73718400  1
  N  1896  1  0.56224700  0.22129500  0.72480700  1
  N  1898  1  0.50668200  0.73155100  0.12520000  1
  N  1901  1  0.53761600  0.72747200  0.17225400  1
  N  1905  1  0.55438600  0.73624000  0.07534800  1
  N  1906  1  0.48925600  0.72386100  0.22184200  1
  N  1908  1  0.54502200  0.31997700  0.12531800  1
  N  1911  1  0.51398100  0.32401800  0.17230200  1
  N  1915  1  0.49745400  0.31519400  0.07535100  1
  N  1916  1  0.56222800  0.32765200  0.22199700  1
  N  1918  1  0.50670300  0.31980500  0.92768000  1
  N  1921  1  0.53763100  0.32376400  0.88060800  1
  N  1925  1  0.55439900  0.31508500  0.97753300  1
  N  1926  1  0.48924300  0.32744900  0.83104500  1
  N  1928  1  0.54498800  0.73186500  0.92784100  1
  N  1931  1  0.51402000  0.72776800  0.88080500  1
  N  1935  1  0.49731500  0.73645300  0.97773300  1
  N  1936  1  0.56236000  0.72416600  0.83119000  1
  N  1938  1  0.73181700  0.92710100  0.54562900  1
  N  1941  1  0.72772200  0.88005100  0.51469300  1
  N  1945  1  0.73654300  0.97695300  0.49792900  1
  N  1946  1  0.72400900  0.83046900  0.56305100  1
  N  1948  1  0.31999500  0.92701800  0.50735400  1
  N  1951  1  0.32399000  0.87998400  0.53832800  1
  N  1955  1  0.31531700  0.97692200  0.55500600  1
  N  1956  1  0.32749700  0.83035000  0.49001200  1
  N  1958  1  0.31982800  0.12468200  0.54573000  1
  N  1961  1  0.32384400  0.17168500  0.51470800  1
  N  1965  1  0.31509100  0.07473300  0.49814100  1
  N  1966  1  0.32752700  0.22134600  0.56299900  1
  N  1968  1  0.73172500  0.12455000  0.50737700  1
  N  1971  1  0.72760000  0.17159700  0.53831400  1
  N  1975  1  0.73635700  0.07468600  0.55507100  1
  N  1976  1  0.72393200  0.22118000  0.48994700  1
  N  1978  1  0.92700700  0.50662500  0.32058000  1
  N  1981  1  0.87998600  0.53761200  0.32466100  1
  N  1985  1  0.97692200  0.55427500  0.31594800  1
  N  1986  1  0.83034800  0.48930600  0.32825200  1
  N  1988  1  0.92716600  0.54485800  0.73223800  1
  N  1991  1  0.88008400  0.51394900  0.72830000  1
  N  1995  1  0.97699500  0.49713300  0.73694800  1
  N  1996  1  0.83051500  0.56233200  0.72478000  1
  N  1998  1  0.12457900  0.50678200  0.73232400  1
  N  2001  1  0.17168000  0.53766400  0.72838100  1
  N  2005  1  0.07477900  0.55453100  0.73706900  1
  N  2006  1  0.22119900  0.48922700  0.72471100  1
  N  2008  1  0.12460200  0.54515400  0.32042700  1
  N  2011  1  0.17154000  0.51406000  0.32466100  1
  N  2015  1  0.07457100  0.49762500  0.31587200  1
  N  2016  1  0.22128700  0.56226100  0.32826000  1
  O  8  1  0.36599000  0.15697300  0.46380200  1
  O  15  1  0.18546800  0.08914600  0.39595500  1
  O  17  1  0.26850100  0.13458200  0.47872500  1
  O  18  1  0.24084600  0.17115800  0.41683900  1
  O  30  1  0.68567400  0.89465700  0.46367600  1
  O  37  1  0.86613600  0.96253100  0.39580600  1
  O  39  1  0.78314000  0.91706000  0.47873300  1
  O  40  1  0.81093800  0.88040500  0.41673200  1
  O  52  1  0.68555200  0.15715900  0.58933200  1
  O  59  1  0.86589900  0.08913100  0.65743100  1
  O  61  1  0.78297000  0.13445600  0.57431100  1
  O  62  1  0.81075500  0.17123700  0.63632200  1
  O  74  1  0.36606600  0.89454400  0.58931600  1
  O  81  1  0.18563900  0.96253600  0.65722200  1
  O  83  1  0.26863900  0.91713100  0.57425900  1
  O  84  1  0.24082200  0.88043600  0.63615900  1
  O  96  1  0.46306000  0.36610100  0.15761500  1
  O  103  1  0.39525900  0.18549800  0.08991000  1
  O  105  1  0.47804200  0.26862500  0.13518400  1
  O  106  1  0.41627800  0.24093800  0.17184400  1
  O  118  1  0.46302300  0.68568200  0.89530200  1
  O  125  1  0.39502700  0.86608100  0.96327700  1
  O  127  1  0.47806700  0.78310600  0.91793200  1
  O  128  1  0.41592600  0.81084600  0.88116700  1
  O  140  1  0.58867900  0.68543900  0.15773500  1
  O  147  1  0.65648400  0.86598100  0.08994400  1
  O  149  1  0.57353800  0.78286700  0.13519600  1
  O  150  1  0.63538600  0.81074100  0.17198500  1
  O  162  1  0.58859100  0.36587300  0.89521000  1
  O  169  1  0.65660400  0.18555900  0.96334600  1
  O  171  1  0.57363300  0.26841500  0.91769700  1
  O  172  1  0.63565800  0.24064200  0.88114600  1
  O  184  1  0.15687200  0.46317600  0.36681400  1
  O  191  1  0.08916400  0.39517700  0.18628900  1
  O  193  1  0.13439100  0.47810700  0.26933700  1
  O  194  1  0.17111100  0.41625500  0.24168800  1
  O  206  1  0.89452300  0.46285500  0.68629400  1
  O  213  1  0.96250600  0.39517700  0.86681000  1
  O  215  1  0.91719600  0.47806000  0.78368000  1
  O  216  1  0.88040300  0.41600100  0.81154300  1
  O  228  1  0.15719800  0.58873700  0.68634400  1
  O  235  1  0.08912400  0.65654900  0.86676400  1
  O  237  1  0.13459400  0.57362900  0.78375800  1
  O  238  1  0.17127900  0.63567700  0.81160200  1
  O  250  1  0.89461300  0.58858400  0.36676800  1
  O  257  1  0.96252700  0.65657900  0.18635300  1
  O  259  1  0.91707300  0.57355100  0.26931000  1
  O  260  1  0.88041700  0.63541500  0.24148400  1
  O  272  1  0.15696100  0.36598000  0.58926300  1
  O  279  1  0.08913500  0.18545300  0.65710000  1
  O  281  1  0.13456700  0.26849300  0.57433700  1
  O  282  1  0.17114500  0.24083700  0.63622400  1
  O  294  1  0.89465700  0.68564000  0.58938300  1
  O  301  1  0.96250800  0.86613000  0.65721100  1
  O  303  1  0.91709000  0.78309100  0.57428200  1
  O  304  1  0.88039800  0.81090200  0.63629500  1
  O  316  1  0.15722300  0.68556200  0.46373300  1
  O  323  1  0.08912100  0.86586600  0.39560500  1
  O  325  1  0.13452100  0.78298300  0.47873900  1
  O  326  1  0.17126600  0.81078500  0.41673200  1
  O  338  1  0.89454600  0.36607400  0.46371800  1
  O  345  1  0.96253600  0.18563800  0.39583300  1
  O  347  1  0.91714400  0.26865200  0.47878700  1
  O  348  1  0.88043800  0.24082900  0.41688700  1
  O  360  1  0.36613500  0.46307700  0.89546500  1
  O  367  1  0.18551300  0.39528800  0.96313500  1
  O  369  1  0.26866000  0.47807700  0.91788800  1
  O  370  1  0.24096700  0.41631100  0.88121100  1
  O  382  1  0.68578500  0.46309800  0.15779400  1
  O  389  1  0.86607500  0.39486900  0.08977300  1
  O  391  1  0.78325700  0.47792800  0.13521800  1
  O  392  1  0.81086900  0.41579400  0.17189700  1
  O  404  1  0.68546000  0.58872500  0.89529100  1
  O  411  1  0.86598300  0.65649500  0.96316400  1
  O  413  1  0.78286700  0.57351500  0.91787900  1
  O  414  1  0.81080600  0.63536500  0.88108800  1
  O  426  1  0.36587700  0.58859500  0.15785400  1
  O  433  1  0.18554300  0.65658900  0.08974600  1
  O  435  1  0.26842200  0.57362900  0.13536000  1
  O  436  1  0.24066100  0.63567300  0.17193000  1
  O  448  1  0.46318000  0.15685300  0.68624500  1
  O  455  1  0.39518600  0.08915700  0.86677900  1
  O  457  1  0.47811700  0.13437100  0.78372000  1
  O  458  1  0.41627200  0.17109300  0.81136700  1
  O  470  1  0.46283800  0.89450000  0.36675500  1
  O  477  1  0.39515000  0.96251500  0.18625700  1
  O  479  1  0.47804800  0.91718400  0.26937300  1
  O  480  1  0.41597200  0.88039200  0.24149700  1
  O  492  1  0.58874000  0.15719300  0.36670700  1
  O  499  1  0.65654100  0.08916100  0.18626300  1
  O  501  1  0.57362900  0.13459200  0.26929100  1
  O  502  1  0.63568300  0.17129300  0.24146600  1
  O  514  1  0.58856600  0.89462700  0.68629400  1
  O  521  1  0.65657900  0.96254000  0.86669900  1
  O  523  1  0.57355900  0.91706900  0.78376000  1
  O  524  1  0.63540900  0.88042800  0.81157500  1
  O  536  1  0.68388400  0.89474000  0.59606100  1
  O  543  1  0.86631000  0.96106300  0.65928300  1
  O  545  1  0.78204200  0.91462400  0.58214700  1
  O  546  1  0.80956800  0.87930900  0.64093100  1
  O  558  1  0.36773100  0.15707400  0.59612200  1
  O  565  1  0.18533200  0.09054300  0.65918300  1
  O  567  1  0.26957400  0.13718100  0.58217000  1
  O  568  1  0.24200200  0.17237300  0.64094200  1
  O  580  1  0.36771200  0.89448900  0.45674800  1
  O  587  1  0.18517500  0.96096400  0.39389900  1
  O  589  1  0.26966400  0.91464500  0.47107800  1
  O  590  1  0.24197300  0.87923800  0.41214700  1
  O  602  1  0.68392400  0.15700500  0.45682800  1
  O  609  1  0.86645200  0.09059000  0.39396900  1
  O  611  1  0.78201500  0.13695000  0.47100000  1
  O  612  1  0.80966800  0.17233800  0.41218400  1
  O  624  1  0.59544100  0.68403100  0.89537100  1
  O  631  1  0.65848900  0.86648200  0.96183200  1
  O  633  1  0.58143200  0.78214700  0.91541400  1
  O  634  1  0.64023600  0.80972500  0.88006300  1
  O  646  1  0.59547500  0.36785100  0.15780700  1
  O  653  1  0.65845400  0.18539200  0.09132400  1
  O  655  1  0.58139200  0.26973300  0.13781200  1
  O  656  1  0.64020400  0.24212100  0.17310800  1
  O  668  1  0.45622000  0.36768100  0.89535200  1
  O  675  1  0.39315600  0.18518500  0.96166800  1
  O  677  1  0.47024400  0.26953600  0.91525000  1
  O  678  1  0.41143000  0.24201000  0.87996900  1
  O  690  1  0.45612600  0.68375700  0.15761800  1
  O  697  1  0.39321000  0.86634100  0.09140600  1
  O  699  1  0.47030700  0.78186200  0.13765500  1
  O  700  1  0.41142600  0.80946900  0.17309600  1
  O  712  1  0.89478400  0.59546000  0.68446500  1
  O  719  1  0.96100400  0.65817500  0.86712700  1
  O  721  1  0.91471800  0.58120000  0.78256400  1
  O  722  1  0.87933800  0.63994700  0.81023000  1
  O  734  1  0.15722900  0.59548700  0.36827600  1
  O  741  1  0.09046700  0.65873400  0.18602500  1
  O  743  1  0.13704600  0.58160000  0.27016700  1
  O  744  1  0.17236200  0.64045200  0.24258900  1
  O  756  1  0.89452900  0.45614700  0.36839500  1
  O  763  1  0.96097100  0.39293200  0.18599100  1
  O  765  1  0.91458800  0.47021100  0.27028800  1
  O  766  1  0.87921900  0.41126500  0.24272700  1
  O  778  1  0.15686800  0.45621600  0.68449400  1
  O  785  1  0.09063300  0.39345700  0.86711600  1
  O  787  1  0.13701800  0.47037600  0.78262600  1
  O  788  1  0.17232700  0.41160600  0.81023600  1
  O  800  1  0.89470500  0.68389300  0.45695400  1
  O  807  1  0.96110700  0.86631400  0.39379300  1
  O  809  1  0.91463800  0.78203100  0.47093100  1
  O  810  1  0.87932400  0.80961200  0.41214900  1
  O  822  1  0.15707400  0.36772900  0.45694300  1
  O  829  1  0.09054800  0.18533300  0.39387200  1
  O  831  1  0.13717100  0.26957200  0.47089100  1
  O  832  1  0.17237400  0.24200600  0.41211700  1
  O  844  1  0.89451200  0.36773500  0.59629200  1
  O  851  1  0.96093700  0.18518100  0.65914900  1
  O  853  1  0.91464700  0.26968100  0.58196600  1
  O  854  1  0.87922700  0.24200000  0.64089400  1
  O  866  1  0.15702700  0.68393500  0.59622900  1
  O  873  1  0.09058200  0.86645800  0.65906500  1
  O  875  1  0.13696500  0.78202300  0.58205700  1
  O  876  1  0.17233200  0.80967000  0.64088500  1
  O  888  1  0.68406900  0.59536200  0.15770600  1
  O  895  1  0.86644000  0.65854800  0.09120600  1
  O  897  1  0.78222000  0.58149100  0.13773800  1
  O  898  1  0.80975000  0.64027600  0.17301300  1
  O  910  1  0.36781700  0.59554400  0.89523900  1
  O  917  1  0.18532600  0.65841200  0.96175000  1
  O  919  1  0.26972500  0.58136700  0.91528600  1
  O  920  1  0.24206700  0.64019600  0.87996500  1
  O  932  1  0.36768300  0.45621400  0.15770900  1
  O  939  1  0.18518600  0.39316400  0.09138200  1
  O  941  1  0.26954000  0.47024800  0.13780500  1
  O  942  1  0.24201200  0.41142400  0.17308500  1
  O  954  1  0.68373100  0.45613200  0.89547000  1
  O  961  1  0.86633700  0.39319100  0.96163300  1
  O  963  1  0.78183700  0.47033400  0.91542800  1
  O  964  1  0.80945200  0.41149500  0.87997100  1
  O  976  1  0.59544300  0.89482200  0.36860700  1
  O  983  1  0.65815600  0.96098500  0.18591500  1
  O  985  1  0.58118500  0.91475000  0.27050800  1
  O  986  1  0.63993800  0.87935900  0.24287300  1
  O  998  1  0.59549800  0.15722500  0.68479200  1
  O  1005  1  0.65872800  0.09046500  0.86704500  1
  O  1007  1  0.58160200  0.13707300  0.78290500  1
  O  1008  1  0.64044100  0.17237400  0.81050200  1
  O  1020  1  0.45615100  0.89454800  0.68465100  1
  O  1027  1  0.39295500  0.96094600  0.86707000  1
  O  1029  1  0.47019200  0.91459000  0.78276300  1
  O  1030  1  0.41127300  0.87921100  0.81030900  1
  O  1042  1  0.45622300  0.15688000  0.36855900  1
  O  1049  1  0.39344300  0.09061600  0.18595500  1
  O  1051  1  0.47037200  0.13702200  0.27042600  1
  O  1052  1  0.41160000  0.17232300  0.24281300  1
