# generated using pymatgen
data_H32C49N8
_symmetry_space_group_name_H-M   'P 1'
_cell_length_a   33.92300000
_cell_length_b   61.77320000
_cell_length_c   61.77370000
_cell_angle_alpha   89.99950000
_cell_angle_beta   90.00000000
_cell_angle_gamma   89.99710000
_symmetry_Int_Tables_number   1
_chemical_formula_structural   H32C49N8
_chemical_formula_sum   'H512 C784 N128'
_cell_volume   129448.78122121
_cell_formula_units_Z   16
loop_
 _symmetry_equiv_pos_site_id
 _symmetry_equiv_pos_as_xyz
  1  'x, y, z'
loop_
 _atom_site_type_symbol
 _atom_site_label
 _atom_site_symmetry_multiplicity
 _atom_site_fract_x
 _atom_site_fract_y
 _atom_site_fract_z
 _atom_site_occupancy
  H  25  1  0.14434000  0.76736300  0.08731800  1
  H  26  1  0.08376900  0.78574900  0.07965500  1
  H  27  1  0.93356600  0.78624200  0.07916100  1
  H  28  1  0.87241000  0.76821000  0.08631800  1
  H  29  1  0.93312100  0.70948200  0.09365200  1
  H  30  1  0.08217200  0.70905900  0.09456100  1
  H  31  1  0.00991800  0.72641000  0.04576600  1
  H  32  1  0.00751500  0.66002100  0.03104900  1
  H  33  1  0.00573200  0.65178600  0.06884500  1
  H  34  1  0.00696100  0.75053700  0.12447100  1
  H  35  1  0.00460000  0.67615400  0.14792600  1
  H  36  1  0.00274900  0.70463900  0.17435500  1
  H  39  1  0.00845500  0.78393700  0.09130600  1
  H  40  1  0.00883200  0.77777900  0.06335900  1
  H  42  1  0.97971700  0.66868200  0.10668800  1
  H  43  1  0.03182100  0.66811100  0.10702100  1
  H  47  1  0.15274400  0.70847600  0.09601700  1
  H  48  1  0.86238100  0.70935200  0.09410000  1
  H  49  1  0.99148500  0.76210400  0.15975800  1
  H  51  1  0.01946300  0.71474300  0.00851300  1
  H  76  1  0.14431500  0.33137100  0.81396500  1
  H  77  1  0.08373000  0.31297800  0.82159000  1
  H  78  1  0.93348900  0.31249500  0.82209000  1
  H  79  1  0.87233900  0.33054200  0.81495900  1
  H  80  1  0.93308200  0.38925000  0.80756100  1
  H  81  1  0.08210600  0.38964400  0.80655900  1
  H  82  1  0.00991800  0.37226600  0.85542300  1
  H  83  1  0.00756700  0.43865000  0.87018600  1
  H  84  1  0.00582600  0.44691000  0.83239900  1
  H  85  1  0.00627500  0.34820200  0.77655900  1
  H  86  1  0.00450000  0.42269100  0.75335500  1
  H  87  1  0.00196500  0.39429400  0.72685800  1
  H  90  1  0.00836600  0.31477200  0.80988400  1
  H  91  1  0.00881800  0.32094800  0.83782800  1
  H  93  1  0.97987100  0.43010100  0.79456500  1
  H  94  1  0.03197900  0.43057600  0.79422600  1
  H  98  1  0.15271700  0.39024600  0.80527300  1
  H  99  1  0.86233700  0.38939900  0.80717200  1
  H  100  1  0.98699600  0.33741500  0.74093100  1
  H  102  1  0.01949100  0.38393800  0.89270900  1
  H  127  1  0.14432100  0.91267600  0.66863100  1
  H  128  1  0.08374700  0.92032600  0.68701900  1
  H  129  1  0.93353300  0.92082300  0.68750500  1
  H  130  1  0.87238300  0.91366500  0.66947200  1
  H  131  1  0.93311200  0.90632900  0.61074800  1
  H  132  1  0.08214400  0.90540500  0.61033300  1
  H  133  1  0.00989700  0.95421900  0.62769500  1
  H  134  1  0.00751000  0.96895200  0.56130700  1
  H  135  1  0.00575300  0.93115800  0.55306400  1
  H  136  1  0.00672300  0.87545500  0.65180600  1
  H  137  1  0.00459100  0.85208700  0.57738600  1
  H  138  1  0.00248400  0.82563400  0.60584000  1
  H  141  1  0.00842200  0.90866400  0.68520700  1
  H  142  1  0.00881600  0.93661200  0.67905300  1
  H  144  1  0.97976700  0.89331400  0.56993600  1
  H  145  1  0.03187400  0.89298300  0.56939400  1
  H  149  1  0.15272800  0.90399600  0.60974600  1
  H  150  1  0.86236400  0.90588900  0.61061300  1
  H  151  1  0.98977000  0.84005000  0.66309700  1
  H  153  1  0.01942900  0.99148400  0.61602700  1
  H  178  1  0.14431900  0.18603300  0.23264200  1
  H  179  1  0.08374700  0.17837500  0.21425000  1
  H  180  1  0.93352800  0.17788500  0.21375200  1
  H  181  1  0.87237100  0.18503200  0.23178400  1
  H  182  1  0.93308200  0.19240400  0.29050600  1
  H  183  1  0.08212400  0.19333600  0.29093000  1
  H  184  1  0.00988900  0.14452400  0.27357400  1
  H  185  1  0.00748300  0.12979700  0.33996100  1
  H  186  1  0.00570300  0.16759200  0.34820100  1
  H  187  1  0.00678500  0.22326200  0.24945400  1
  H  188  1  0.00453800  0.24666700  0.32385800  1
  H  189  1  0.00253100  0.27310900  0.29539100  1
  H  192  1  0.00842500  0.19004800  0.21604900  1
  H  193  1  0.00881600  0.16210400  0.22222000  1
  H  195  1  0.97970300  0.20543400  0.33131800  1
  H  196  1  0.03180700  0.20576800  0.33187300  1
  H  200  1  0.15270500  0.19474700  0.29152300  1
  H  201  1  0.86232800  0.19279800  0.29063700  1
  H  202  1  0.99038300  0.25861600  0.23805400  1
  H  204  1  0.01941400  0.10726600  0.28523800  1
  H  229  1  0.87243000  0.76817000  0.81503300  1
  H  230  1  0.93358100  0.78617600  0.82225300  1
  H  231  1  0.08379600  0.78565100  0.82183200  1
  H  232  1  0.14436000  0.76727200  0.81413800  1
  H  233  1  0.08216800  0.70899000  0.80678100  1
  H  234  1  0.93311200  0.70943900  0.80764500  1
  H  235  1  0.00990100  0.72626900  0.85557000  1
  H  236  1  0.00741000  0.65985900  0.87017400  1
  H  237  1  0.00559700  0.65168800  0.83235900  1
  H  238  1  0.00731700  0.75055200  0.77702200  1
  H  239  1  0.00458500  0.67628800  0.75326700  1
  H  240  1  0.00327400  0.70487800  0.72693200  1
  H  243  1  0.00850100  0.78387200  0.81014400  1
  H  244  1  0.00882700  0.77767400  0.83808300  1
  H  246  1  0.03166700  0.66807200  0.79418500  1
  H  247  1  0.97956700  0.66869000  0.79452700  1
  H  251  1  0.86237200  0.70932400  0.80717100  1
  H  252  1  0.15275800  0.70840200  0.80534700  1
  H  253  1  0.99568000  0.76277400  0.74194100  1
  H  255  1  0.01936800  0.71457000  0.89277700  1
  H  280  1  0.87240700  0.33056400  0.08621400  1
  H  281  1  0.93356600  0.31256400  0.07899500  1
  H  282  1  0.08376300  0.31309800  0.07941800  1
  H  283  1  0.14432300  0.33147800  0.08712300  1
  H  284  1  0.08211300  0.38976400  0.09445000  1
  H  285  1  0.93305300  0.38930300  0.09358400  1
  H  286  1  0.00987900  0.37248800  0.04566200  1
  H  287  1  0.00736800  0.43889900  0.03106600  1
  H  288  1  0.00551400  0.44706600  0.06888200  1
  H  289  1  0.00741100  0.34820300  0.12418100  1
  H  290  1  0.00449100  0.42244500  0.14798300  1
  H  291  1  0.00342700  0.39384400  0.17430800  1
  H  294  1  0.00847400  0.31487900  0.09108800  1
  H  295  1  0.00880300  0.32107600  0.06315000  1
  H  297  1  0.03154600  0.43068400  0.10706000  1
  H  298  1  0.97944600  0.43005100  0.10670900  1
  H  302  1  0.86231000  0.38941000  0.09405100  1
  H  303  1  0.15269900  0.39034600  0.09594000  1
  H  304  1  0.99750200  0.33579900  0.15920300  1
  H  306  1  0.01945200  0.38420300  0.00846400  1
  H  331  1  0.87245100  0.91377000  0.23182100  1
  H  332  1  0.93360400  0.92099400  0.21381700  1
  H  333  1  0.08381600  0.92057800  0.21435100  1
  H  334  1  0.14437700  0.91289000  0.23273600  1
  H  335  1  0.08217100  0.90555500  0.29101800  1
  H  336  1  0.93312700  0.90640300  0.29055500  1
  H  337  1  0.00990800  0.95432700  0.27373700  1
  H  338  1  0.00739500  0.96893100  0.34014700  1
  H  339  1  0.00556700  0.93111500  0.34831900  1
  H  340  1  0.00748100  0.87581400  0.24946300  1
  H  341  1  0.00456500  0.85201300  0.32370700  1
  H  342  1  0.00353300  0.82568600  0.29510600  1
  H  345  1  0.00852700  0.90889600  0.21612800  1
  H  346  1  0.00884400  0.93683600  0.22232000  1
  H  348  1  0.03160700  0.89293500  0.33194100  1
  H  349  1  0.97950800  0.89328700  0.33130900  1
  H  353  1  0.86238400  0.90592400  0.29067000  1
  H  354  1  0.15276300  0.90410600  0.29160500  1
  H  355  1  0.99790900  0.84080200  0.23703900  1
  H  357  1  0.01939700  0.99152800  0.28543700  1
  H  382  1  0.87241000  0.18495100  0.66944200  1
  H  383  1  0.93356300  0.17773900  0.68745300  1
  H  384  1  0.08379000  0.17817900  0.68693000  1
  H  385  1  0.14435100  0.18586300  0.66854400  1
  H  386  1  0.08213400  0.19323200  0.61027000  1
  H  387  1  0.93309700  0.19236200  0.61071800  1
  H  388  1  0.00989700  0.14444100  0.62754100  1
  H  389  1  0.00738100  0.12986200  0.56112700  1
  H  390  1  0.00556400  0.16768300  0.55297200  1
  H  391  1  0.00718900  0.22300900  0.65187000  1
  H  392  1  0.00454100  0.24676700  0.57760200  1
  H  393  1  0.00307000  0.27309400  0.60619500  1
  H  396  1  0.00848800  0.18985700  0.68515400  1
  H  397  1  0.00882100  0.16192000  0.67895100  1
  H  399  1  0.03166000  0.20585100  0.56937700  1
  H  400  1  0.97956100  0.20551200  0.56998900  1
  H  404  1  0.86234600  0.19279600  0.61059800  1
  H  405  1  0.15273600  0.19464300  0.60967400  1
  H  406  1  0.99418800  0.25815700  0.66395200  1
  H  408  1  0.01940300  0.10723600  0.61582300  1
  H  433  1  0.64404300  0.26789900  0.58694400  1
  H  434  1  0.58371800  0.28583600  0.57794300  1
  H  435  1  0.43363100  0.28637800  0.57757100  1
  H  436  1  0.37269600  0.26880700  0.58611700  1
  H  437  1  0.43318600  0.21014700  0.59450900  1
  H  438  1  0.58204700  0.20967200  0.59526200  1
  H  439  1  0.50992500  0.22645600  0.54554100  1
  H  440  1  0.50717400  0.15998800  0.53124300  1
  H  441  1  0.50512600  0.15199700  0.56909400  1
  H  442  1  0.50867800  0.25111300  0.62403200  1
  H  443  1  0.50454200  0.17690400  0.64801900  1
  H  444  1  0.50598000  0.20552300  0.67427400  1
  H  447  1  0.50855400  0.28440700  0.58932300  1
  H  448  1  0.50875100  0.27722900  0.56161900  1
  H  450  1  0.47888400  0.16929200  0.60680900  1
  H  451  1  0.53097800  0.16844200  0.60719400  1
  H  455  1  0.65011000  0.21019500  0.60342500  1
  H  456  1  0.36502000  0.21088400  0.60179400  1
  H  457  1  0.51608000  0.26352100  0.65954900  1
  H  459  1  0.51957300  0.21456300  0.50840800  1
  H  484  1  0.64406900  0.83085500  0.31431200  1
  H  485  1  0.58374800  0.81293000  0.32333300  1
  H  486  1  0.43366100  0.81239900  0.32371400  1
  H  487  1  0.37274100  0.82996800  0.31514800  1
  H  488  1  0.43322200  0.88863300  0.30680000  1
  H  489  1  0.58207900  0.88908800  0.30598400  1
  H  490  1  0.50999000  0.87232600  0.35573800  1
  H  491  1  0.50727500  0.93879600  0.37003000  1
  H  492  1  0.50523500  0.94678400  0.33217700  1
  H  493  1  0.50846500  0.84765300  0.27730100  1
  H  494  1  0.50445900  0.92183300  0.25323600  1
  H  495  1  0.50554400  0.89318100  0.22700700  1
  H  498  1  0.50856900  0.81436800  0.31196000  1
  H  499  1  0.50881000  0.82153800  0.33966500  1
  H  501  1  0.47899300  0.92950600  0.29446700  1
  H  502  1  0.53108700  0.93030600  0.29406100  1
  H  506  1  0.65014800  0.88855800  0.29782200  1
  H  507  1  0.36507300  0.88788700  0.29946000  1
  H  508  1  0.51411900  0.83506600  0.24189700  1
  H  510  1  0.51960500  0.88420600  0.39286600  1
  H  535  1  0.64401600  0.41304000  0.16916100  1
  H  536  1  0.58369800  0.42206000  0.18708600  1
  H  537  1  0.43361700  0.42244500  0.18761900  1
  H  538  1  0.37269100  0.41388100  0.17005500  1
  H  539  1  0.43318000  0.40547600  0.11139500  1
  H  540  1  0.58203500  0.40471100  0.11093100  1
  H  541  1  0.50991600  0.45445500  0.12769800  1
  H  542  1  0.50719800  0.46874600  0.06122800  1
  H  543  1  0.50514600  0.43089500  0.05324100  1
  H  544  1  0.50862200  0.37597600  0.15236500  1
  H  545  1  0.50452400  0.35196900  0.07816300  1
  H  546  1  0.50590100  0.32572000  0.10679100  1
  H  549  1  0.50853600  0.41068500  0.18565000  1
  H  550  1  0.50874300  0.43838800  0.17847400  1
  H  552  1  0.47889900  0.39318200  0.07053300  1
  H  553  1  0.53099300  0.39279300  0.06969800  1
  H  557  1  0.65009500  0.39653800  0.11146400  1
  H  558  1  0.36500600  0.39818400  0.11213800  1
  H  559  1  0.51575000  0.34047700  0.16480700  1
  H  561  1  0.51957600  0.49158400  0.11580500  1
  H  586  1  0.64406700  0.68567800  0.73210400  1
  H  587  1  0.58374200  0.67665300  0.71417600  1
  H  588  1  0.43364900  0.67627300  0.71363500  1
  H  589  1  0.37271700  0.68482400  0.73120200  1
  H  590  1  0.43321000  0.69327100  0.78985300  1
  H  591  1  0.58206700  0.69403100  0.79032400  1
  H  592  1  0.50994500  0.64428800  0.77355100  1
  H  593  1  0.50719200  0.62999100  0.84001900  1
  H  594  1  0.50514000  0.66784200  0.84800900  1
  H  595  1  0.50870100  0.72277800  0.74889200  1
  H  596  1  0.50456800  0.74676600  0.82310200  1
  H  597  1  0.50601600  0.77302200  0.79448200  1
  H  600  1  0.50858600  0.68804200  0.71559700  1
  H  601  1  0.50878400  0.66034400  0.72278900  1
  H  603  1  0.47890400  0.70555800  0.83071500  1
  H  604  1  0.53099600  0.70594000  0.83156300  1
  H  608  1  0.65011300  0.70221700  0.78979200  1
  H  609  1  0.36500800  0.70049800  0.78912500  1
  H  610  1  0.51614200  0.75830000  0.73648900  1
  H  612  1  0.51959100  0.60715300  0.78544300  1
  H  637  1  0.37269400  0.26876800  0.31526700  1
  H  638  1  0.43362600  0.28630800  0.32386100  1
  H  639  1  0.58372100  0.28573400  0.32351300  1
  H  640  1  0.64403100  0.26780700  0.31446700  1
  H  641  1  0.58200300  0.20961100  0.30602200  1
  H  642  1  0.43314200  0.21010500  0.30679600  1
  H  643  1  0.50988300  0.22633800  0.35579100  1
  H  644  1  0.50709800  0.15985300  0.37001100  1
  H  645  1  0.50505800  0.15190800  0.33214900  1
  H  646  1  0.50856900  0.25110100  0.27735800  1
  H  647  1  0.50444200  0.17693300  0.25324400  1
  H  648  1  0.50574200  0.20560000  0.22703700  1
  H  651  1  0.50856000  0.28434100  0.31210800  1
  H  652  1  0.50874800  0.27712100  0.33980100  1
  H  654  1  0.53094300  0.16840800  0.29406300  1
  H  655  1  0.47885100  0.16924800  0.29445000  1
  H  659  1  0.36495500  0.21086800  0.29952400  1
  H  660  1  0.65007700  0.21013000  0.29789100  1
  H  661  1  0.51526000  0.26363300  0.24188000  1
  H  663  1  0.51946400  0.21441900  0.39289600  1
  H  688  1  0.37272300  0.82998400  0.58599200  1
  H  689  1  0.43364900  0.81243700  0.57739800  1
  H  690  1  0.58373000  0.81298800  0.57774400  1
  H  691  1  0.64405500  0.83090600  0.58678700  1
  H  692  1  0.58204100  0.88911400  0.59523200  1
  H  693  1  0.43318000  0.88864000  0.59445800  1
  H  694  1  0.50992800  0.87240300  0.54547100  1
  H  695  1  0.50719500  0.93888800  0.53125400  1
  H  696  1  0.50515800  0.94683200  0.56911600  1
  H  697  1  0.50856600  0.84763100  0.62389500  1
  H  698  1  0.50449500  0.92179500  0.64802100  1
  H  699  1  0.50574800  0.89312200  0.67422300  1
  H  702  1  0.50856600  0.81439600  0.58913900  1
  H  703  1  0.50877500  0.82162200  0.56144700  1
  H  705  1  0.53101700  0.93032000  0.60720400  1
  H  706  1  0.47892200  0.92949600  0.60681400  1
  H  710  1  0.36500300  0.88788500  0.60173400  1
  H  711  1  0.65011300  0.88857900  0.60338100  1
  H  712  1  0.51509500  0.83507800  0.65936100  1
  H  714  1  0.51954400  0.88432300  0.50837100  1
  H  739  1  0.37269600  0.41400600  0.73124000  1
  H  740  1  0.43361400  0.42260200  0.71368900  1
  H  741  1  0.58372100  0.42225800  0.71424400  1
  H  742  1  0.64403700  0.41322100  0.73216800  1
  H  743  1  0.58201700  0.40477900  0.79037100  1
  H  744  1  0.43318300  0.40554900  0.78989300  1
  H  745  1  0.50989500  0.45453700  0.77365300  1
  H  746  1  0.50714500  0.46875700  0.84013700  1
  H  747  1  0.50512600  0.43089300  0.84808300  1
  H  748  1  0.50854800  0.37610900  0.74888500  1
  H  749  1  0.50447700  0.35198500  0.82305000  1
  H  750  1  0.50574500  0.32578100  0.79437900  1
  H  753  1  0.50854800  0.41086000  0.71564500  1
  H  754  1  0.50874800  0.43855200  0.72286600  1
  H  756  1  0.53099300  0.39280300  0.83157300  1
  H  757  1  0.47890200  0.39319500  0.83074700  1
  H  761  1  0.36501700  0.39823900  0.78913900  1
  H  762  1  0.65008300  0.39661400  0.78984000  1
  H  763  1  0.51516600  0.34063500  0.73634200  1
  H  765  1  0.51946700  0.49164100  0.78556700  1
  H  790  1  0.37275000  0.68475800  0.17002000  1
  H  791  1  0.43367600  0.67615200  0.18755800  1
  H  792  1  0.58375100  0.67651000  0.18699500  1
  H  793  1  0.64405800  0.68555900  0.16907600  1
  H  794  1  0.58204400  0.69396400  0.11086300  1
  H  795  1  0.43318300  0.69319500  0.11135000  1
  H  796  1  0.50991600  0.64419700  0.12759200  1
  H  797  1  0.50713900  0.62996100  0.06111100  1
  H  798  1  0.50512600  0.66782300  0.05315500  1
  H  799  1  0.50856300  0.72262600  0.15233400  1
  H  800  1  0.50448000  0.74673200  0.07816400  1
  H  801  1  0.50572700  0.77294400  0.10682800  1
  H  804  1  0.50859800  0.68789300  0.18558700  1
  H  805  1  0.50879300  0.66019800  0.17837500  1
  H  807  1  0.53101100  0.70591400  0.06965300  1
  H  808  1  0.47891600  0.70552200  0.07047900  1
  H  812  1  0.36500300  0.70049100  0.11212000  1
  H  813  1  0.65010700  0.70216000  0.11140700  1
  H  814  1  0.51499800  0.75808100  0.16488000  1
  H  816  1  0.51941400  0.60708600  0.11569400  1
  H  827  1  0.02996800  0.71703200  0.25479000  1
  H  828  1  0.99764600  0.79180000  0.18111400  1
  H  829  1  0.99685900  0.81873000  0.20804600  1
  H  831  1  0.03040200  0.75821200  0.30036000  1
  H  832  1  0.06036600  0.73611200  0.29238400  1
  H  833  1  0.00873800  0.73251200  0.29580800  1
  H  846  1  0.02984200  0.38166600  0.64653800  1
  H  847  1  0.99925900  0.30692800  0.72042400  1
  H  848  1  0.99852800  0.27987500  0.69346100  1
  H  850  1  0.03011200  0.34046700  0.60098800  1
  H  851  1  0.06007100  0.36259300  0.60889600  1
  H  852  1  0.00841000  0.36615200  0.60557700  1
  H  865  1  0.02987300  0.74522900  0.61830700  1
  H  866  1  0.99836000  0.81898600  0.69308300  1
  H  867  1  0.99767900  0.79204200  0.72006200  1
  H  869  1  0.03033500  0.69966700  0.65949400  1
  H  870  1  0.06026400  0.70762400  0.63737600  1
  H  871  1  0.00862300  0.70422600  0.63380800  1
  H  884  1  0.02989800  0.35352200  0.28295400  1
  H  885  1  0.99790000  0.27980900  0.20819400  1
  H  886  1  0.99705400  0.30674800  0.18124500  1
  H  888  1  0.03027900  0.39909100  0.24177300  1
  H  889  1  0.06025300  0.39112600  0.26387200  1
  H  890  1  0.00862100  0.39453300  0.26747300  1
  H  903  1  0.53154100  0.21756200  0.75436800  1
  H  904  1  0.48995900  0.29148400  0.68127500  1
  H  905  1  0.48996800  0.31870400  0.70838300  1
  H  907  1  0.53246100  0.25880200  0.79988600  1
  H  908  1  0.56278000  0.23696900  0.79158600  1
  H  909  1  0.51141000  0.23290300  0.79561200  1
  H  922  1  0.53176500  0.88117600  0.14691600  1
  H  923  1  0.49016500  0.80717500  0.21993700  1
  H  924  1  0.49011800  0.78001100  0.19282000  1
  H  926  1  0.53248800  0.83998500  0.10135300  1
  H  927  1  0.56286500  0.86179400  0.10964800  1
  H  928  1  0.51148700  0.86589000  0.10567500  1
  H  941  1  0.53155600  0.24563200  0.11881700  1
  H  942  1  0.48997400  0.31870900  0.19275600  1
  H  943  1  0.48997100  0.29159400  0.21996700  1
  H  945  1  0.53243200  0.20010100  0.16004500  1
  H  946  1  0.56276500  0.20840200  0.13821900  1
  H  947  1  0.51139600  0.20438700  0.13414300  1
  H  960  1  0.53157100  0.85311600  0.78243900  1
  H  961  1  0.48999100  0.78001900  0.70852500  1
  H  962  1  0.48999700  0.80712400  0.68130300  1
  H  964  1  0.53248500  0.89863200  0.74119600  1
  H  965  1  0.56280600  0.89033200  0.76302800  1
  H  966  1  0.51143700  0.89436000  0.76709900  1
  H  979  1  0.73004300  0.78527800  0.09158800  1
  H  980  1  0.81741500  0.69520300  0.12182000  1
  H  981  1  0.75616100  0.68148500  0.13522200  1
  H  983  1  0.63040900  0.76637200  0.11214000  1
  H  984  1  0.64840900  0.77914800  0.08844000  1
  H  985  1  0.65912400  0.79023100  0.11434500  1
  H  998  1  0.73001700  0.31348500  0.80965300  1
  H  999  1  0.81738200  0.40356800  0.77945200  1
  H  1000  1  0.75613200  0.41728600  0.76604000  1
  H  1002  1  0.63038900  0.33239100  0.78908600  1
  H  1003  1  0.64837900  0.31961300  0.81278900  1
  H  1004  1  0.65911200  0.30853300  0.78688400  1
  H  1017  1  0.73001700  0.90842200  0.68651900  1
  H  1018  1  0.81740900  0.87815200  0.59646700  1
  H  1019  1  0.75615800  0.86474700  0.58274700  1
  H  1021  1  0.63038300  0.88786600  0.66761000  1
  H  1022  1  0.64837900  0.91157000  0.68038100  1
  H  1023  1  0.65909500  0.88566900  0.69147300  1
  H  1036  1  0.72999600  0.19032800  0.21472600  1
  H  1037  1  0.81739100  0.22056800  0.30478400  1
  H  1038  1  0.75614100  0.23396600  0.31850900  1
  H  1040  1  0.63035900  0.21087200  0.23364800  1
  H  1041  1  0.64836200  0.18717700  0.22086200  1
  H  1042  1  0.65906800  0.21308700  0.20978900  1
  H  1055  1  0.28621000  0.78393400  0.80983200  1
  H  1056  1  0.19844100  0.69449800  0.77807300  1
  H  1057  1  0.25966300  0.68091000  0.76448200  1
  H  1059  1  0.38579400  0.76519000  0.78904500  1
  H  1060  1  0.36780300  0.77761000  0.81293500  1
  H  1061  1  0.35722300  0.78913300  0.78720600  1
  H  1074  1  0.28615300  0.31478600  0.09145900  1
  H  1075  1  0.19841500  0.40425900  0.12316000  1
  H  1076  1  0.25964100  0.41784700  0.13673900  1
  H  1078  1  0.38575000  0.33353200  0.11222400  1
  H  1079  1  0.36774400  0.32110500  0.08834000  1
  H  1080  1  0.35717600  0.30959200  0.11407500  1
  H  1093  1  0.28620600  0.90851000  0.21604600  1
  H  1094  1  0.19845900  0.87685800  0.30552700  1
  H  1095  1  0.25968300  0.86328600  0.31912600  1
  H  1097  1  0.38580000  0.88775100  0.23481000  1
  H  1098  1  0.36779700  0.91162500  0.22235900  1
  H  1099  1  0.35722300  0.88588100  0.21087100  1
  H  1112  1  0.28619000  0.19020900  0.68521000  1
  H  1113  1  0.19841000  0.22192600  0.59576300  1
  H  1114  1  0.25962900  0.23550900  0.58216700  1
  H  1116  1  0.38577000  0.21098700  0.66645700  1
  H  1117  1  0.36778500  0.18710300  0.67889300  1
  H  1118  1  0.35719400  0.21284000  0.69039600  1
  H  1131  1  0.28623700  0.31474500  0.80962400  1
  H  1132  1  0.19839800  0.40422500  0.77803500  1
  H  1133  1  0.25962600  0.41787500  0.76452400  1
  H  1135  1  0.38584100  0.33358700  0.78895800  1
  H  1136  1  0.36781200  0.32109500  0.81280300  1
  H  1137  1  0.35730900  0.30963700  0.78703500  1
  H  1150  1  0.28625600  0.78398100  0.09156800  1
  H  1151  1  0.19844100  0.69452100  0.12322700  1
  H  1152  1  0.25966900  0.68089200  0.13676800  1
  H  1154  1  0.38585600  0.76517100  0.11227700  1
  H  1155  1  0.36783500  0.77763000  0.08841200  1
  H  1156  1  0.35731500  0.78912200  0.11416200  1
  H  1169  1  0.28623300  0.19030000  0.21602600  1
  H  1170  1  0.19839200  0.22197900  0.30547200  1
  H  1171  1  0.25961700  0.23551900  0.31910200  1
  H  1173  1  0.38582600  0.21100700  0.23483700  1
  H  1174  1  0.36781200  0.18714100  0.22238000  1
  H  1175  1  0.35729100  0.21289000  0.21088500  1
  H  1188  1  0.28625300  0.90841200  0.68524200  1
  H  1189  1  0.19841100  0.87675700  0.59579200  1
  H  1190  1  0.25964000  0.86323500  0.58215000  1
  H  1192  1  0.38585900  0.88773600  0.66640900  1
  H  1193  1  0.36782700  0.91158900  0.67888500  1
  H  1194  1  0.35733200  0.88583000  0.69036300  1
  H  1207  1  0.73007300  0.31347000  0.09150300  1
  H  1208  1  0.81739400  0.40351300  0.12185100  1
  H  1209  1  0.75614400  0.41719600  0.13530000  1
  H  1211  1  0.63044700  0.33231800  0.11212700  1
  H  1212  1  0.64842600  0.31958400  0.08840000  1
  H  1213  1  0.65919200  0.30846400  0.11428400  1
  H  1226  1  0.73011100  0.78527700  0.80972200  1
  H  1227  1  0.81742400  0.69520900  0.77941500  1
  H  1228  1  0.75616700  0.68152200  0.76598400  1
  H  1230  1  0.63047400  0.76641800  0.78912700  1
  H  1231  1  0.64846800  0.77916100  0.81284600  1
  H  1232  1  0.65921300  0.79027300  0.78695800  1
  H  1245  1  0.73008200  0.19026500  0.68652900  1
  H  1246  1  0.81742100  0.22060200  0.59648700  1
  H  1247  1  0.75616700  0.23403500  0.58279700  1
  H  1249  1  0.63044700  0.21085700  0.66766000  1
  H  1250  1  0.64844100  0.18714100  0.68041000  1
  H  1251  1  0.65918000  0.21303400  0.69151600  1
  H  1264  1  0.73012900  0.90851300  0.21473100  1
  H  1265  1  0.81745000  0.87812600  0.30476200  1
  H  1266  1  0.75619400  0.86469100  0.31844600  1
  H  1268  1  0.63049500  0.88790800  0.23358100  1
  H  1269  1  0.64848200  0.91163300  0.22084400  1
  H  1270  1  0.65923600  0.88574700  0.20972800  1
  H  1283  1  0.11564200  0.72780600  0.97053300  1
  H  1284  1  0.95403600  0.66919100  0.97003000  1
  H  1285  1  0.95399400  0.66910700  0.93136300  1
  H  1287  1  0.12091200  0.72905600  0.90919200  1
  H  1288  1  0.15406000  0.72347300  0.93064300  1
  H  1289  1  0.12690000  0.74809100  0.93039600  1
  H  1302  1  0.11555100  0.37081000  0.93072500  1
  H  1303  1  0.95405900  0.42953400  0.93117100  1
  H  1304  1  0.95400300  0.42964400  0.96984100  1
  H  1306  1  0.12079300  0.36958600  0.99206800  1
  H  1307  1  0.15396900  0.37511800  0.97061700  1
  H  1308  1  0.12671800  0.35053200  0.97087500  1
  H  1321  1  0.11557100  0.02946400  0.62913400  1
  H  1322  1  0.95403600  0.02997500  0.57045700  1
  H  1323  1  0.95401500  0.06864600  0.57035600  1
  H  1325  1  0.12088100  0.09080500  0.63035900  1
  H  1326  1  0.15402100  0.06934200  0.62480500  1
  H  1327  1  0.12682000  0.06960900  0.64940700  1
  H  1340  1  0.11563500  0.06928600  0.27220000  1
  H  1341  1  0.95399700  0.06878500  0.33079300  1
  H  1342  1  0.95396500  0.03011600  0.33088200  1
  H  1344  1  0.12091800  0.00794500  0.27095600  1
  H  1345  1  0.15405900  0.02939700  0.27654000  1
  H  1346  1  0.12691100  0.02914900  0.25192000  1
  H  1359  1  0.61598200  0.22723900  0.47054500  1
  H  1360  1  0.45371200  0.16916300  0.47003200  1
  H  1361  1  0.45367100  0.16908700  0.43136100  1
  H  1363  1  0.62125600  0.22848700  0.40920200  1
  H  1364  1  0.65435500  0.22281000  0.43065100  1
  H  1365  1  0.62742000  0.24750100  0.43041000  1
  H  1378  1  0.61606800  0.87152400  0.43071500  1
  H  1379  1  0.45378900  0.92960400  0.43124200  1
  H  1380  1  0.45373900  0.92966200  0.46991200  1
  H  1382  1  0.62133600  0.87025500  0.49205700  1
  H  1383  1  0.65443100  0.87594100  0.47060900  1
  H  1384  1  0.62750800  0.85124700  0.47084600  1
  H  1397  1  0.61605000  0.52943300  0.12843800  1
  H  1398  1  0.45372100  0.52996300  0.07040900  1
  H  1399  1  0.45367100  0.56863500  0.07035400  1
  H  1401  1  0.62129700  0.59077500  0.12972100  1
  H  1402  1  0.65439900  0.56933400  0.12401700  1
  H  1403  1  0.62750000  0.56955700  0.14872000  1
  H  1416  1  0.61606800  0.56929600  0.77282000  1
  H  1417  1  0.45372700  0.56877600  0.83083600  1
  H  1418  1  0.45367400  0.53010400  0.83089300  1
  H  1420  1  0.62132400  0.50795400  0.77154600  1
  H  1421  1  0.65441600  0.52939900  0.77724700  1
  H  1422  1  0.62752900  0.52916500  0.75254100  1
  C  1  1  0.00730700  0.71814800  0.11350400  1
  C  2  1  0.00648400  0.69628500  0.12015600  1
  C  3  1  0.00687000  0.68414400  0.08019800  1
  C  4  1  0.00794700  0.70595500  0.07321400  1
  C  5  1  0.00894200  0.71054600  0.05054000  1
  C  6  1  0.00872600  0.69419600  0.03434400  1
  C  7  1  0.00734100  0.67256500  0.04186300  1
  C  8  1  0.00645100  0.66768200  0.06421900  1
  C  9  1  0.00542600  0.69185600  0.14269900  1
  C  10  1  0.00451800  0.70864700  0.15831800  1
  C  11  1  0.00479800  0.73066100  0.15204800  1
  C  12  1  0.00669600  0.73476600  0.12953600  1
  C  13  1  0.04629200  0.73596800  0.08691000  1
  C  14  1  0.04629800  0.75845600  0.08260200  1
  C  15  1  0.97037600  0.75868700  0.08222300  1
  C  16  1  0.96981300  0.73618100  0.08641200  1
  C  17  1  0.93390800  0.76990500  0.08185600  1
  C  18  1  0.89782300  0.75929100  0.08622300  1
  C  19  1  0.89648800  0.73682500  0.09060100  1
  C  20  1  0.93295600  0.72566900  0.09007500  1
  C  21  1  0.08280300  0.72522800  0.09090900  1
  C  22  1  0.11950000  0.73615400  0.09162400  1
  C  23  1  0.11875000  0.75860200  0.08709400  1
  C  24  1  0.08300500  0.76943000  0.08242800  1
  C  37  1  0.00788900  0.72398500  0.08972700  1
  C  38  1  0.00850400  0.77069000  0.07956300  1
  C  41  1  0.00619800  0.67834400  0.10380900  1
  C  44  1  0.86180900  0.72537200  0.09575200  1
  C  45  1  0.00105100  0.74837900  0.16627400  1
  C  46  1  0.15384200  0.72453300  0.09709100  1
  C  50  1  0.01135300  0.69970900  0.01214300  1
  C  52  1  0.00715400  0.38058200  0.78765300  1
  C  53  1  0.00645700  0.40246900  0.78105600  1
  C  54  1  0.00693200  0.41455800  0.82102400  1
  C  55  1  0.00795800  0.39273800  0.82798000  1
  C  56  1  0.00896200  0.38813600  0.85065700  1
  C  57  1  0.00876500  0.40447600  0.86686700  1
  C  58  1  0.00738500  0.42611200  0.85936400  1
  C  59  1  0.00652800  0.43101000  0.83701300  1
  C  60  1  0.00528700  0.40697100  0.75853300  1
  C  61  1  0.00401400  0.39023500  0.74287500  1
  C  62  1  0.00409300  0.36820800  0.74908600  1
  C  63  1  0.00621000  0.36400100  0.77157200  1
  C  64  1  0.04622200  0.36273200  0.81419200  1
  C  65  1  0.04623600  0.34025500  0.81854000  1
  C  66  1  0.97032000  0.34003700  0.81898500  1
  C  67  1  0.96976200  0.36254000  0.81478900  1
  C  68  1  0.93384600  0.32883000  0.81937900  1
  C  69  1  0.89775800  0.33945400  0.81503700  1
  C  70  1  0.89643500  0.36191900  0.81065500  1
  C  71  1  0.93290600  0.37307000  0.81117300  1
  C  72  1  0.08273100  0.37347000  0.81019000  1
  C  73  1  0.11944900  0.36256000  0.80956000  1
  C  74  1  0.11870700  0.34012000  0.81412200  1
  C  75  1  0.08295100  0.32928600  0.81874600  1
  C  88  1  0.00782500  0.37472700  0.81143200  1
  C  89  1  0.00844900  0.32802700  0.82161900  1
  C  92  1  0.00629500  0.42038600  0.79742700  1
  C  95  1  0.86176500  0.37338100  0.80551200  1
  C  96  1  0.99934100  0.35064500  0.73478600  1
  C  97  1  0.15380600  0.37419100  0.80415200  1
  C  101  1  0.01136700  0.39896700  0.88907400  1
  C  103  1  0.00726200  0.88646700  0.61941800  1
  C  104  1  0.00648400  0.87983400  0.59754600  1
  C  105  1  0.00688200  0.91979800  0.58542100  1
  C  106  1  0.00793900  0.92677300  0.60723500  1
  C  107  1  0.00892900  0.94944800  0.61182900  1
  C  108  1  0.00870900  0.96565000  0.59548200  1
  C  109  1  0.00733400  0.95813600  0.57385100  1
  C  110  1  0.00646900  0.93578000  0.56896300  1
  C  111  1  0.00539300  0.85729800  0.59309500  1
  C  112  1  0.00437300  0.84166400  0.60986600  1
  C  113  1  0.00454700  0.84791400  0.63188300  1
  C  114  1  0.00654000  0.87041700  0.63602600  1
  C  115  1  0.04626400  0.91304700  0.63724400  1
  C  116  1  0.04627100  0.91736400  0.65972800  1
  C  117  1  0.97035200  0.91776000  0.65995500  1
  C  118  1  0.96978900  0.91357100  0.63744800  1
  C  119  1  0.93388100  0.91813000  0.67116800  1
  C  120  1  0.89779700  0.91376600  0.66055200  1
  C  121  1  0.89646700  0.90938400  0.63808800  1
  C  122  1  0.93293200  0.90992200  0.62693100  1
  C  123  1  0.08277500  0.90905500  0.62650200  1
  C  124  1  0.11947600  0.90835400  0.63742600  1
  C  125  1  0.11872700  0.91288600  0.65987200  1
  C  126  1  0.08298100  0.91754500  0.67070200  1
  C  139  1  0.00786300  0.91024600  0.62525900  1
  C  140  1  0.00847900  0.92040900  0.67196100  1
  C  143  1  0.00623000  0.89618900  0.57961500  1
  C  146  1  0.86179500  0.90423100  0.62663100  1
  C  147  1  0.00041700  0.83366200  0.64954800  1
  C  148  1  0.15382100  0.90290400  0.62580300  1
  C  152  1  0.01132600  0.98785400  0.60099400  1
  C  154  1  0.00724000  0.21226800  0.28184200  1
  C  155  1  0.00644000  0.21891000  0.30371000  1
  C  156  1  0.00684300  0.17895000  0.31584400  1
  C  157  1  0.00791500  0.17197100  0.29403000  1
  C  158  1  0.00891400  0.14929600  0.28944000  1
  C  159  1  0.00870000  0.13309800  0.30578700  1
  C  160  1  0.00731200  0.14061300  0.32741700  1
  C  161  1  0.00642800  0.16296800  0.33230400  1
  C  162  1  0.00535800  0.24144800  0.30815200  1
  C  163  1  0.00437000  0.25707600  0.29137500  1
  C  164  1  0.00460000  0.25081700  0.26935700  1
  C  165  1  0.00655800  0.22831100  0.26523100  1
  C  166  1  0.04624600  0.18568600  0.26402100  1
  C  167  1  0.04626600  0.18136200  0.24153700  1
  C  168  1  0.97034300  0.18097100  0.24130100  1
  C  169  1  0.96977400  0.18516400  0.26380500  1
  C  170  1  0.93387800  0.18059800  0.23008600  1
  C  171  1  0.89778500  0.18495200  0.24070000  1
  C  172  1  0.89645200  0.18934100  0.26316400  1
  C  173  1  0.93292000  0.18882500  0.27432000  1
  C  174  1  0.08275800  0.18967900  0.27476100  1
  C  175  1  0.11946300  0.19037400  0.26384100  1
  C  176  1  0.11872200  0.18583200  0.24139600  1
  C  177  1  0.08297700  0.18118200  0.23056500  1
  C  190  1  0.00784200  0.18849100  0.27600500  1
  C  191  1  0.00847700  0.17831000  0.22930200  1
  C  194  1  0.00617400  0.20255800  0.32164700  1
  C  197  1  0.86176800  0.19447300  0.27461900  1
  C  198  1  0.00060900  0.26505700  0.25167200  1
  C  199  1  0.15380600  0.19582500  0.27546600  1
  C  203  1  0.01131700  0.11089600  0.30027100  1
  C  205  1  0.00731500  0.71814100  0.78784100  1
  C  206  1  0.00641600  0.69630300  0.78111800  1
  C  207  1  0.00678700  0.68406300  0.82105800  1
  C  208  1  0.00790500  0.70585800  0.82809100  1
  C  209  1  0.00890700  0.71041100  0.85077100  1
  C  210  1  0.00868500  0.69403700  0.86693600  1
  C  211  1  0.00724700  0.67241900  0.85938100  1
  C  212  1  0.00635100  0.66757600  0.83701300  1
  C  213  1  0.00540500  0.69197000  0.75855400  1
  C  214  1  0.00479200  0.70882600  0.74299000  1
  C  215  1  0.00523100  0.73082600  0.74932900  1
  C  216  1  0.00690800  0.73481200  0.77187100  1
  C  217  1  0.96980700  0.73611900  0.81494900  1
  C  218  1  0.97038700  0.75861900  0.81917100  1
  C  219  1  0.04631100  0.75836800  0.81883100  1
  C  220  1  0.04629800  0.73588700  0.81448600  1
  C  221  1  0.08302100  0.76934100  0.81900700  1
  C  222  1  0.11876600  0.75851300  0.81434400  1
  C  223  1  0.11950800  0.73607500  0.80977100  1
  C  224  1  0.08280700  0.72515200  0.81046700  1
  C  225  1  0.93295300  0.72562100  0.81124700  1
  C  226  1  0.89649700  0.73678700  0.81071300  1
  C  227  1  0.89783800  0.75924400  0.81512700  1
  C  228  1  0.93392500  0.76984500  0.81952400  1
  C  241  1  0.00788200  0.72392200  0.81162600  1
  C  242  1  0.00852100  0.77060700  0.82186900  1
  C  245  1  0.00607700  0.67832100  0.79742600  1
  C  248  1  0.15385000  0.72446200  0.80429000  1
  C  249  1  0.00251000  0.74868700  0.73517900  1
  C  250  1  0.86181800  0.72534600  0.80553000  1
  C  254  1  0.01128300  0.69953300  0.88914100  1
  C  256  1  0.00726100  0.38061200  0.11338700  1
  C  257  1  0.00632200  0.40244400  0.12011900  1
  C  258  1  0.00670500  0.41468900  0.08018000  1
  C  259  1  0.00784600  0.39289700  0.07314200  1
  C  260  1  0.00886400  0.38834600  0.05046300  1
  C  261  1  0.00862900  0.40472200  0.03429800  1
  C  262  1  0.00719100  0.42633700  0.04185800  1
  C  263  1  0.00627200  0.43117900  0.06422700  1
  C  264  1  0.00533100  0.40676700  0.14268700  1
  C  265  1  0.00480900  0.38990200  0.15824300  1
  C  266  1  0.00537200  0.36790400  0.15189700  1
  C  267  1  0.00694100  0.36393700  0.12934900  1
  C  268  1  0.96977100  0.36262900  0.08628600  1
  C  269  1  0.97035200  0.34012900  0.08206100  1
  C  270  1  0.04627900  0.34038400  0.08240300  1
  C  271  1  0.04625800  0.36286700  0.08674100  1
  C  272  1  0.08299000  0.32941100  0.08222900  1
  C  273  1  0.11872800  0.34023700  0.08691100  1
  C  274  1  0.11946500  0.36267700  0.09147900  1
  C  275  1  0.08276200  0.37359800  0.09077600  1
  C  276  1  0.93290600  0.37312000  0.08998400  1
  C  277  1  0.89645200  0.36195100  0.09052200  1
  C  278  1  0.89780600  0.33949300  0.08610600  1
  C  279  1  0.93389600  0.32890000  0.08169400  1
  C  292  1  0.00783500  0.37483100  0.08960300  1
  C  293  1  0.00849100  0.32814200  0.07936400  1
  C  296  1  0.00596800  0.42043000  0.10381400  1
  C  299  1  0.15379800  0.37428600  0.09698200  1
  C  300  1  0.00309100  0.35001100  0.16603700  1
  C  301  1  0.86177400  0.37339100  0.09570400  1
  C  305  1  0.01129800  0.39923000  0.01209300  1
  C  307  1  0.00731600  0.88660700  0.28187000  1
  C  308  1  0.00638100  0.87987500  0.30370300  1
  C  309  1  0.00676400  0.91981400  0.31594400  1
  C  310  1  0.00790100  0.92684900  0.29415000  1
  C  311  1  0.00890600  0.94952700  0.28959400  1
  C  312  1  0.00866900  0.96569200  0.30597000  1
  C  313  1  0.00725000  0.95813600  0.32758600  1
  C  314  1  0.00633300  0.93576800  0.33243200  1
  C  315  1  0.00538700  0.85730800  0.30802700  1
  C  316  1  0.00489200  0.84175100  0.29116400  1
  C  317  1  0.00546400  0.84809700  0.26916600  1
  C  318  1  0.00700900  0.87064500  0.26519800  1
  C  319  1  0.96982400  0.91370800  0.26387700  1
  C  320  1  0.97039900  0.91792500  0.24137500  1
  C  321  1  0.04632600  0.91759000  0.24163400  1
  C  322  1  0.04630700  0.91325400  0.26411500  1
  C  323  1  0.08303700  0.91775700  0.23066200  1
  C  324  1  0.11877900  0.91309100  0.24149200  1
  C  325  1  0.11951800  0.90852900  0.26393200  1
  C  326  1  0.08280900  0.90921200  0.27484900  1
  C  327  1  0.93296400  0.91001500  0.27437600  1
  C  328  1  0.89650800  0.90946900  0.26320800  1
  C  329  1  0.89785600  0.91387300  0.24074700  1
  C  330  1  0.93394300  0.91827100  0.23014900  1
  C  343  1  0.00788800  0.91039000  0.27608400  1
  C  344  1  0.00853900  0.92062300  0.22939100  1
  C  347  1  0.00603000  0.89618100  0.32168600  1
  C  350  1  0.15385700  0.90304500  0.27554700  1
  C  351  1  0.00325900  0.83395700  0.25127200  1
  C  352  1  0.86183600  0.90428100  0.27464800  1
  C  356  1  0.01128600  0.98789500  0.30047100  1
  C  358  1  0.00728500  0.21218600  0.61944800  1
  C  359  1  0.00639800  0.21891200  0.59761100  1
  C  360  1  0.00677000  0.17897100  0.58535200  1
  C  361  1  0.00789100  0.17192900  0.60714300  1
  C  362  1  0.00889800  0.14924600  0.61168500  1
  C  363  1  0.00867400  0.13308400  0.59530400  1
  C  364  1  0.00723900  0.14065200  0.57369200  1
  C  365  1  0.00633100  0.16302200  0.56885800  1
  C  366  1  0.00538400  0.24147700  0.59328300  1
  C  367  1  0.00467100  0.25703500  0.61014100  1
  C  368  1  0.00505700  0.25069400  0.63214100  1
  C  369  1  0.00681100  0.22815400  0.63612700  1
  C  370  1  0.96978900  0.18505800  0.63740300  1
  C  371  1  0.97037000  0.18083200  0.65989900  1
  C  372  1  0.04629800  0.18117600  0.65964900  1
  C  373  1  0.04627900  0.18553200  0.63717100  1
  C  374  1  0.08301500  0.18098100  0.67061600  1
  C  375  1  0.11875300  0.18566000  0.65978800  1
  C  376  1  0.11949000  0.19023300  0.63734900  1
  C  377  1  0.08278300  0.18955600  0.62643400  1
  C  378  1  0.93293500  0.18875800  0.62690000  1
  C  379  1  0.89647600  0.18928400  0.63806200  1
  C  380  1  0.89781700  0.18486400  0.66052100  1
  C  381  1  0.93390800  0.18047200  0.67112300  1
  C  394  1  0.00786200  0.18839200  0.62521200  1
  C  395  1  0.00850900  0.17813500  0.67188800  1
  C  398  1  0.00606500  0.20260700  0.57962200  1
  C  401  1  0.15382500  0.19571700  0.62573300  1
  C  402  1  0.00201200  0.26484800  0.64998400  1
  C  403  1  0.86179800  0.19445400  0.62661800  1
  C  407  1  0.01129700  0.11087300  0.60079100  1
  C  409  1  0.50733400  0.21866200  0.61332100  1
  C  410  1  0.50613700  0.19684300  0.62011100  1
  C  411  1  0.50644600  0.18442500  0.58024300  1
  C  412  1  0.50775800  0.20618700  0.57312500  1
  C  413  1  0.50883100  0.21062600  0.55042100  1
  C  414  1  0.50857200  0.19417900  0.53432800  1
  C  415  1  0.50703300  0.17260000  0.54197900  1
  C  416  1  0.50598600  0.16786200  0.56436700  1
  C  417  1  0.50540600  0.19256800  0.64268000  1
  C  418  1  0.50613700  0.20945600  0.65819000  1
  C  419  1  0.50758400  0.23143400  0.65180200  1
  C  420  1  0.50787000  0.23538900  0.62923500  1
  C  421  1  0.54629200  0.23625400  0.58647100  1
  C  422  1  0.54629500  0.25860200  0.58150900  1
  C  423  1  0.47037000  0.25887900  0.58127000  1
  C  424  1  0.46978100  0.23652200  0.58615400  1
  C  425  1  0.43393800  0.27012100  0.58072100  1
  C  426  1  0.39793300  0.25974600  0.58581200  1
  C  427  1  0.39655600  0.23745800  0.59105300  1
  C  428  1  0.43294800  0.22620900  0.59041000  1
  C  429  1  0.58276300  0.22571100  0.59108000  1
  C  430  1  0.61938100  0.23673800  0.59191100  1
  C  431  1  0.61862700  0.25899700  0.58650400  1
  C  432  1  0.58297800  0.26959300  0.58113400  1
  C  445  1  0.50784600  0.22433100  0.58950200  1
  C  446  1  0.50851000  0.27073800  0.57807300  1
  C  449  1  0.50554100  0.17879000  0.60389000  1
  C  452  1  0.36234700  0.22651400  0.59808300  1
  C  453  1  0.50957400  0.24923500  0.66606300  1
  C  454  1  0.65326400  0.22566900  0.59922400  1
  C  458  1  0.51132200  0.19956900  0.51210200  1
  C  460  1  0.50731000  0.88011000  0.28797100  1
  C  461  1  0.50614000  0.90192200  0.28116400  1
  C  462  1  0.50653800  0.91435400  0.32103100  1
  C  463  1  0.50783200  0.89259400  0.32815700  1
  C  464  1  0.50891400  0.88815700  0.35085900  1
  C  465  1  0.50868100  0.90460500  0.36694800  1
  C  466  1  0.50714200  0.92618400  0.35929400  1
  C  467  1  0.50610100  0.93092000  0.33690400  1
  C  468  1  0.50532000  0.90617300  0.25859100  1
  C  469  1  0.50586300  0.88926700  0.24309600  1
  C  470  1  0.50722200  0.86729100  0.24950200  1
  C  471  1  0.50769600  0.86336900  0.27207500  1
  C  472  1  0.54632500  0.86251500  0.31479200  1
  C  473  1  0.54632500  0.84016700  0.31975900  1
  C  474  1  0.47040300  0.83989900  0.32003900  1
  C  475  1  0.46981300  0.86225900  0.31516600  1
  C  476  1  0.43397300  0.82865500  0.32056500  1
  C  477  1  0.39797100  0.83903200  0.31547400  1
  C  478  1  0.39659500  0.86132200  0.31024300  1
  C  479  1  0.43297700  0.87258100  0.31092800  1
  C  480  1  0.58279300  0.87304900  0.31016700  1
  C  481  1  0.61941100  0.86201800  0.30933200  1
  C  482  1  0.61865300  0.83975900  0.31473900  1
  C  483  1  0.58300200  0.82916700  0.32010200  1
  C  496  1  0.50787600  0.87444600  0.31178900  1
  C  497  1  0.50854200  0.82803400  0.32321500  1
  C  500  1  0.50562700  0.91998300  0.29738000  1
  C  503  1  0.36239400  0.87226300  0.30319200  1
  C  504  1  0.50879300  0.84944300  0.23527600  1
  C  505  1  0.65329600  0.87308300  0.30202100  1
  C  509  1  0.51138400  0.89920700  0.38917300  1
  C  511  1  0.50731300  0.38667600  0.11991100  1
  C  512  1  0.50612800  0.37988200  0.09809500  1
  C  513  1  0.50645200  0.41974900  0.08567100  1
  C  514  1  0.50775500  0.42687000  0.10743200  1
  C  515  1  0.50882800  0.44957400  0.11186800  1
  C  516  1  0.50858000  0.46566500  0.09542000  1
  C  517  1  0.50704800  0.45801200  0.07384100  1
  C  518  1  0.50600700  0.43562300  0.06910500  1
  C  519  1  0.50538500  0.35731300  0.09382600  1
  C  520  1  0.50607500  0.34180600  0.11071800  1
  C  521  1  0.50751000  0.34819900  0.13269600  1
  C  522  1  0.50782300  0.37076700  0.13664300  1
  C  523  1  0.54627500  0.41352200  0.13750200  1
  C  524  1  0.54628000  0.41849500  0.15984800  1
  C  525  1  0.47035600  0.41874100  0.16012200  1
  C  526  1  0.46976300  0.41385100  0.13776500  1
  C  527  1  0.43392300  0.41929100  0.17136300  1
  C  528  1  0.39791800  0.41419900  0.16098900  1
  C  529  1  0.39655000  0.40893000  0.13870800  1
  C  530  1  0.43293000  0.40959800  0.12744900  1
  C  531  1  0.58275400  0.40892800  0.12696000  1
  C  532  1  0.61936400  0.40807400  0.13799700  1
  C  533  1  0.61860600  0.41348100  0.16025500  1
  C  534  1  0.58296100  0.41886800  0.17084300  1
  C  547  1  0.50783200  0.41049600  0.12557800  1
  C  548  1  0.50849500  0.42193600  0.17198300  1
  C  551  1  0.50555000  0.39610100  0.08003900  1
  C  554  1  0.36233800  0.40189700  0.12776700  1
  C  555  1  0.50943200  0.33394500  0.15050500  1
  C  556  1  0.65324600  0.40075000  0.12693500  1
  C  560  1  0.51132800  0.48789000  0.10081100  1
  C  562  1  0.50735400  0.71206800  0.78134500  1
  C  563  1  0.50616000  0.71885800  0.80316300  1
  C  564  1  0.50646400  0.67898900  0.81558100  1
  C  565  1  0.50777900  0.67187100  0.79381900  1
  C  566  1  0.50884900  0.64916700  0.78938100  1
  C  567  1  0.50859500  0.63307400  0.80582800  1
  C  568  1  0.50705300  0.64072700  0.82740800  1
  C  569  1  0.50601000  0.66311500  0.83214500  1
  C  570  1  0.50543500  0.74142700  0.80743800  1
  C  571  1  0.50616900  0.75693700  0.79055000  1
  C  572  1  0.50761400  0.75054900  0.76857200  1
  C  573  1  0.50789400  0.72798100  0.76461700  1
  C  574  1  0.54631300  0.68521900  0.76375300  1
  C  575  1  0.54632200  0.68024400  0.74140700  1
  C  576  1  0.47039700  0.68000500  0.74112700  1
  C  577  1  0.46980400  0.68489900  0.76348100  1
  C  578  1  0.43396700  0.67945300  0.72988400  1
  C  579  1  0.39795700  0.68453800  0.74025900  1
  C  580  1  0.39658600  0.68980900  0.76254100  1
  C  581  1  0.43297400  0.68916600  0.77379500  1
  C  582  1  0.58279000  0.68981100  0.77429600  1
  C  583  1  0.61940200  0.69065500  0.76326300  1
  C  584  1  0.61865300  0.68523800  0.74100700  1
  C  585  1  0.58300200  0.67987300  0.73041400  1
  C  598  1  0.50786700  0.68824900  0.77567600  1
  C  599  1  0.50853600  0.67679900  0.72927100  1
  C  602  1  0.50556200  0.70263700  0.82121600  1
  C  605  1  0.36236100  0.69681800  0.77348700  1
  C  606  1  0.50961500  0.76481100  0.75077300  1
  C  607  1  0.65327900  0.69798400  0.77432700  1
  C  611  1  0.51134000  0.61084800  0.80043800  1
  C  613  1  0.50728300  0.21863100  0.28801000  1
  C  614  1  0.50608400  0.19682400  0.28118600  1
  C  615  1  0.50640200  0.18434900  0.32103800  1
  C  616  1  0.50771700  0.20610100  0.32818500  1
  C  617  1  0.50879000  0.21051300  0.35089200  1
  C  618  1  0.50853000  0.19404600  0.36696400  1
  C  619  1  0.50695900  0.17247700  0.35928900  1
  C  620  1  0.50593300  0.16776600  0.33689500  1
  C  621  1  0.50531400  0.19258900  0.25861100  1
  C  622  1  0.50596000  0.20950400  0.24312800  1
  C  623  1  0.50739000  0.23147500  0.24955100  1
  C  624  1  0.50776700  0.23538600  0.27212600  1
  C  625  1  0.46974600  0.23645900  0.31520500  1
  C  626  1  0.47035600  0.25881000  0.32012000  1
  C  627  1  0.54628000  0.25851600  0.31988200  1
  C  628  1  0.54626600  0.23617600  0.31487500  1
  C  629  1  0.58296600  0.26950200  0.32025900  1
  C  630  1  0.61861500  0.25890600  0.31489800  1
  C  631  1  0.61935200  0.23665800  0.30944100  1
  C  632  1  0.58273400  0.22563200  0.31026700  1
  C  633  1  0.43291200  0.22615900  0.31091900  1
  C  634  1  0.39653900  0.23742500  0.31026300  1
  C  635  1  0.39792100  0.25970000  0.31556000  1
  C  636  1  0.43393200  0.27006000  0.32066900  1
  C  649  1  0.50781100  0.22426800  0.31183500  1
  C  650  1  0.50850100  0.27065500  0.32333800  1
  C  653  1  0.50550300  0.17874700  0.29738300  1
  C  656  1  0.65323100  0.22559900  0.30210800  1
  C  657  1  0.50919100  0.24930900  0.23532500  1
  C  658  1  0.36231400  0.22650100  0.30322500  1
  C  662  1  0.51123900  0.19942200  0.38919500  1
  C  664  1  0.50731600  0.88010300  0.61324900  1
  C  665  1  0.50613100  0.90190900  0.62007500  1
  C  666  1  0.50646400  0.91438900  0.58022500  1
  C  667  1  0.50776700  0.89263700  0.57307600  1
  C  668  1  0.50884000  0.88822800  0.55036900  1
  C  669  1  0.50858000  0.90469400  0.53429800  1
  C  670  1  0.50703900  0.92626400  0.54197600  1
  C  671  1  0.50601000  0.93097400  0.56437000  1
  C  672  1  0.50535800  0.90614000  0.64265300  1
  C  673  1  0.50598900  0.88922200  0.65813000  1
  C  674  1  0.50738400  0.86725200  0.65170400  1
  C  675  1  0.50777900  0.86334500  0.62913000  1
  C  676  1  0.46978400  0.86228500  0.58604800  1
  C  677  1  0.47037900  0.83993600  0.58112400  1
  C  678  1  0.54630400  0.84021300  0.58137700  1
  C  679  1  0.54629800  0.86255200  0.58638500  1
  C  680  1  0.58298700  0.82922200  0.58099100  1
  C  681  1  0.61863500  0.83980600  0.58637500  1
  C  682  1  0.61938700  0.86205600  0.59181900  1
  C  683  1  0.58277200  0.87308800  0.59100200  1
  C  684  1  0.43295000  0.87258700  0.59032800  1
  C  685  1  0.39657100  0.86132600  0.59098200  1
  C  686  1  0.39794500  0.83905500  0.58567300  1
  C  687  1  0.43395000  0.82869400  0.58054900  1
  C  700  1  0.50784900  0.87447000  0.58942300  1
  C  701  1  0.50852200  0.82808500  0.57791200  1
  C  704  1  0.50556800  0.91998800  0.60388200  1
  C  707  1  0.65326400  0.87311100  0.59915900  1
  C  708  1  0.50913800  0.84941000  0.66592700  1
  C  709  1  0.36235200  0.87225400  0.59802700  1
  C  713  1  0.51131300  0.89932000  0.51207000  1
  C  715  1  0.50729200  0.38675600  0.78135600  1
  C  716  1  0.50611000  0.37993100  0.80316300  1
  C  717  1  0.50644600  0.41978300  0.81564000  1
  C  718  1  0.50774900  0.42693200  0.79388800  1
  C  719  1  0.50881300  0.44963900  0.78947800  1
  C  720  1  0.50854800  0.46571100  0.80594300  1
  C  721  1  0.50702100  0.45803400  0.82751400  1
  C  722  1  0.50599200  0.43563900  0.83222500  1
  C  723  1  0.50534100  0.35735300  0.80739400  1
  C  724  1  0.50597800  0.34187400  0.79047800  1
  C  725  1  0.50737500  0.34830100  0.76850700  1
  C  726  1  0.50775800  0.37087300  0.76459800  1
  C  727  1  0.46976600  0.41396100  0.76353200  1
  C  728  1  0.47035900  0.41887400  0.74118100  1
  C  729  1  0.54628000  0.41862800  0.74146400  1
  C  730  1  0.54627200  0.41362200  0.76380300  1
  C  731  1  0.58296600  0.41900100  0.73047400  1
  C  732  1  0.61861500  0.41363000  0.74106600  1
  C  733  1  0.61936600  0.40819700  0.76331900  1
  C  734  1  0.58273900  0.40899100  0.77433900  1
  C  735  1  0.43293300  0.40969000  0.77384200  1
  C  736  1  0.39655000  0.40903700  0.76258500  1
  C  737  1  0.39792700  0.41431100  0.74030500  1
  C  738  1  0.43392900  0.41942100  0.72993700  1
  C  751  1  0.50782600  0.41058300  0.77572200  1
  C  752  1  0.50850100  0.42208800  0.72933100  1
  C  755  1  0.50554700  0.39612600  0.82124000  1
  C  758  1  0.65323700  0.40085000  0.77437500  1
  C  759  1  0.50915500  0.33407400  0.75066800  1
  C  760  1  0.36235000  0.40196900  0.77351400  1
  C  764  1  0.51125100  0.48794000  0.80056700  1
  C  766  1  0.50731300  0.71197300  0.11986800  1
  C  767  1  0.50612500  0.71879300  0.09806000  1
  C  768  1  0.50646400  0.67894100  0.08559400  1
  C  769  1  0.50777300  0.67179700  0.10734900  1
  C  770  1  0.50883400  0.64909100  0.11176600  1
  C  771  1  0.50857500  0.63301600  0.09530300  1
  C  772  1  0.50703000  0.64068600  0.07373100  1
  C  773  1  0.50600400  0.66307900  0.06901500  1
  C  774  1  0.50534400  0.74136900  0.09382000  1
  C  775  1  0.50596900  0.75685300  0.11073300  1
  C  776  1  0.50737800  0.75043100  0.13270400  1
  C  777  1  0.50777300  0.72785800  0.13661900  1
  C  778  1  0.46978700  0.68477600  0.13770300  1
  C  779  1  0.47040000  0.67987200  0.16005600  1
  C  780  1  0.54631900  0.68011300  0.15976600  1
  C  781  1  0.54630700  0.68511500  0.13742600  1
  C  782  1  0.58300500  0.67972500  0.17075500  1
  C  783  1  0.61864700  0.68512000  0.16016900  1
  C  784  1  0.61939000  0.69056900  0.13792100  1
  C  785  1  0.58277800  0.68973600  0.12688900  1
  C  786  1  0.43295000  0.68904400  0.12739700  1
  C  787  1  0.39658900  0.68973300  0.13867200  1
  C  788  1  0.39797100  0.68444800  0.16095000  1
  C  789  1  0.43397900  0.67933300  0.17130900  1
  C  802  1  0.50785200  0.68814800  0.12551200  1
  C  803  1  0.50854200  0.67666000  0.17190400  1
  C  806  1  0.50556500  0.70259300  0.07998600  1
  C  809  1  0.65326400  0.69792100  0.12687100  1
  C  810  1  0.50912600  0.76465600  0.15054200  1
  C  811  1  0.36236700  0.69678400  0.12775100  1
  C  815  1  0.51124500  0.61078800  0.10068600  1
  C  817  1  0.00743500  0.76479100  0.20177100  1
  C  818  1  0.01331900  0.75969800  0.22390800  1
  C  819  1  0.01304800  0.77609000  0.24026300  1
  C  820  1  0.00695800  0.79819700  0.23513400  1
  C  821  1  0.00108000  0.80312300  0.21293200  1
  C  822  1  0.00139600  0.78695900  0.19677800  1
  C  824  1  0.02525800  0.74901500  0.26730500  1
  C  825  1  0.02544700  0.73296300  0.25110100  1
  C  830  1  0.03154800  0.74369200  0.29030500  1
  C  836  1  0.00798800  0.33390000  0.69963200  1
  C  837  1  0.01365000  0.33899300  0.67747800  1
  C  838  1  0.01333500  0.32258800  0.66114000  1
  C  839  1  0.00747000  0.30047000  0.66631200  1
  C  840  1  0.00209200  0.29552900  0.68855100  1
  C  841  1  0.00241600  0.31171900  0.70469600  1
  C  843  1  0.02517300  0.34966900  0.63405200  1
  C  844  1  0.02542000  0.36573100  0.65024700  1
  C  849  1  0.03128800  0.35499100  0.61103600  1
  C  855  1  0.00764500  0.79827600  0.66607600  1
  C  856  1  0.01343300  0.77613200  0.66098100  1
  C  857  1  0.01318000  0.75978200  0.67737800  1
  C  858  1  0.00721900  0.76492700  0.69949400  1
  C  859  1  0.00154900  0.78714500  0.70442800  1
  C  860  1  0.00182300  0.80329500  0.68825400  1
  C  862  1  0.02522800  0.73272300  0.65029700  1
  C  863  1  0.02540500  0.74892400  0.63424000  1
  C  868  1  0.03146700  0.70972000  0.64497300  1
  C  874  1  0.00746700  0.30049100  0.23519500  1
  C  875  1  0.01331200  0.32263300  0.24028800  1
  C  876  1  0.01301600  0.33898700  0.22389600  1
  C  877  1  0.00695800  0.33385200  0.20178600  1
  C  878  1  0.00117500  0.31164100  0.19686000  1
  C  879  1  0.00151400  0.29548700  0.21302600  1
  C  881  1  0.02517400  0.36603500  0.25097000  1
  C  882  1  0.02538500  0.34983100  0.26702400  1
  C  887  1  0.03143700  0.38903900  0.25629400  1
  C  893  1  0.50480400  0.26504300  0.70167900  1
  C  894  1  0.51202100  0.26000300  0.72369500  1
  C  895  1  0.51199100  0.27640500  0.74001400  1
  C  896  1  0.50476600  0.29840200  0.73490600  1
  C  897  1  0.49676800  0.30323600  0.71290000  1
  C  898  1  0.49677700  0.28703200  0.69676100  1
  C  900  1  0.52632100  0.24951400  0.76690900  1
  C  901  1  0.52634400  0.23344100  0.75072100  1
  C  906  1  0.53366400  0.24428100  0.78983400  1
  C  912  1  0.50497500  0.83366600  0.19957300  1
  C  913  1  0.51222700  0.83871600  0.17755900  1
  C  914  1  0.51214400  0.82233100  0.16122100  1
  C  915  1  0.50487800  0.80033500  0.16630400  1
  C  916  1  0.49691900  0.79548000  0.18831000  1
  C  917  1  0.49695100  0.81166700  0.20446200  1
  C  919  1  0.52646200  0.84924000  0.13434600  1
  C  920  1  0.52655600  0.86529600  0.15055000  1
  C  925  1  0.53374300  0.85449400  0.11141900  1
  C  931  1  0.50481000  0.29831300  0.16630700  1
  C  932  1  0.51202600  0.27629700  0.16126200  1
  C  933  1  0.51198500  0.25997200  0.17766000  1
  C  934  1  0.50475700  0.26507400  0.19965600  1
  C  935  1  0.49675400  0.28708000  0.20449600  1
  C  936  1  0.49677700  0.30322300  0.18829700  1
  C  938  1  0.52631500  0.23308300  0.15076500  1
  C  939  1  0.52635600  0.24927500  0.13469600  1
  C  944  1  0.53364900  0.21015700  0.14552700  1
  C  950  1  0.50482800  0.80042400  0.73496300  1
  C  951  1  0.51204400  0.82244100  0.74000200  1
  C  952  1  0.51201200  0.83876000  0.72359900  1
  C  953  1  0.50477500  0.83365300  0.70160600  1
  C  954  1  0.49679500  0.81164400  0.69677100  1
  C  955  1  0.49680400  0.79550600  0.71297500  1
  C  957  1  0.52634700  0.86565600  0.75048700  1
  C  958  1  0.52637400  0.84946900  0.76656200  1
  C  963  1  0.53369000  0.88858200  0.75571900  1
  C  969  1  0.79531200  0.72500600  0.10981000  1
  C  970  1  0.76018800  0.73734600  0.10851800  1
  C  971  1  0.72359700  0.72911700  0.11647100  1
  C  972  1  0.72114400  0.70830200  0.12608900  1
  C  973  1  0.75647100  0.69631200  0.12783600  1
  C  974  1  0.79261200  0.70437100  0.11975900  1
  C  976  1  0.69173300  0.76227600  0.10624500  1
  C  977  1  0.72790300  0.77021200  0.09831200  1
  C  982  1  0.65527100  0.77522600  0.10525400  1
  C  988  1  0.79527600  0.37376000  0.79144400  1
  C  989  1  0.76015900  0.36142100  0.79273000  1
  C  990  1  0.72356700  0.36964800  0.78477100  1
  C  991  1  0.72111700  0.39046500  0.77515500  1
  C  992  1  0.75644100  0.40245800  0.77342200  1
  C  993  1  0.79258200  0.39439300  0.78149300  1
  C  995  1  0.69171000  0.33648800  0.79499100  1
  C  996  1  0.72787700  0.32855300  0.80292800  1
  C  1001  1  0.65525100  0.32353800  0.79597600  1
  C  1007  1  0.79529400  0.89017700  0.62626100  1
  C  1008  1  0.76017000  0.89147500  0.63859600  1
  C  1009  1  0.72357900  0.88352000  0.63036600  1
  C  1010  1  0.72113200  0.87389300  0.60955700  1
  C  1011  1  0.75646500  0.87214100  0.59756900  1
  C  1012  1  0.79260000  0.88022600  0.60562800  1
  C  1014  1  0.69171000  0.89375900  0.66351800  1
  C  1015  1  0.72787700  0.90169400  0.67145300  1
  C  1020  1  0.65524500  0.89475500  0.67646500  1
  C  1026  1  0.79527000  0.20852300  0.27499900  1
  C  1027  1  0.76014400  0.20723900  0.26266200  1
  C  1028  1  0.72355200  0.21519000  0.27089700  1
  C  1029  1  0.72109400  0.22479300  0.29171800  1
  C  1030  1  0.75644100  0.22656800  0.30368800  1
  C  1031  1  0.79257900  0.21849200  0.29562400  1
  C  1033  1  0.69168900  0.20497600  0.23773600  1
  C  1034  1  0.72785600  0.19704600  0.22979600  1
  C  1039  1  0.65522100  0.20399000  0.22479000  1
  C  1045  1  0.22066100  0.72407300  0.79057300  1
  C  1046  1  0.25583900  0.73633800  0.79208700  1
  C  1047  1  0.29240000  0.72818600  0.78401900  1
  C  1048  1  0.29476600  0.70753300  0.77405700  1
  C  1049  1  0.25939500  0.69561800  0.77210100  1
  C  1050  1  0.22327900  0.70359700  0.78029600  1
  C  1052  1  0.32442500  0.76111100  0.79482200  1
  C  1053  1  0.28828400  0.76897800  0.80285800  1
  C  1058  1  0.36096400  0.77397500  0.79605400  1
  C  1064  1  0.22061400  0.37465600  0.11070700  1
  C  1065  1  0.25579200  0.36239100  0.10918600  1
  C  1066  1  0.29235700  0.37054400  0.11724600  1
  C  1067  1  0.29473000  0.39120500  0.12719100  1
  C  1068  1  0.25936500  0.40312900  0.12913800  1
  C  1069  1  0.22324400  0.39514800  0.12095600  1
  C  1071  1  0.32437800  0.33761300  0.10645200  1
  C  1072  1  0.28823200  0.32974700  0.09842300  1
  C  1077  1  0.36091400  0.32474600  0.10522100  1
  C  1083  1  0.22067100  0.88933000  0.27593700  1
  C  1084  1  0.25584600  0.89082800  0.26366700  1
  C  1085  1  0.29241100  0.88277100  0.27182500  1
  C  1086  1  0.29478800  0.87284800  0.29249800  1
  C  1087  1  0.25941200  0.87088700  0.30440900  1
  C  1088  1  0.22329200  0.87906600  0.29642000  1
  C  1090  1  0.32443100  0.89353100  0.23888600  1
  C  1091  1  0.28828400  0.90155600  0.23101000  1
  C  1096  1  0.36096400  0.89474900  0.22601600  1
  C  1102  1  0.22064100  0.20942000  0.62533400  1
  C  1103  1  0.25581900  0.20791700  0.63760000  1
  C  1104  1  0.29238000  0.21597900  0.62944400  1
  C  1105  1  0.29474800  0.22592000  0.60878000  1
  C  1106  1  0.25936700  0.22789000  0.59687400  1
  C  1107  1  0.22325300  0.21970100  0.60485800  1
  C  1109  1  0.32440500  0.20520200  0.66237800  1
  C  1110  1  0.28826600  0.19716700  0.67024700  1
  C  1115  1  0.36094000  0.20398200  0.67524600  1
  C  1121  1  0.22063500  0.37462200  0.79047000  1
  C  1122  1  0.25583200  0.36237500  0.79198600  1
  C  1123  1  0.29239800  0.37056500  0.78396700  1
  C  1124  1  0.29476200  0.39125200  0.77407600  1
  C  1125  1  0.25936700  0.40314800  0.77210900  1
  C  1126  1  0.22324400  0.39513000  0.78025000  1
  C  1128  1  0.32445200  0.33762500  0.79470300  1
  C  1129  1  0.28830300  0.32972100  0.80269200  1
  C  1134  1  0.36100800  0.32477300  0.79592700  1
  C  1140  1  0.22066400  0.72412200  0.11078700  1
  C  1141  1  0.25585600  0.73637400  0.10926600  1
  C  1142  1  0.29242100  0.72819800  0.11730400  1
  C  1143  1  0.29478000  0.70752500  0.12722800  1
  C  1144  1  0.25940200  0.69561500  0.12917900  1
  C  1145  1  0.22327700  0.70362700  0.12103100  1
  C  1147  1  0.32447000  0.76112200  0.10652700  1
  C  1148  1  0.28832400  0.76901300  0.09852000  1
  C  1153  1  0.36102300  0.77397500  0.10529200  1
  C  1159  1  0.22062700  0.20952500  0.27587800  1
  C  1160  1  0.25582200  0.20800200  0.26362900  1
  C  1161  1  0.29238500  0.21603900  0.27180700  1
  C  1162  1  0.29473700  0.22596700  0.29247600  1
  C  1163  1  0.25935500  0.22792400  0.30438200  1
  C  1164  1  0.22323800  0.21976100  0.29637700  1
  C  1166  1  0.32444300  0.20525800  0.23888400  1
  C  1167  1  0.28829800  0.19725100  0.23099200  1
  C  1172  1  0.36099600  0.20402200  0.22603400  1
  C  1178  1  0.22064800  0.88921300  0.62538300  1
  C  1179  1  0.25584500  0.89073800  0.63763000  1
  C  1180  1  0.29241200  0.88271300  0.62944400  1
  C  1181  1  0.29477600  0.87280800  0.60876200  1
  C  1182  1  0.25938000  0.87082900  0.59687200  1
  C  1183  1  0.22325600  0.87897700  0.60488500  1
  C  1185  1  0.32447000  0.89347500  0.66237200  1
  C  1186  1  0.28831900  0.90147000  0.67027100  1
  C  1191  1  0.36102600  0.89471000  0.67522000  1
  C  1197  1  0.79529400  0.37373700  0.10978200  1
  C  1198  1  0.76018500  0.36138700  0.10849300  1
  C  1199  1  0.72359700  0.36959200  0.11647400  1
  C  1200  1  0.72113500  0.39038900  0.12613100  1
  C  1201  1  0.75645600  0.40238300  0.12788400  1
  C  1202  1  0.79259100  0.39435000  0.11977400  1
  C  1204  1  0.69176000  0.33643900  0.10621100  1
  C  1205  1  0.72792400  0.32852700  0.09825100  1
  C  1210  1  0.65531000  0.32348100  0.10521700  1
  C  1216  1  0.79533800  0.72500900  0.79144100  1
  C  1217  1  0.76022600  0.73735500  0.79274400  1
  C  1218  1  0.72363200  0.72914600  0.78477300  1
  C  1219  1  0.72116700  0.70834200  0.77513200  1
  C  1220  1  0.75648600  0.69634300  0.77338300  1
  C  1221  1  0.79262600  0.70438200  0.78147700  1
  C  1223  1  0.69179200  0.76230000  0.79503100  1
  C  1224  1  0.72796200  0.77021700  0.80298300  1
  C  1229  1  0.65533900  0.77525700  0.79603000  1
  C  1235  1  0.79531500  0.20852600  0.62626000  1
  C  1236  1  0.76020300  0.20723400  0.63860700  1
  C  1237  1  0.72361100  0.21520600  0.63039500  1
  C  1238  1  0.72114100  0.22483800  0.60958600  1
  C  1239  1  0.75647700  0.22662100  0.59760900  1
  C  1240  1  0.79261700  0.21852300  0.60565000  1
  C  1242  1  0.69176900  0.20495300  0.66354800  1
  C  1243  1  0.72793600  0.19700400  0.67146900  1
  C  1248  1  0.65531300  0.20395700  0.67650200  1
  C  1254  1  0.79535000  0.89021900  0.27499500  1
  C  1255  1  0.76023800  0.89151900  0.26264700  1
  C  1256  1  0.72364400  0.88354800  0.27085400  1
  C  1257  1  0.72117300  0.87390000  0.29165400  1
  C  1258  1  0.75650300  0.87211500  0.30363700  1
  C  1259  1  0.79264400  0.88021700  0.29560300  1
  C  1261  1  0.69181000  0.89381600  0.23770200  1
  C  1262  1  0.72797700  0.90177100  0.22979000  1
  C  1267  1  0.65535700  0.89481500  0.22474400  1
  C  1273  1  0.00409600  0.68917400  0.97424100  1
  C  1274  1  0.03372700  0.70012500  0.96221300  1
  C  1275  1  0.03371400  0.70004200  0.93901000  1
  C  1276  1  0.00406100  0.68905400  0.92703800  1
  C  1277  1  0.97534900  0.67778300  0.93922100  1
  C  1278  1  0.97537200  0.67783500  0.96212400  1
  C  1280  1  0.09401400  0.72040500  0.93906400  1
  C  1281  1  0.09374600  0.72046400  0.96186600  1
  C  1286  1  0.12577800  0.73085100  0.92656600  1
  C  1292  1  0.00415800  0.40957500  0.92698200  1
  C  1293  1  0.03373300  0.39858800  0.93902100  1
  C  1294  1  0.03371500  0.39868700  0.96222400  1
  C  1295  1  0.00411100  0.40972900  0.97418500  1
  C  1296  1  0.97536600  0.42096600  0.96199200  1
  C  1297  1  0.97540500  0.42090300  0.93908900  1
  C  1299  1  0.09393800  0.37825200  0.96219000  1
  C  1300  1  0.09367800  0.37818100  0.93938600  1
  C  1305  1  0.12565900  0.36777600  0.97469500  1
  C  1311  1  0.00408400  0.02576300  0.59044700  1
  C  1312  1  0.03371300  0.03779200  0.60140200  1
  C  1313  1  0.03371100  0.06099500  0.60131300  1
  C  1314  1  0.00409900  0.07296800  0.59029200  1
  C  1315  1  0.97536300  0.06078800  0.57903600  1
  C  1316  1  0.97537500  0.03788300  0.57910100  1
  C  1318  1  0.09397400  0.06093700  0.62171000  1
  C  1319  1  0.09368900  0.03813200  0.62177900  1
  C  1324  1  0.12573000  0.07343000  0.63216500  1
  C  1330  1  0.00406100  0.07299400  0.31081000  1
  C  1331  1  0.03370500  0.06096400  0.29986900  1
  C  1332  1  0.03370000  0.03776300  0.29995600  1
  C  1333  1  0.00404000  0.02579100  0.31094000  1
  C  1334  1  0.97531900  0.03797500  0.32220700  1
  C  1335  1  0.97534000  0.06087700  0.32215000  1
  C  1337  1  0.09401000  0.03781500  0.27960100  1
  C  1338  1  0.09373700  0.06061900  0.27954100  1
  C  1343  1  0.12578200  0.02531800  0.26916000  1
  C  1349  1  0.50407300  0.18891300  0.47424300  1
  C  1350  1  0.53380800  0.19978700  0.46221800  1
  C  1351  1  0.53379300  0.19971300  0.43901700  1
  C  1352  1  0.50404100  0.18880300  0.42704600  1
  C  1353  1  0.47515500  0.17766300  0.43922300  1
  C  1354  1  0.47517500  0.17771100  0.46212400  1
  C  1356  1  0.59428300  0.21990600  0.43907200  1
  C  1357  1  0.59401800  0.21995900  0.46187600  1
  C  1362  1  0.62614100  0.23026500  0.42657700  1
  C  1368  1  0.50413500  0.90983700  0.42702900  1
  C  1369  1  0.53387900  0.89896300  0.43904800  1
  C  1370  1  0.53386100  0.89903100  0.46224800  1
  C  1371  1  0.50409400  0.90992700  0.47422000  1
  C  1372  1  0.47522000  0.92108500  0.46204800  1
  C  1373  1  0.47524900  0.92104800  0.43914700  1
  C  1375  1  0.59436000  0.87884200  0.46218800  1
  C  1376  1  0.59409200  0.87879400  0.43938500  1
  C  1381  1  0.62622000  0.86848200  0.47468200  1
  C  1387  1  0.50408200  0.52574600  0.09015900  1
  C  1388  1  0.53382900  0.53776500  0.10103100  1
  C  1389  1  0.53380500  0.56096600  0.10096600  1
  C  1390  1  0.50400800  0.57294200  0.09009900  1
  C  1391  1  0.47515800  0.56077100  0.07892500  1
  C  1392  1  0.47518400  0.53786700  0.07896300  1
  C  1394  1  0.59432700  0.56090600  0.12113300  1
  C  1395  1  0.59407100  0.53810200  0.12117400  1
  C  1400  1  0.62619400  0.57340000  0.13148700  1
  C  1406  1  0.50409100  0.57299000  0.81108800  1
  C  1407  1  0.53384100  0.56096600  0.80022000  1
  C  1408  1  0.53381100  0.53776500  0.80028000  1
  C  1409  1  0.50401700  0.52579200  0.81115300  1
  C  1410  1  0.47515800  0.53796800  0.82232000  1
  C  1411  1  0.47518700  0.56086900  0.82228200  1
  C  1413  1  0.59433900  0.53782400  0.78012100  1
  C  1414  1  0.59407400  0.56062600  0.78007200  1
  C  1419  1  0.62621400  0.52532700  0.76977500  1
  N  823  1  0.01908100  0.76984600  0.26112100  1
  N  826  1  0.01955100  0.73887300  0.23021500  1
  N  834  1  0.00906900  0.74876100  0.18673900  1
  N  835  1  0.00786100  0.81317400  0.25124600  1
  N  842  1  0.01915800  0.32883000  0.64026200  1
  N  845  1  0.01972100  0.35982600  0.67115000  1
  N  853  1  0.00991300  0.34988100  0.71468700  1
  N  854  1  0.00867500  0.28545900  0.65023600  1
  N  861  1  0.01913900  0.73891700  0.67113400  1
  N  864  1  0.01958000  0.76981700  0.64015100  1
  N  872  1  0.00939800  0.81332200  0.65006600  1
  N  873  1  0.00832300  0.74883600  0.71448900  1
  N  880  1  0.01901300  0.35984800  0.23013900  1
  N  883  1  0.01952600  0.32894200  0.26111400  1
  N  891  1  0.00919700  0.28545100  0.25121200  1
  N  892  1  0.00788600  0.34996100  0.18680700  1
  N  899  1  0.51915700  0.27027300  0.76079400  1
  N  902  1  0.51925800  0.23925100  0.72991700  1
  N  910  1  0.50409400  0.24893700  0.68677000  1
  N  911  1  0.50412900  0.31333700  0.75098700  1
  N  918  1  0.51928100  0.82848100  0.14044300  1
  N  921  1  0.51949300  0.85946900  0.17135100  1
  N  929  1  0.50442400  0.84977800  0.21449100  1
  N  930  1  0.50424400  0.78540600  0.15021600  1
  N  937  1  0.51914800  0.23919300  0.17152300  1
  N  940  1  0.51927200  0.27007700  0.14051100  1
  N  948  1  0.50412900  0.31322400  0.15020100  1
  N  949  1  0.50411200  0.24899200  0.21459000  1
  N  956  1  0.51918100  0.85954000  0.72973100  1
  N  959  1  0.51928400  0.82866500  0.76075200  1
  N  967  1  0.50411400  0.78551600  0.75106900  1
  N  968  1  0.50415600  0.84973200  0.68666700  1
  N  975  1  0.69131500  0.74210000  0.11501000  1
  N  978  1  0.76047100  0.75757100  0.09978800  1
  N  986  1  0.82976900  0.73385800  0.10324200  1
  N  987  1  0.68793900  0.70039000  0.13519000  1
  N  994  1  0.69129100  0.35666300  0.78622700  1
  N  997  1  0.76044200  0.34119300  0.80145800  1
  N  1005  1  0.82972800  0.36490100  0.79801300  1
  N  1006  1  0.68791300  0.39837400  0.76605400  1
  N  1013  1  0.69129700  0.88498700  0.64334700  1
  N  1016  1  0.76044800  0.90021200  0.65881800  1
  N  1024  1  0.82975100  0.89674300  0.63511400  1
  N  1025  1  0.68793000  0.86478700  0.60164700  1
  N  1032  1  0.69127000  0.21373200  0.25791400  1
  N  1035  1  0.76042400  0.19851700  0.24243400  1
  N  1043  1  0.82973100  0.20197400  0.26613800  1
  N  1044  1  0.68790100  0.23391700  0.29961800  1
  N  1051  1  0.32475300  0.74108400  0.78572200  1
  N  1054  1  0.25565300  0.75641800  0.80115200  1
  N  1062  1  0.18629300  0.73290700  0.79729800  1
  N  1063  1  0.32803400  0.69977000  0.76489900  1
  N  1070  1  0.32471100  0.35764300  0.11554400  1
  N  1073  1  0.25560100  0.34230800  0.10013000  1
  N  1081  1  0.18624500  0.36583600  0.10396500  1
  N  1082  1  0.32799200  0.39897800  0.13634500  1
  N  1089  1  0.32476100  0.88445900  0.25892300  1
  N  1092  1  0.25565600  0.89986700  0.24357500  1
  N  1100  1  0.18630200  0.89605200  0.26710200  1
  N  1101  1  0.32804200  0.86368900  0.30027800  1
  N  1108  1  0.32473200  0.21428600  0.64234500  1
  N  1111  1  0.25563400  0.19886600  0.65768600  1
  N  1119  1  0.18627200  0.20270800  0.63417500  1
  N  1120  1  0.32799800  0.23508800  0.60101000  1
  N  1127  1  0.32477000  0.35767700  0.78565900  1
  N  1130  1  0.25565500  0.34226900  0.80099500  1
  N  1138  1  0.18625800  0.36576700  0.79714600  1
  N  1139  1  0.32801000  0.39904900  0.76492900  1
  N  1146  1  0.32478800  0.74108400  0.11560000  1
  N  1149  1  0.25567900  0.75646700  0.10022700  1
  N  1157  1  0.18629700  0.73296800  0.10407800  1
  N  1158  1  0.32805100  0.69973300  0.13635600  1
  N  1165  1  0.32475600  0.21433300  0.25892100  1
  N  1168  1  0.25565000  0.19896100  0.24353800  1
  N  1176  1  0.18625800  0.20282100  0.26703300  1
  N  1177  1  0.32799800  0.23510400  0.30026900  1
  N  1184  1  0.32478500  0.88441600  0.64232800  1
  N  1187  1  0.25567000  0.89976300  0.65772700  1
  N  1195  1  0.18627600  0.89590900  0.63423300  1
  N  1196  1  0.32802800  0.86365900  0.60097400  1
  N  1203  1  0.69132900  0.35660000  0.11500800  1
  N  1206  1  0.76048000  0.34117400  0.09973200  1
  N  1214  1  0.82975100  0.36489100  0.10320100  1
  N  1215  1  0.68792500  0.39827500  0.13525000  1
  N  1222  1  0.69136200  0.74213600  0.78624300  1
  N  1225  1  0.76051800  0.75757100  0.80149700  1
  N  1233  1  0.82979600  0.73384500  0.79803600  1
  N  1234  1  0.68796300  0.70044700  0.76601600  1
  N  1241  1  0.69133800  0.21373900  0.64338200  1
  N  1244  1  0.76049200  0.19848400  0.65882400  1
  N  1252  1  0.82977200  0.20195100  0.63511200  1
  N  1253  1  0.68794500  0.23397700  0.60170600  1
  N  1260  1  0.69137700  0.88502100  0.25786300  1
  N  1263  1  0.76053300  0.90028000  0.24243400  1
  N  1271  1  0.82980500  0.89679700  0.26614800  1
  N  1272  1  0.68797500  0.86476800  0.29953500  1
  N  1279  1  0.06404400  0.71011000  0.92872400  1
  N  1282  1  0.06400800  0.71030600  0.97243400  1
  N  1290  1  0.00322400  0.68698200  0.99609300  1
  N  1291  1  0.00317000  0.68680200  0.90519200  1
  N  1298  1  0.06400600  0.38859100  0.97251800  1
  N  1301  1  0.06398200  0.38836700  0.92881000  1
  N  1309  1  0.00326800  0.41170900  0.90512200  1
  N  1310  1  0.00316500  0.41195000  0.99603700  1
  N  1317  1  0.06403100  0.07127900  0.61139100  1
  N  1320  1  0.06396500  0.02756900  0.61160700  1
  N  1328  1  0.00321200  0.00390800  0.58826500  1
  N  1329  1  0.00318200  0.09482100  0.58806100  1
  N  1336  1  0.06403700  0.02747600  0.28989400  1
  N  1339  1  0.06398900  0.07118600  0.28969100  1
  N  1347  1  0.00319400  0.09484700  0.31300200  1
  N  1348  1  0.00315000  0.00394700  0.31319500  1
  N  1355  1  0.56421800  0.20969500  0.42873500  1
  N  1358  1  0.56418600  0.20988100  0.47244100  1
  N  1366  1  0.50311200  0.18679500  0.49610200  1
  N  1367  1  0.50305600  0.18663700  0.40519200  1
  N  1374  1  0.56428900  0.88904600  0.47252900  1
  N  1377  1  0.56426200  0.88887600  0.42882300  1
  N  1385  1  0.50318900  0.91198100  0.40517300  1
  N  1386  1  0.50310600  0.91210100  0.49607400  1
  N  1393  1  0.56423900  0.57124700  0.11094400  1
  N  1396  1  0.56422700  0.52754000  0.11110300  1
  N  1404  1  0.50311800  0.50388900  0.08803500  1
  N  1405  1  0.50306500  0.59479300  0.08790000  1
  N  1412  1  0.56425100  0.52748300  0.79030800  1
  N  1415  1  0.56423600  0.57119000  0.79014600  1
  N  1423  1  0.50313000  0.59484800  0.81321200  1
  N  1424  1  0.50305300  0.50393900  0.81334500  1
