# generated using pymatgen
data_H19C30N4O
_symmetry_space_group_name_H-M   'P 1'
_cell_length_a   53.67990000
_cell_length_b   61.54990000
_cell_length_c   61.54700000
_cell_angle_alpha   89.97280000
_cell_angle_beta   90.06670000
_cell_angle_gamma   90.03330000
_symmetry_Int_Tables_number   1
_chemical_formula_structural   H19C30N4O
_chemical_formula_sum   'H1520 C2400 N320 O80'
_cell_volume   203350.62999730
_cell_formula_units_Z   80
loop_
 _symmetry_equiv_pos_site_id
 _symmetry_equiv_pos_as_xyz
  1  'x, y, z'
loop_
 _atom_site_type_symbol
 _atom_site_label
 _atom_site_symmetry_multiplicity
 _atom_site_fract_x
 _atom_site_fract_y
 _atom_site_fract_z
 _atom_site_occupancy
  H  12  1  0.04989500  0.94149400  0.95210600  1
  H  13  1  0.99825500  0.94399200  0.90755600  1
  H  14  1  0.01723800  0.92235300  0.87987100  1
  H  15  1  0.08631600  0.95298400  0.89194100  1
  H  16  1  0.06707800  0.97495400  0.91941000  1
  H  18  1  0.05397800  0.92203100  0.85283900  1
  H  48  1  0.13431000  0.83471500  0.75624400  1
  H  49  1  0.16206900  0.81066400  0.73801900  1
  H  50  1  0.18478700  0.83920200  0.80882700  1
  H  51  1  0.21255700  0.81496400  0.79038000  1
  H  52  1  0.22062200  0.83679400  0.73768300  1
  H  53  1  0.25332700  0.83722600  0.70797600  1
  H  54  1  0.23806800  0.77398300  0.72287700  1
  H  55  1  0.23905900  0.73578500  0.72324300  1
  H  56  1  0.17058200  0.77471200  0.78119100  1
  H  57  1  0.17111000  0.73355500  0.78116900  1
  H  58  1  0.16715500  0.69314700  0.73625400  1
  H  59  1  0.14014300  0.66843300  0.75452800  1
  H  60  1  0.21138200  0.69841400  0.79269200  1
  H  61  1  0.18423200  0.67374700  0.81125400  1
  H  62  1  0.22206700  0.67256600  0.73682000  1
  H  63  1  0.25416700  0.67297000  0.70658600  1
  H  65  1  0.12323100  0.85576300  0.78737400  1
  H  71  1  0.13275300  0.91075100  0.86652200  1
  H  72  1  0.15772300  0.88829000  0.84335000  1
  H  74  1  0.09270400  0.86378900  0.81387200  1
  H  76  1  0.05605500  0.87513800  0.84791100  1
  H  88  1  0.31439600  0.69506100  0.69691200  1
  H  89  1  0.33395100  0.67055600  0.67196900  1
  H  90  1  0.31672900  0.81053900  0.69366400  1
  H  92  1  0.12698900  0.65064700  0.78719300  1
  H  93  1  0.09561800  0.64354600  0.81346100  1
  H  102  1  0.30049300  0.77618600  0.66042300  1
  H  103  1  0.30091300  0.73502600  0.66034800  1
  H  104  1  0.25147300  0.69866000  0.65598200  1
  H  105  1  0.24798200  0.81831100  0.66130900  1
  H  106  1  0.33529800  0.83702300  0.67011400  1
  H  111  1  0.07080600  0.62084500  0.83588200  1
  H  116  1  0.26625000  0.84481600  0.63795600  1
  H  121  1  0.05254600  0.60282700  0.86433200  1
  H  124  1  0.17371800  0.61074400  0.83603800  1
  H  125  1  0.27078900  0.67432700  0.63103700  1
  H  126  1  0.30056800  0.86934200  0.63045000  1
  H  129  1  0.38342000  0.86151100  0.62902700  1
  H  130  1  0.42168000  0.89385600  0.61674400  1
  H  131  1  0.30561400  0.65268300  0.62013000  1
  H  132  1  0.38383000  0.65276000  0.62499900  1
  H  135  1  0.01981400  0.59577700  0.89031100  1
  H  137  1  0.13524900  0.59885000  0.86835100  1
  H  141  1  0.31860400  0.89343200  0.60712700  1
  H  148  1  0.00102300  0.57177300  0.91594900  1
  H  157  1  0.00408400  0.98769100  0.05539900  1
  H  158  1  0.05031200  0.94136100  0.99326000  1
  H  159  1  0.06370200  0.97807800  0.03375000  1
  H  160  1  0.08347700  0.95266300  0.05769300  1
  H  161  1  0.00129700  0.93670400  0.02884700  1
  H  162  1  0.02083000  0.91130100  0.05265100  1
  H  164  1  0.05778200  0.89876400  0.07108200  1
  H  184  1  0.38395100  0.97261100  0.55356400  1
  H  185  1  0.43480300  0.92035300  0.55800500  1
  H  186  1  0.46233600  0.93894800  0.53364200  1
  H  187  1  0.41974500  0.94843700  0.49336300  1
  H  188  1  0.42024000  0.94864400  0.45220500  1
  H  189  1  0.38974700  0.97593900  0.38685000  1
  H  190  1  0.46021100  0.93698400  0.41714000  1
  H  191  1  0.43290800  0.91875900  0.39233300  1
  H  194  1  0.37634500  0.94350800  0.36859100  1
  H  195  1  0.37365500  0.94181800  0.57543400  1
  H  244  1  0.34543000  0.83366300  0.25738300  1
  H  245  1  0.31730600  0.81008600  0.23884600  1
  H  246  1  0.29367300  0.84025600  0.30868200  1
  H  247  1  0.26554900  0.81650500  0.28993700  1
  H  248  1  0.25819600  0.83741100  0.23783800  1
  H  249  1  0.22537200  0.83788900  0.20816000  1
  H  250  1  0.24025100  0.77462500  0.22329100  1
  H  251  1  0.23965900  0.73639800  0.22340900  1
  H  252  1  0.30799900  0.77533400  0.28153800  1
  H  253  1  0.30760600  0.73418300  0.28144300  1
  H  254  1  0.31140400  0.69376400  0.23591900  1
  H  255  1  0.33861600  0.66889100  0.25376600  1
  H  256  1  0.26811600  0.69878100  0.29282900  1
  H  257  1  0.29546900  0.67395800  0.31096200  1
  H  258  1  0.25678600  0.67316200  0.23677000  1
  H  259  1  0.22468300  0.67362000  0.20647400  1
  H  260  1  0.17785500  0.77683600  0.16072300  1
  H  261  1  0.17760700  0.73568900  0.16053000  1
  H  262  1  0.16468400  0.69519300  0.19687400  1
  H  263  1  0.14496400  0.67132800  0.17136100  1
  H  264  1  0.22715700  0.70019600  0.15568200  1
  H  265  1  0.20768000  0.67646100  0.13018200  1
  H  266  1  0.23046900  0.81886700  0.16152700  1
  H  267  1  0.21221300  0.84517400  0.13792700  1
  H  268  1  0.14318300  0.83757000  0.17002900  1
  H  269  1  0.16173900  0.81129400  0.19381000  1
  H  272  1  0.35718100  0.85309200  0.28960300  1
  H  273  1  0.17775800  0.86936400  0.12971100  1
  H  279  1  0.34435000  0.91732300  0.36064400  1
  H  280  1  0.32008500  0.89430800  0.33752200  1
  H  282  1  0.38517100  0.86096900  0.31888700  1
  H  284  1  0.42360500  0.89271000  0.33098600  1
  H  292  1  0.13339700  0.91499600  0.08290000  1
  H  293  1  0.15896200  0.89210800  0.10483400  1
  H  295  1  0.09487400  0.86368000  0.13236900  1
  H  297  1  0.05765200  0.89864700  0.12049800  1
  H  302  1  0.34306400  0.91596800  0.58434900  1
  H  306  1  0.17075200  0.65807700  0.11751000  1
  H  307  1  0.35203200  0.65046600  0.28608900  1
  H  308  1  0.38407000  0.64239700  0.31215300  1
  H  310  1  0.09509800  0.64634000  0.13351100  1
  H  312  1  0.40829400  0.63015600  0.60150500  1
  H  322  1  0.06954300  0.62450500  0.11051900  1
  H  325  1  0.30583600  0.61378600  0.60175500  1
  H  327  1  0.40841800  0.61915100  0.33496300  1
  H  329  1  0.30491400  0.61237500  0.33677200  1
  H  333  1  0.17081300  0.60865700  0.11733000  1
  H  334  1  0.43486400  0.59013500  0.38904300  1
  H  335  1  0.43330100  0.59288200  0.55427400  1
  H  336  1  0.01629000  0.59153200  0.06341600  1
  H  338  1  0.05074400  0.59988900  0.08753100  1
  H  339  1  0.34565000  0.59042000  0.59027000  1
  H  341  1  0.34345600  0.60014100  0.36831300  1
  H  343  1  0.13364100  0.59693500  0.08222900  1
  H  347  1  0.46305000  0.57131900  0.41267600  1
  H  348  1  0.46034300  0.57466200  0.52929300  1
  H  351  1  0.37150500  0.57083400  0.37593800  1
  H  370  1  0.88439300  0.03798500  0.89351900  1
  H  371  1  0.91195300  0.01964200  0.91773600  1
  H  372  1  0.93508300  0.09043300  0.88938300  1
  H  373  1  0.96262500  0.07188500  0.91380500  1
  H  374  1  0.97118000  0.02005700  0.89172000  1
  H  375  1  0.00387000  0.99034800  0.89112600  1
  H  376  1  0.98726000  0.00369400  0.95444600  1
  H  377  1  0.92013500  0.06237900  0.95383700  1
  H  379  1  0.87407100  0.06877800  0.87164300  1
  H  410  1  0.66212300  0.19985300  0.70952400  1
  H  411  1  0.72057900  0.17380700  0.70972600  1
  H  412  1  0.75335100  0.17339600  0.73944200  1
  H  413  1  0.73803200  0.23663400  0.72456700  1
  H  414  1  0.73904000  0.27481700  0.72412300  1
  H  415  1  0.66716700  0.31741100  0.71113400  1
  H  416  1  0.72204100  0.33803000  0.71053500  1
  H  417  1  0.75416300  0.33764400  0.74081100  1
  H  418  1  0.80066300  0.23449100  0.78697600  1
  H  419  1  0.80105200  0.27565400  0.78703500  1
  H  420  1  0.81426700  0.31570500  0.75042600  1
  H  421  1  0.83384500  0.34025100  0.77537200  1
  H  422  1  0.75154000  0.31181300  0.79145500  1
  H  423  1  0.77088200  0.33618700  0.81640500  1
  H  424  1  0.74811400  0.19232300  0.78612400  1
  H  425  1  0.76643200  0.16581000  0.80945600  1
  H  426  1  0.83537900  0.17363100  0.77725600  1
  H  427  1  0.81675800  0.20012200  0.75373000  1
  H  430  1  0.80571300  0.35791300  0.82728700  1
  H  431  1  0.80075200  0.14125900  0.81688200  1
  H  457  1  0.98875200  0.50603600  0.95487200  1
  H  458  1  0.92079600  0.44804200  0.95277900  1
  H  459  1  0.91759500  0.49326400  0.91171500  1
  H  460  1  0.89072700  0.47535900  0.88660700  1
  H  461  1  0.96043000  0.43616700  0.91790400  1
  H  462  1  0.93340600  0.41797000  0.89282600  1
  H  463  1  0.97237200  0.49182100  0.89165800  1
  H  464  1  0.00469000  0.52190400  0.89200200  1
  H  465  1  0.05089700  0.56879700  0.95388800  1
  H  466  1  0.06533100  0.53241300  0.91527900  1
  H  467  1  0.08434300  0.55643100  0.88943800  1
  H  469  1  0.87834600  0.44349500  0.86722000  1
  H  475  1  0.88380300  0.35798700  0.82233700  1
  H  476  1  0.90828700  0.38062000  0.84586700  1
  H  478  1  0.84565700  0.42032500  0.85697200  1
  H  480  1  0.80582500  0.39693900  0.84542000  1
  H  488  1  0.84338100  0.09467000  0.86295900  1
  H  489  1  0.81885000  0.11720000  0.84020400  1
  H  491  1  0.88359800  0.14924100  0.81835200  1
  H  493  1  0.92190800  0.11692200  0.83061100  1
  H  508  1  0.63430600  0.17573000  0.69135300  1
  H  509  1  0.64014400  0.34215800  0.69289400  1
  H  516  1  0.71232600  0.19570500  0.65703800  1
  H  517  1  0.67039000  0.23582300  0.66624700  1
  H  518  1  0.67093600  0.27698100  0.66621500  1
  H  519  1  0.71121600  0.31219200  0.65467400  1
  H  522  1  0.62698500  0.36006300  0.66027700  1
  H  523  1  0.62317100  0.15457000  0.66026200  1
  H  524  1  0.68450500  0.17140600  0.63864800  1
  H  525  1  0.68405800  0.33688800  0.63615000  1
  H  526  1  0.59552600  0.36711000  0.63400200  1
  H  527  1  0.59251600  0.14693100  0.63356700  1
  H  536  1  0.57069700  0.38984000  0.61160400  1
  H  537  1  0.67364300  0.39983000  0.61139000  1
  H  540  1  0.65746400  0.12234300  0.60421700  1
  H  555  1  0.98866800  0.00446700  0.99265100  1
  H  556  1  0.92061400  0.06227500  0.99499300  1
  H  557  1  0.91729400  0.01706100  0.03567100  1
  H  558  1  0.89013100  0.03498900  0.06046500  1
  H  559  1  0.96042800  0.07406800  0.03012100  1
  H  560  1  0.93312300  0.09227800  0.05487100  1
  H  561  1  0.97207900  0.01801300  0.05593800  1
  H  563  1  0.87655300  0.06746900  0.07848200  1
  H  593  1  0.41150300  0.99100100  0.52941500  1
  H  594  1  0.47093000  0.99063700  0.55564400  1
  H  595  1  0.50362900  0.02037200  0.55629700  1
  H  596  1  0.48678700  0.00722500  0.49295400  1
  H  597  1  0.48848600  0.00637100  0.45474900  1
  H  598  1  0.41691700  0.99388600  0.41170700  1
  H  599  1  0.47174800  0.99296000  0.39143300  1
  H  600  1  0.50387100  0.02321900  0.39202900  1
  H  601  1  0.54969700  0.06929300  0.49548600  1
  H  602  1  0.55024300  0.06943900  0.45432600  1
  H  603  1  0.56347300  0.03268200  0.41364800  1
  H  604  1  0.58329200  0.05807000  0.38972100  1
  H  605  1  0.50133600  0.07426200  0.41869800  1
  H  606  1  0.52091700  0.09963900  0.39491700  1
  H  607  1  0.49796400  0.06685000  0.53978200  1
  H  608  1  0.51698800  0.08843300  0.56755400  1
  H  609  1  0.58594100  0.05758500  0.55576000  1
  H  610  1  0.56666600  0.03567800  0.52820800  1
  H  613  1  0.55779500  0.11205500  0.37637400  1
  H  614  1  0.55377500  0.08852900  0.59475800  1
  H  663  1  0.84563200  0.17707700  0.19006800  1
  H  664  1  0.81752000  0.20054000  0.20866100  1
  H  665  1  0.79375100  0.17046300  0.13876900  1
  H  666  1  0.76563500  0.19410600  0.15757500  1
  H  667  1  0.75827000  0.17319800  0.20966500  1
  H  668  1  0.72549800  0.17271600  0.23932500  1
  H  669  1  0.74057700  0.23597800  0.22434900  1
  H  670  1  0.73980500  0.27422800  0.22412500  1
  H  671  1  0.80812300  0.23532900  0.16608000  1
  H  672  1  0.80774700  0.27647600  0.16620800  1
  H  673  1  0.81162400  0.31695400  0.21167200  1
  H  674  1  0.83880300  0.34181300  0.19378100  1
  H  675  1  0.76820200  0.31179200  0.15476500  1
  H  676  1  0.79552300  0.33660000  0.13658800  1
  H  677  1  0.75703000  0.33746100  0.21083800  1
  H  678  1  0.72492100  0.33699800  0.24106600  1
  H  679  1  0.67810300  0.23373600  0.28674300  1
  H  680  1  0.67781000  0.27488300  0.28692000  1
  H  681  1  0.66486900  0.31545200  0.25060400  1
  H  682  1  0.64518300  0.33929600  0.27610500  1
  H  683  1  0.72734600  0.31042900  0.29189600  1
  H  684  1  0.70790500  0.33413500  0.31737700  1
  H  685  1  0.73067400  0.19164600  0.28599700  1
  H  686  1  0.71234100  0.16536900  0.30957000  1
  H  687  1  0.64330400  0.17311900  0.27740200  1
  H  688  1  0.66193500  0.19936400  0.25364800  1
  H  693  1  0.67109600  0.35260200  0.32998600  1
  H  694  1  0.85216800  0.36016800  0.16141900  1
  H  695  1  0.85739400  0.15786400  0.15774800  1
  H  696  1  0.67780100  0.14124900  0.31775300  1
  H  743  1  0.38355100  0.53832100  0.39479500  1
  H  744  1  0.41173600  0.51971400  0.41826400  1
  H  745  1  0.47086800  0.51903100  0.39146500  1
  H  746  1  0.50363900  0.48935400  0.39116600  1
  H  747  1  0.48824400  0.50433500  0.45434500  1
  H  748  1  0.48871100  0.50463400  0.49252300  1
  H  749  1  0.42048100  0.56248100  0.45323700  1
  H  750  1  0.42080300  0.56257700  0.49438600  1
  H  751  1  0.41770300  0.51745700  0.53570300  1
  H  752  1  0.39082700  0.53538200  0.56071500  1
  H  753  1  0.47240500  0.51894400  0.55570000  1
  H  754  1  0.50464600  0.48883000  0.55542600  1
  H  755  1  0.55054100  0.44178600  0.45254600  1
  H  756  1  0.55084100  0.44190000  0.49371400  1
  H  757  1  0.56524600  0.47827800  0.53222400  1
  H  758  1  0.58424600  0.45427300  0.55810500  1
  H  759  1  0.50084800  0.43895800  0.53153800  1
  H  760  1  0.51962600  0.41496400  0.55721800  1
  H  761  1  0.49819700  0.44275400  0.41009300  1
  H  762  1  0.51649400  0.41915300  0.38387300  1
  H  763  1  0.58567900  0.45098000  0.39194800  1
  H  764  1  0.56708100  0.47476400  0.41814000  1
  H  767  1  0.55237800  0.40796600  0.58326000  1
  H  768  1  0.37820600  0.56734100  0.57976500  1
  H  769  1  0.55103400  0.41065000  0.36004900  1
  H  789  1  0.88334900  0.47199800  0.05223700  1
  H  790  1  0.91148900  0.49064500  0.02880000  1
  H  791  1  0.93492900  0.42048300  0.05843800  1
  H  792  1  0.96307200  0.43933800  0.03482700  1
  H  793  1  0.97072300  0.49154900  0.05588300  1
  H  794  1  0.00350300  0.52125100  0.05625300  1
  H  795  1  0.98821900  0.50621100  0.99303900  1
  H  796  1  0.92044800  0.44802700  0.99393200  1
  H  797  1  0.05049100  0.56886400  0.99505700  1
  H  798  1  0.99806000  0.56791400  0.03711200  1
  H  799  1  0.08539800  0.55953600  0.05586200  1
  H  800  1  0.06687100  0.53574400  0.02958800  1
  H  802  1  0.87143000  0.43952300  0.07119300  1
  H  808  1  0.84462100  0.09349600  0.08668800  1
  H  809  1  0.82033600  0.11641400  0.10980700  1
  H  811  1  0.88537500  0.14984800  0.12862200  1
  H  813  1  0.92383300  0.11822900  0.11655300  1
  H  818  1  0.63509000  0.41177800  0.57909700  1
  H  826  1  0.63338200  0.09573500  0.36460600  1
  H  827  1  0.65897800  0.11855700  0.34265600  1
  H  829  1  0.59493000  0.14709900  0.31511500  1
  H  831  1  0.55760500  0.11222400  0.32699100  1
  H  836  1  0.63242800  0.09988800  0.58101300  1
  H  837  1  0.55582400  0.13555400  0.59942200  1
  H  844  1  0.88415800  0.36830200  0.13539900  1
  H  845  1  0.90846200  0.39151200  0.11254200  1
  H  847  1  0.84345200  0.41027500  0.07903100  1
  H  849  1  0.80495700  0.39808500  0.11056900  1
  H  857  1  0.59527300  0.36425000  0.31405400  1
  H  858  1  0.56978100  0.38610100  0.33700700  1
  H  860  1  0.63395000  0.41361700  0.36539600  1
  H  862  1  0.67105500  0.40192200  0.33037500  1
  H  876  1  0.86360600  0.94149400  0.95210600  1
  H  877  1  0.81196600  0.94399200  0.90755600  1
  H  878  1  0.83094900  0.92235300  0.87987100  1
  H  879  1  0.90002650  0.95298400  0.89194100  1
  H  880  1  0.88078900  0.97495400  0.91941000  1
  H  882  1  0.86768900  0.92203100  0.85283900  1
  H  912  1  0.94802050  0.83471500  0.75624400  1
  H  913  1  0.97577950  0.81066400  0.73801900  1
  H  914  1  0.99849753  0.83920200  0.80882700  1
  H  915  1  0.02626800  0.81496400  0.79038000  1
  H  916  1  0.03433300  0.83679400  0.73768300  1
  H  917  1  0.06703800  0.83722600  0.70797600  1
  H  918  1  0.05177900  0.77398300  0.72287700  1
  H  919  1  0.05277000  0.73578500  0.72324300  1
  H  920  1  0.98429250  0.77471200  0.78119100  1
  H  921  1  0.98482050  0.73355500  0.78116900  1
  H  922  1  0.98086550  0.69314700  0.73625400  1
  H  923  1  0.95385350  0.66843300  0.75452800  1
  H  924  1  0.02509300  0.69841400  0.79269200  1
  H  925  1  0.99794253  0.67374700  0.81125400  1
  H  926  1  0.03577800  0.67256600  0.73682000  1
  H  927  1  0.06787800  0.67297000  0.70658600  1
  H  929  1  0.93694150  0.85576300  0.78737400  1
  H  935  1  0.94646350  0.91075100  0.86652200  1
  H  936  1  0.97143350  0.88829000  0.84335000  1
  H  938  1  0.90641450  0.86378900  0.81387200  1
  H  940  1  0.86976600  0.87513800  0.84791100  1
  H  952  1  0.12810700  0.69506100  0.69691200  1
  H  953  1  0.14766200  0.67055600  0.67196900  1
  H  954  1  0.13044000  0.81053900  0.69366400  1
  H  956  1  0.94069950  0.65064700  0.78719300  1
  H  957  1  0.90932850  0.64354600  0.81346100  1
  H  966  1  0.11420400  0.77618600  0.66042300  1
  H  967  1  0.11462400  0.73502600  0.66034800  1
  H  968  1  0.06518400  0.69866000  0.65598200  1
  H  969  1  0.06169300  0.81831100  0.66130900  1
  H  970  1  0.14900900  0.83702300  0.67011400  1
  H  975  1  0.88451700  0.62084500  0.83588200  1
  H  980  1  0.07996100  0.84481600  0.63795600  1
  H  985  1  0.86625700  0.60282700  0.86433200  1
  H  988  1  0.98742850  0.61074400  0.83603800  1
  H  989  1  0.08450000  0.67432700  0.63103700  1
  H  990  1  0.11427900  0.86934200  0.63045000  1
  H  993  1  0.19713100  0.86151100  0.62902700  1
  H  994  1  0.23539100  0.89385600  0.61674400  1
  H  995  1  0.11932500  0.65268300  0.62013000  1
  H  996  1  0.19754100  0.65276000  0.62499900  1
  H  999  1  0.83352500  0.59577700  0.89031100  1
  H  1001  1  0.94895950  0.59885000  0.86835100  1
  H  1005  1  0.13231500  0.89343200  0.60712700  1
  H  1012  1  0.81473400  0.57177300  0.91594900  1
  H  1021  1  0.81779500  0.98769100  0.05539900  1
  H  1022  1  0.86402300  0.94136100  0.99326000  1
  H  1023  1  0.87741300  0.97807800  0.03375000  1
  H  1024  1  0.89718800  0.95266300  0.05769300  1
  H  1025  1  0.81500800  0.93670400  0.02884700  1
  H  1026  1  0.83454100  0.91130100  0.05265100  1
  H  1028  1  0.87149300  0.89876400  0.07108200  1
  H  1048  1  0.19766200  0.97261100  0.55356400  1
  H  1049  1  0.24851400  0.92035300  0.55800500  1
  H  1050  1  0.27604700  0.93894800  0.53364200  1
  H  1051  1  0.23345600  0.94843700  0.49336300  1
  H  1052  1  0.23395100  0.94864400  0.45220500  1
  H  1053  1  0.20345800  0.97593900  0.38685000  1
  H  1054  1  0.27392200  0.93698400  0.41714000  1
  H  1055  1  0.24661900  0.91875900  0.39233300  1
  H  1058  1  0.19005600  0.94350800  0.36859100  1
  H  1059  1  0.18736600  0.94181800  0.57543400  1
  H  1108  1  0.15914100  0.83366300  0.25738300  1
  H  1109  1  0.13101700  0.81008600  0.23884600  1
  H  1110  1  0.10738400  0.84025600  0.30868200  1
  H  1111  1  0.07926000  0.81650500  0.28993700  1
  H  1112  1  0.07190700  0.83741100  0.23783800  1
  H  1113  1  0.03908300  0.83788900  0.20816000  1
  H  1114  1  0.05396200  0.77462500  0.22329100  1
  H  1115  1  0.05337000  0.73639800  0.22340900  1
  H  1116  1  0.12171000  0.77533400  0.28153800  1
  H  1117  1  0.12131700  0.73418300  0.28144300  1
  H  1118  1  0.12511500  0.69376400  0.23591900  1
  H  1119  1  0.15232700  0.66889100  0.25376600  1
  H  1120  1  0.08182700  0.69878100  0.29282900  1
  H  1121  1  0.10918000  0.67395800  0.31096200  1
  H  1122  1  0.07049700  0.67316200  0.23677000  1
  H  1123  1  0.03839400  0.67362000  0.20647400  1
  H  1124  1  0.99156553  0.77683600  0.16072300  1
  H  1125  1  0.99131753  0.73568900  0.16053000  1
  H  1126  1  0.97839450  0.69519300  0.19687400  1
  H  1127  1  0.95867450  0.67132800  0.17136100  1
  H  1128  1  0.04086800  0.70019600  0.15568200  1
  H  1129  1  0.02139100  0.67646100  0.13018200  1
  H  1130  1  0.04418000  0.81886700  0.16152700  1
  H  1131  1  0.02592400  0.84517400  0.13792700  1
  H  1132  1  0.95689350  0.83757000  0.17002900  1
  H  1133  1  0.97544950  0.81129400  0.19381000  1
  H  1136  1  0.17089200  0.85309200  0.28960300  1
  H  1137  1  0.99146853  0.86936400  0.12971100  1
  H  1143  1  0.15806100  0.91732300  0.36064400  1
  H  1144  1  0.13379600  0.89430800  0.33752200  1
  H  1146  1  0.19888200  0.86096900  0.31888700  1
  H  1148  1  0.23731600  0.89271000  0.33098600  1
  H  1156  1  0.94710750  0.91499600  0.08290000  1
  H  1157  1  0.97267250  0.89210800  0.10483400  1
  H  1159  1  0.90858450  0.86368000  0.13236900  1
  H  1161  1  0.87136300  0.89864700  0.12049800  1
  H  1166  1  0.15677500  0.91596800  0.58434900  1
  H  1170  1  0.98446250  0.65807700  0.11751000  1
  H  1171  1  0.16574300  0.65046600  0.28608900  1
  H  1172  1  0.19778100  0.64239700  0.31215300  1
  H  1174  1  0.90880850  0.64634000  0.13351100  1
  H  1176  1  0.22200500  0.63015600  0.60150500  1
  H  1186  1  0.88325400  0.62450500  0.11051900  1
  H  1189  1  0.11954700  0.61378600  0.60175500  1
  H  1191  1  0.22212900  0.61915100  0.33496300  1
  H  1193  1  0.11862500  0.61237500  0.33677200  1
  H  1197  1  0.98452350  0.60865700  0.11733000  1
  H  1198  1  0.24857500  0.59013500  0.38904300  1
  H  1199  1  0.24701200  0.59288200  0.55427400  1
  H  1200  1  0.83000100  0.59153200  0.06341600  1
  H  1202  1  0.86445500  0.59988900  0.08753100  1
  H  1203  1  0.15936100  0.59042000  0.59027000  1
  H  1205  1  0.15716700  0.60014100  0.36831300  1
  H  1207  1  0.94735150  0.59693500  0.08222900  1
  H  1211  1  0.27676100  0.57131900  0.41267600  1
  H  1212  1  0.27405400  0.57466200  0.52929300  1
  H  1215  1  0.18521600  0.57083400  0.37593800  1
  H  1234  1  0.69810400  0.03798500  0.89351900  1
  H  1235  1  0.72566400  0.01964200  0.91773600  1
  H  1236  1  0.74879400  0.09043300  0.88938300  1
  H  1237  1  0.77633600  0.07188500  0.91380500  1
  H  1238  1  0.78489100  0.02005700  0.89172000  1
  H  1239  1  0.81758100  0.99034800  0.89112600  1
  H  1240  1  0.80097100  0.00369400  0.95444600  1
  H  1241  1  0.73384600  0.06237900  0.95383700  1
  H  1243  1  0.68778200  0.06877800  0.87164300  1
  H  1274  1  0.47583400  0.19985300  0.70952400  1
  H  1275  1  0.53429000  0.17380700  0.70972600  1
  H  1276  1  0.56706200  0.17339600  0.73944200  1
  H  1277  1  0.55174300  0.23663400  0.72456700  1
  H  1278  1  0.55275100  0.27481700  0.72412300  1
  H  1279  1  0.48087800  0.31741100  0.71113400  1
  H  1280  1  0.53575200  0.33803000  0.71053500  1
  H  1281  1  0.56787400  0.33764400  0.74081100  1
  H  1282  1  0.61437400  0.23449100  0.78697600  1
  H  1283  1  0.61476300  0.27565400  0.78703500  1
  H  1284  1  0.62797800  0.31570500  0.75042600  1
  H  1285  1  0.64755600  0.34025100  0.77537200  1
  H  1286  1  0.56525100  0.31181300  0.79145500  1
  H  1287  1  0.58459300  0.33618700  0.81640500  1
  H  1288  1  0.56182500  0.19232300  0.78612400  1
  H  1289  1  0.58014300  0.16581000  0.80945600  1
  H  1290  1  0.64909000  0.17363100  0.77725600  1
  H  1291  1  0.63046900  0.20012200  0.75373000  1
  H  1294  1  0.61942400  0.35791300  0.82728700  1
  H  1295  1  0.61446300  0.14125900  0.81688200  1
  H  1321  1  0.80246300  0.50603600  0.95487200  1
  H  1322  1  0.73450700  0.44804200  0.95277900  1
  H  1323  1  0.73130600  0.49326400  0.91171500  1
  H  1324  1  0.70443800  0.47535900  0.88660700  1
  H  1325  1  0.77414100  0.43616700  0.91790400  1
  H  1326  1  0.74711700  0.41797000  0.89282600  1
  H  1327  1  0.78608300  0.49182100  0.89165800  1
  H  1328  1  0.81840100  0.52190400  0.89200200  1
  H  1329  1  0.86460800  0.56879700  0.95388800  1
  H  1330  1  0.87904200  0.53241300  0.91527900  1
  H  1331  1  0.89805400  0.55643100  0.88943800  1
  H  1333  1  0.69205700  0.44349500  0.86722000  1
  H  1339  1  0.69751400  0.35798700  0.82233700  1
  H  1340  1  0.72199800  0.38062000  0.84586700  1
  H  1342  1  0.65936800  0.42032500  0.85697200  1
  H  1344  1  0.61953600  0.39693900  0.84542000  1
  H  1352  1  0.65709200  0.09467000  0.86295900  1
  H  1353  1  0.63256100  0.11720000  0.84020400  1
  H  1355  1  0.69730900  0.14924100  0.81835200  1
  H  1357  1  0.73561900  0.11692200  0.83061100  1
  H  1372  1  0.44801700  0.17573000  0.69135300  1
  H  1373  1  0.45385500  0.34215800  0.69289400  1
  H  1380  1  0.52603700  0.19570500  0.65703800  1
  H  1381  1  0.48410100  0.23582300  0.66624700  1
  H  1382  1  0.48464700  0.27698100  0.66621500  1
  H  1383  1  0.52492700  0.31219200  0.65467400  1
  H  1386  1  0.44069600  0.36006300  0.66027700  1
  H  1387  1  0.43688200  0.15457000  0.66026200  1
  H  1388  1  0.49821600  0.17140600  0.63864800  1
  H  1389  1  0.49776900  0.33688800  0.63615000  1
  H  1390  1  0.40923700  0.36711000  0.63400200  1
  H  1391  1  0.40622700  0.14693100  0.63356700  1
  H  1400  1  0.38440800  0.38984000  0.61160400  1
  H  1401  1  0.48735400  0.39983000  0.61139000  1
  H  1404  1  0.47117500  0.12234300  0.60421700  1
  H  1419  1  0.80237900  0.00446700  0.99265100  1
  H  1420  1  0.73432500  0.06227500  0.99499300  1
  H  1421  1  0.73100500  0.01706100  0.03567100  1
  H  1422  1  0.70384200  0.03498900  0.06046500  1
  H  1423  1  0.77413900  0.07406800  0.03012100  1
  H  1424  1  0.74683400  0.09227800  0.05487100  1
  H  1425  1  0.78579000  0.01801300  0.05593800  1
  H  1427  1  0.69026400  0.06746900  0.07848200  1
  H  1457  1  0.22521400  0.99100100  0.52941500  1
  H  1458  1  0.28464100  0.99063700  0.55564400  1
  H  1459  1  0.31734000  0.02037200  0.55629700  1
  H  1460  1  0.30049800  0.00722500  0.49295400  1
  H  1461  1  0.30219700  0.00637100  0.45474900  1
  H  1462  1  0.23062800  0.99388600  0.41170700  1
  H  1463  1  0.28545900  0.99296000  0.39143300  1
  H  1464  1  0.31758200  0.02321900  0.39202900  1
  H  1465  1  0.36340800  0.06929300  0.49548600  1
  H  1466  1  0.36395400  0.06943900  0.45432600  1
  H  1467  1  0.37718400  0.03268200  0.41364800  1
  H  1468  1  0.39700300  0.05807000  0.38972100  1
  H  1469  1  0.31504700  0.07426200  0.41869800  1
  H  1470  1  0.33462800  0.09963900  0.39491700  1
  H  1471  1  0.31167500  0.06685000  0.53978200  1
  H  1472  1  0.33069900  0.08843300  0.56755400  1
  H  1473  1  0.39965200  0.05758500  0.55576000  1
  H  1474  1  0.38037700  0.03567800  0.52820800  1
  H  1477  1  0.37150600  0.11205500  0.37637400  1
  H  1478  1  0.36748600  0.08852900  0.59475800  1
  H  1527  1  0.65934300  0.17707700  0.19006800  1
  H  1528  1  0.63123100  0.20054000  0.20866100  1
  H  1529  1  0.60746200  0.17046300  0.13876900  1
  H  1530  1  0.57934600  0.19410600  0.15757500  1
  H  1531  1  0.57198100  0.17319800  0.20966500  1
  H  1532  1  0.53920900  0.17271600  0.23932500  1
  H  1533  1  0.55428800  0.23597800  0.22434900  1
  H  1534  1  0.55351600  0.27422800  0.22412500  1
  H  1535  1  0.62183400  0.23532900  0.16608000  1
  H  1536  1  0.62145800  0.27647600  0.16620800  1
  H  1537  1  0.62533500  0.31695400  0.21167200  1
  H  1538  1  0.65251400  0.34181300  0.19378100  1
  H  1539  1  0.58191300  0.31179200  0.15476500  1
  H  1540  1  0.60923400  0.33660000  0.13658800  1
  H  1541  1  0.57074100  0.33746100  0.21083800  1
  H  1542  1  0.53863200  0.33699800  0.24106600  1
  H  1543  1  0.49181400  0.23373600  0.28674300  1
  H  1544  1  0.49152100  0.27488300  0.28692000  1
  H  1545  1  0.47858000  0.31545200  0.25060400  1
  H  1546  1  0.45889400  0.33929600  0.27610500  1
  H  1547  1  0.54105700  0.31042900  0.29189600  1
  H  1548  1  0.52161600  0.33413500  0.31737700  1
  H  1549  1  0.54438500  0.19164600  0.28599700  1
  H  1550  1  0.52605200  0.16536900  0.30957000  1
  H  1551  1  0.45701500  0.17311900  0.27740200  1
  H  1552  1  0.47564600  0.19936400  0.25364800  1
  H  1557  1  0.48480700  0.35260200  0.32998600  1
  H  1558  1  0.66587900  0.36016800  0.16141900  1
  H  1559  1  0.67110500  0.15786400  0.15774800  1
  H  1560  1  0.49151200  0.14124900  0.31775300  1
  H  1607  1  0.19726200  0.53832100  0.39479500  1
  H  1608  1  0.22544700  0.51971400  0.41826400  1
  H  1609  1  0.28457900  0.51903100  0.39146500  1
  H  1610  1  0.31735000  0.48935400  0.39116600  1
  H  1611  1  0.30195500  0.50433500  0.45434500  1
  H  1612  1  0.30242200  0.50463400  0.49252300  1
  H  1613  1  0.23419200  0.56248100  0.45323700  1
  H  1614  1  0.23451400  0.56257700  0.49438600  1
  H  1615  1  0.23141400  0.51745700  0.53570300  1
  H  1616  1  0.20453800  0.53538200  0.56071500  1
  H  1617  1  0.28611600  0.51894400  0.55570000  1
  H  1618  1  0.31835700  0.48883000  0.55542600  1
  H  1619  1  0.36425200  0.44178600  0.45254600  1
  H  1620  1  0.36455200  0.44190000  0.49371400  1
  H  1621  1  0.37895700  0.47827800  0.53222400  1
  H  1622  1  0.39795700  0.45427300  0.55810500  1
  H  1623  1  0.31455900  0.43895800  0.53153800  1
  H  1624  1  0.33333333  0.41496400  0.55721800  1
  H  1625  1  0.31190800  0.44275400  0.41009300  1
  H  1626  1  0.33020500  0.41915300  0.38387300  1
  H  1627  1  0.39939000  0.45098000  0.39194800  1
  H  1628  1  0.38079200  0.47476400  0.41814000  1
  H  1631  1  0.36608900  0.40796600  0.58326000  1
  H  1632  1  0.19191700  0.56734100  0.57976500  1
  H  1633  1  0.36474500  0.41065000  0.36004900  1
  H  1653  1  0.69706000  0.47199800  0.05223700  1
  H  1654  1  0.72520000  0.49064500  0.02880000  1
  H  1655  1  0.74864000  0.42048300  0.05843800  1
  H  1656  1  0.77678300  0.43933800  0.03482700  1
  H  1657  1  0.78443400  0.49154900  0.05588300  1
  H  1658  1  0.81721400  0.52125100  0.05625300  1
  H  1659  1  0.80193000  0.50621100  0.99303900  1
  H  1660  1  0.73415900  0.44802700  0.99393200  1
  H  1661  1  0.86420200  0.56886400  0.99505700  1
  H  1662  1  0.81177100  0.56791400  0.03711200  1
  H  1663  1  0.89910900  0.55953600  0.05586200  1
  H  1664  1  0.88058200  0.53574400  0.02958800  1
  H  1666  1  0.68514100  0.43952300  0.07119300  1
  H  1672  1  0.65833200  0.09349600  0.08668800  1
  H  1673  1  0.63404700  0.11641400  0.10980700  1
  H  1675  1  0.69908600  0.14984800  0.12862200  1
  H  1677  1  0.73754400  0.11822900  0.11655300  1
  H  1682  1  0.44880100  0.41177800  0.57909700  1
  H  1690  1  0.44709300  0.09573500  0.36460600  1
  H  1691  1  0.47268900  0.11855700  0.34265600  1
  H  1693  1  0.40864100  0.14709900  0.31511500  1
  H  1695  1  0.37131600  0.11222400  0.32699100  1
  H  1700  1  0.44613900  0.09988800  0.58101300  1
  H  1701  1  0.36953500  0.13555400  0.59942200  1
  H  1708  1  0.69786900  0.36830200  0.13539900  1
  H  1709  1  0.72217300  0.39151200  0.11254200  1
  H  1711  1  0.65716300  0.41027500  0.07903100  1
  H  1713  1  0.61866800  0.39808500  0.11056900  1
  H  1721  1  0.40898400  0.36425000  0.31405400  1
  H  1722  1  0.38349200  0.38610100  0.33700700  1
  H  1724  1  0.44766100  0.41361700  0.36539600  1
  H  1726  1  0.48476600  0.40192200  0.33037500  1
  H  1740  1  0.67731600  0.94149400  0.95210600  1
  H  1741  1  0.62567600  0.94399200  0.90755600  1
  H  1742  1  0.64465900  0.92235300  0.87987100  1
  H  1743  1  0.71373700  0.95298400  0.89194100  1
  H  1744  1  0.69449900  0.97495400  0.91941000  1
  H  1746  1  0.68139900  0.92203100  0.85283900  1
  H  1776  1  0.76173100  0.83471500  0.75624400  1
  H  1777  1  0.78949000  0.81066400  0.73801900  1
  H  1778  1  0.81220800  0.83920200  0.80882700  1
  H  1779  1  0.83997800  0.81496400  0.79038000  1
  H  1780  1  0.84804300  0.83679400  0.73768300  1
  H  1781  1  0.88074800  0.83722600  0.70797600  1
  H  1782  1  0.86548900  0.77398300  0.72287700  1
  H  1783  1  0.86648000  0.73578500  0.72324300  1
  H  1784  1  0.79800300  0.77471200  0.78119100  1
  H  1785  1  0.79853100  0.73355500  0.78116900  1
  H  1786  1  0.79457600  0.69314700  0.73625400  1
  H  1787  1  0.76756400  0.66843300  0.75452800  1
  H  1788  1  0.83880300  0.69841400  0.79269200  1
  H  1789  1  0.81165300  0.67374700  0.81125400  1
  H  1790  1  0.84948800  0.67256600  0.73682000  1
  H  1791  1  0.88158800  0.67297000  0.70658600  1
  H  1793  1  0.75065200  0.85576300  0.78737400  1
  H  1799  1  0.76017400  0.91075100  0.86652200  1
  H  1800  1  0.78514400  0.88829000  0.84335000  1
  H  1802  1  0.72012500  0.86378900  0.81387200  1
  H  1804  1  0.68347600  0.87513800  0.84791100  1
  H  1816  1  0.94181710  0.69506100  0.69691200  1
  H  1817  1  0.96137210  0.67055600  0.67196900  1
  H  1818  1  0.94415010  0.81053900  0.69366400  1
  H  1820  1  0.75441000  0.65064700  0.78719300  1
  H  1821  1  0.72303900  0.64354600  0.81346100  1
  H  1830  1  0.92791410  0.77618600  0.66042300  1
  H  1831  1  0.92833410  0.73502600  0.66034800  1
  H  1832  1  0.87889400  0.69866000  0.65598200  1
  H  1833  1  0.87540300  0.81831100  0.66130900  1
  H  1834  1  0.96271910  0.83702300  0.67011400  1
  H  1839  1  0.69822700  0.62084500  0.83588200  1
  H  1844  1  0.89367100  0.84481600  0.63795600  1
  H  1849  1  0.67996700  0.60282700  0.86433200  1
  H  1852  1  0.80113900  0.61074400  0.83603800  1
  H  1853  1  0.89821000  0.67432700  0.63103700  1
  H  1854  1  0.92798910  0.86934200  0.63045000  1
  H  1857  1  0.01084100  0.86151100  0.62902700  1
  H  1858  1  0.04910100  0.89385600  0.61674400  1
  H  1859  1  0.93303510  0.65268300  0.62013000  1
  H  1860  1  0.01125100  0.65276000  0.62499900  1
  H  1863  1  0.64723500  0.59577700  0.89031100  1
  H  1865  1  0.76267000  0.59885000  0.86835100  1
  H  1869  1  0.94602510  0.89343200  0.60712700  1
  H  1876  1  0.62844400  0.57177300  0.91594900  1
  H  1885  1  0.63150500  0.98769100  0.05539900  1
  H  1886  1  0.67773300  0.94136100  0.99326000  1
  H  1887  1  0.69112300  0.97807800  0.03375000  1
  H  1888  1  0.71089800  0.95266300  0.05769300  1
  H  1889  1  0.62871800  0.93670400  0.02884700  1
  H  1890  1  0.64825100  0.91130100  0.05265100  1
  H  1892  1  0.68520300  0.89876400  0.07108200  1
  H  1912  1  0.01137200  0.97261100  0.55356400  1
  H  1913  1  0.06222400  0.92035300  0.55800500  1
  H  1914  1  0.08975700  0.93894800  0.53364200  1
  H  1915  1  0.04716600  0.94843700  0.49336300  1
  H  1916  1  0.04766100  0.94864400  0.45220500  1
  H  1917  1  0.01716800  0.97593900  0.38685000  1
  H  1918  1  0.08763200  0.93698400  0.41714000  1
  H  1919  1  0.06032900  0.91875900  0.39233300  1
  H  1922  1  0.00376600  0.94350800  0.36859100  1
  H  1923  1  0.00107600  0.94181800  0.57543400  1
  H  1972  1  0.97285110  0.83366300  0.25738300  1
  H  1973  1  0.94472710  0.81008600  0.23884600  1
  H  1974  1  0.92109410  0.84025600  0.30868200  1
  H  1975  1  0.89297000  0.81650500  0.28993700  1
  H  1976  1  0.88561700  0.83741100  0.23783800  1
  H  1977  1  0.85279300  0.83788900  0.20816000  1
  H  1978  1  0.86767200  0.77462500  0.22329100  1
  H  1979  1  0.86708000  0.73639800  0.22340900  1
  H  1980  1  0.93542010  0.77533400  0.28153800  1
  H  1981  1  0.93502710  0.73418300  0.28144300  1
  H  1982  1  0.93882510  0.69376400  0.23591900  1
  H  1983  1  0.96603710  0.66889100  0.25376600  1
  H  1984  1  0.89553700  0.69878100  0.29282900  1
  H  1985  1  0.92289010  0.67395800  0.31096200  1
  H  1986  1  0.88420700  0.67316200  0.23677000  1
  H  1987  1  0.85210400  0.67362000  0.20647400  1
  H  1988  1  0.80527600  0.77683600  0.16072300  1
  H  1989  1  0.80502800  0.73568900  0.16053000  1
  H  1990  1  0.79210500  0.69519300  0.19687400  1
  H  1991  1  0.77238500  0.67132800  0.17136100  1
  H  1992  1  0.85457800  0.70019600  0.15568200  1
  H  1993  1  0.83510100  0.67646100  0.13018200  1
  H  1994  1  0.85789000  0.81886700  0.16152700  1
  H  1995  1  0.83963400  0.84517400  0.13792700  1
  H  1996  1  0.77060400  0.83757000  0.17002900  1
  H  1997  1  0.78916000  0.81129400  0.19381000  1
  H  2000  1  0.98460210  0.85309200  0.28960300  1
  H  2001  1  0.80517900  0.86936400  0.12971100  1
  H  2007  1  0.97177110  0.91732300  0.36064400  1
  H  2008  1  0.94750610  0.89430800  0.33752200  1
  H  2010  1  0.01259200  0.86096900  0.31888700  1
  H  2012  1  0.05102600  0.89271000  0.33098600  1
  H  2020  1  0.76081800  0.91499600  0.08290000  1
  H  2021  1  0.78638300  0.89210800  0.10483400  1
  H  2023  1  0.72229500  0.86368000  0.13236900  1
  H  2025  1  0.68507300  0.89864700  0.12049800  1
  H  2030  1  0.97048510  0.91596800  0.58434900  1
  H  2034  1  0.79817300  0.65807700  0.11751000  1
  H  2035  1  0.97945310  0.65046600  0.28608900  1
  H  2036  1  0.01149100  0.64239700  0.31215300  1
  H  2038  1  0.72251900  0.64634000  0.13351100  1
  H  2040  1  0.03571500  0.63015600  0.60150500  1
  H  2050  1  0.69696400  0.62450500  0.11051900  1
  H  2053  1  0.93325710  0.61378600  0.60175500  1
  H  2055  1  0.03583900  0.61915100  0.33496300  1
  H  2057  1  0.93233510  0.61237500  0.33677200  1
  H  2061  1  0.79823400  0.60865700  0.11733000  1
  H  2062  1  0.06228500  0.59013500  0.38904300  1
  H  2063  1  0.06072200  0.59288200  0.55427400  1
  H  2064  1  0.64371100  0.59153200  0.06341600  1
  H  2066  1  0.67816500  0.59988900  0.08753100  1
  H  2067  1  0.97307110  0.59042000  0.59027000  1
  H  2069  1  0.97087710  0.60014100  0.36831300  1
  H  2071  1  0.76106200  0.59693500  0.08222900  1
  H  2075  1  0.09047100  0.57131900  0.41267600  1
  H  2076  1  0.08776400  0.57466200  0.52929300  1
  H  2079  1  0.99892606  0.57083400  0.37593800  1
  H  2098  1  0.51181400  0.03798500  0.89351900  1
  H  2099  1  0.53937400  0.01964200  0.91773600  1
  H  2100  1  0.56250400  0.09043300  0.88938300  1
  H  2101  1  0.59004600  0.07188500  0.91380500  1
  H  2102  1  0.59860100  0.02005700  0.89172000  1
  H  2103  1  0.63129100  0.99034800  0.89112600  1
  H  2104  1  0.61468100  0.00369400  0.95444600  1
  H  2105  1  0.54755600  0.06237900  0.95383700  1
  H  2107  1  0.50149200  0.06877800  0.87164300  1
  H  2138  1  0.28954400  0.19985300  0.70952400  1
  H  2139  1  0.34800000  0.17380700  0.70972600  1
  H  2140  1  0.38077200  0.17339600  0.73944200  1
  H  2141  1  0.36545300  0.23663400  0.72456700  1
  H  2142  1  0.36646100  0.27481700  0.72412300  1
  H  2143  1  0.29458800  0.31741100  0.71113400  1
  H  2144  1  0.34946200  0.33803000  0.71053500  1
  H  2145  1  0.38158400  0.33764400  0.74081100  1
  H  2146  1  0.42808400  0.23449100  0.78697600  1
  H  2147  1  0.42847300  0.27565400  0.78703500  1
  H  2148  1  0.44168800  0.31570500  0.75042600  1
  H  2149  1  0.46126600  0.34025100  0.77537200  1
  H  2150  1  0.37896100  0.31181300  0.79145500  1
  H  2151  1  0.39830300  0.33618700  0.81640500  1
  H  2152  1  0.37553500  0.19232300  0.78612400  1
  H  2153  1  0.39385300  0.16581000  0.80945600  1
  H  2154  1  0.46280000  0.17363100  0.77725600  1
  H  2155  1  0.44417900  0.20012200  0.75373000  1
  H  2158  1  0.43313400  0.35791300  0.82728700  1
  H  2159  1  0.42817300  0.14125900  0.81688200  1
  H  2185  1  0.61617300  0.50603600  0.95487200  1
  H  2186  1  0.54821700  0.44804200  0.95277900  1
  H  2187  1  0.54501600  0.49326400  0.91171500  1
  H  2188  1  0.51814800  0.47535900  0.88660700  1
  H  2189  1  0.58785100  0.43616700  0.91790400  1
  H  2190  1  0.56082700  0.41797000  0.89282600  1
  H  2191  1  0.59979300  0.49182100  0.89165800  1
  H  2192  1  0.63211100  0.52190400  0.89200200  1
  H  2193  1  0.67831800  0.56879700  0.95388800  1
  H  2194  1  0.69275200  0.53241300  0.91527900  1
  H  2195  1  0.71176400  0.55643100  0.88943800  1
  H  2197  1  0.50576700  0.44349500  0.86722000  1
  H  2203  1  0.51122400  0.35798700  0.82233700  1
  H  2204  1  0.53570800  0.38062000  0.84586700  1
  H  2206  1  0.47307800  0.42032500  0.85697200  1
  H  2208  1  0.43324600  0.39693900  0.84542000  1
  H  2216  1  0.47080200  0.09467000  0.86295900  1
  H  2217  1  0.44627100  0.11720000  0.84020400  1
  H  2219  1  0.51101900  0.14924100  0.81835200  1
  H  2221  1  0.54932900  0.11692200  0.83061100  1
  H  2236  1  0.26172700  0.17573000  0.69135300  1
  H  2237  1  0.26756500  0.34215800  0.69289400  1
  H  2244  1  0.33974700  0.19570500  0.65703800  1
  H  2245  1  0.29781100  0.23582300  0.66624700  1
  H  2246  1  0.29835700  0.27698100  0.66621500  1
  H  2247  1  0.33863700  0.31219200  0.65467400  1
  H  2250  1  0.25440600  0.36006300  0.66027700  1
  H  2251  1  0.25059200  0.15457000  0.66026200  1
  H  2252  1  0.31192600  0.17140600  0.63864800  1
  H  2253  1  0.31147900  0.33688800  0.63615000  1
  H  2254  1  0.22294700  0.36711000  0.63400200  1
  H  2255  1  0.21993700  0.14693100  0.63356700  1
  H  2264  1  0.19811800  0.38984000  0.61160400  1
  H  2265  1  0.30106400  0.39983000  0.61139000  1
  H  2268  1  0.28488500  0.12234300  0.60421700  1
  H  2283  1  0.61608900  0.00446700  0.99265100  1
  H  2284  1  0.54803500  0.06227500  0.99499300  1
  H  2285  1  0.54471500  0.01706100  0.03567100  1
  H  2286  1  0.51755200  0.03498900  0.06046500  1
  H  2287  1  0.58784900  0.07406800  0.03012100  1
  H  2288  1  0.56054400  0.09227800  0.05487100  1
  H  2289  1  0.59950000  0.01801300  0.05593800  1
  H  2291  1  0.50397400  0.06746900  0.07848200  1
  H  2321  1  0.03892400  0.99100100  0.52941500  1
  H  2322  1  0.09835100  0.99063700  0.55564400  1
  H  2323  1  0.13105000  0.02037200  0.55629700  1
  H  2324  1  0.11420800  0.00722500  0.49295400  1
  H  2325  1  0.11590700  0.00637100  0.45474900  1
  H  2326  1  0.04433800  0.99388600  0.41170700  1
  H  2327  1  0.09916900  0.99296000  0.39143300  1
  H  2328  1  0.13129200  0.02321900  0.39202900  1
  H  2329  1  0.17711800  0.06929300  0.49548600  1
  H  2330  1  0.17766400  0.06943900  0.45432600  1
  H  2331  1  0.19089400  0.03268200  0.41364800  1
  H  2332  1  0.21071300  0.05807000  0.38972100  1
  H  2333  1  0.12875700  0.07426200  0.41869800  1
  H  2334  1  0.14833800  0.09963900  0.39491700  1
  H  2335  1  0.12538500  0.06685000  0.53978200  1
  H  2336  1  0.14440900  0.08843300  0.56755400  1
  H  2337  1  0.21336200  0.05758500  0.55576000  1
  H  2338  1  0.19408700  0.03567800  0.52820800  1
  H  2341  1  0.18521600  0.11205500  0.37637400  1
  H  2342  1  0.18119600  0.08852900  0.59475800  1
  H  2391  1  0.47305300  0.17707700  0.19006800  1
  H  2392  1  0.44494100  0.20054000  0.20866100  1
  H  2393  1  0.42117200  0.17046300  0.13876900  1
  H  2394  1  0.39305600  0.19410600  0.15757500  1
  H  2395  1  0.38569100  0.17319800  0.20966500  1
  H  2396  1  0.35291900  0.17271600  0.23932500  1
  H  2397  1  0.36799800  0.23597800  0.22434900  1
  H  2398  1  0.36722600  0.27422800  0.22412500  1
  H  2399  1  0.43554400  0.23532900  0.16608000  1
  H  2400  1  0.43516800  0.27647600  0.16620800  1
  H  2401  1  0.43904500  0.31695400  0.21167200  1
  H  2402  1  0.46622400  0.34181300  0.19378100  1
  H  2403  1  0.39562300  0.31179200  0.15476500  1
  H  2404  1  0.42294400  0.33660000  0.13658800  1
  H  2405  1  0.38445100  0.33746100  0.21083800  1
  H  2406  1  0.35234200  0.33699800  0.24106600  1
  H  2407  1  0.30552400  0.23373600  0.28674300  1
  H  2408  1  0.30523100  0.27488300  0.28692000  1
  H  2409  1  0.29229000  0.31545200  0.25060400  1
  H  2410  1  0.27260400  0.33929600  0.27610500  1
  H  2411  1  0.35476700  0.31042900  0.29189600  1
  H  2412  1  0.33532600  0.33413500  0.31737700  1
  H  2413  1  0.35809500  0.19164600  0.28599700  1
  H  2414  1  0.33976200  0.16536900  0.30957000  1
  H  2415  1  0.27072500  0.17311900  0.27740200  1
  H  2416  1  0.28935600  0.19936400  0.25364800  1
  H  2421  1  0.29851700  0.35260200  0.32998600  1
  H  2422  1  0.47958900  0.36016800  0.16141900  1
  H  2423  1  0.48481500  0.15786400  0.15774800  1
  H  2424  1  0.30522200  0.14124900  0.31775300  1
  H  2471  1  0.01097200  0.53832100  0.39479500  1
  H  2472  1  0.03915700  0.51971400  0.41826400  1
  H  2473  1  0.09828900  0.51903100  0.39146500  1
  H  2474  1  0.13106000  0.48935400  0.39116600  1
  H  2475  1  0.11566500  0.50433500  0.45434500  1
  H  2476  1  0.11613200  0.50463400  0.49252300  1
  H  2477  1  0.04790200  0.56248100  0.45323700  1
  H  2478  1  0.04822400  0.56257700  0.49438600  1
  H  2479  1  0.04512400  0.51745700  0.53570300  1
  H  2480  1  0.01824800  0.53538200  0.56071500  1
  H  2481  1  0.09982600  0.51894400  0.55570000  1
  H  2482  1  0.13206700  0.48883000  0.55542600  1
  H  2483  1  0.17796200  0.44178600  0.45254600  1
  H  2484  1  0.17826200  0.44190000  0.49371400  1
  H  2485  1  0.19266700  0.47827800  0.53222400  1
  H  2486  1  0.21166700  0.45427300  0.55810500  1
  H  2487  1  0.12826900  0.43895800  0.53153800  1
  H  2488  1  0.14704700  0.41496400  0.55721800  1
  H  2489  1  0.12561800  0.44275400  0.41009300  1
  H  2490  1  0.14391500  0.41915300  0.38387300  1
  H  2491  1  0.21310000  0.45098000  0.39194800  1
  H  2492  1  0.19450200  0.47476400  0.41814000  1
  H  2495  1  0.17979900  0.40796600  0.58326000  1
  H  2496  1  0.00562700  0.56734100  0.57976500  1
  H  2497  1  0.17845500  0.41065000  0.36004900  1
  H  2517  1  0.51077000  0.47199800  0.05223700  1
  H  2518  1  0.53891000  0.49064500  0.02880000  1
  H  2519  1  0.56235000  0.42048300  0.05843800  1
  H  2520  1  0.59049300  0.43933800  0.03482700  1
  H  2521  1  0.59814400  0.49154900  0.05588300  1
  H  2522  1  0.63092400  0.52125100  0.05625300  1
  H  2523  1  0.61564000  0.50621100  0.99303900  1
  H  2524  1  0.54786900  0.44802700  0.99393200  1
  H  2525  1  0.67791200  0.56886400  0.99505700  1
  H  2526  1  0.62548100  0.56791400  0.03711200  1
  H  2527  1  0.71281900  0.55953600  0.05586200  1
  H  2528  1  0.69429200  0.53574400  0.02958800  1
  H  2530  1  0.49885100  0.43952300  0.07119300  1
  H  2536  1  0.47204200  0.09349600  0.08668800  1
  H  2537  1  0.44775700  0.11641400  0.10980700  1
  H  2539  1  0.51279600  0.14984800  0.12862200  1
  H  2541  1  0.55125400  0.11822900  0.11655300  1
  H  2546  1  0.26251100  0.41177800  0.57909700  1
  H  2554  1  0.26080300  0.09573500  0.36460600  1
  H  2555  1  0.28639900  0.11855700  0.34265600  1
  H  2557  1  0.22235100  0.14709900  0.31511500  1
  H  2559  1  0.18502600  0.11222400  0.32699100  1
  H  2564  1  0.25984900  0.09988800  0.58101300  1
  H  2565  1  0.18324500  0.13555400  0.59942200  1
  H  2572  1  0.51157900  0.36830200  0.13539900  1
  H  2573  1  0.53588300  0.39151200  0.11254200  1
  H  2575  1  0.47087300  0.41027500  0.07903100  1
  H  2577  1  0.43237800  0.39808500  0.11056900  1
  H  2585  1  0.22269400  0.36425000  0.31405400  1
  H  2586  1  0.19720200  0.38610100  0.33700700  1
  H  2588  1  0.26137100  0.41361700  0.36539600  1
  H  2590  1  0.29847600  0.40192200  0.33037500  1
  H  2604  1  0.49102700  0.94149400  0.95210600  1
  H  2605  1  0.43938700  0.94399200  0.90755600  1
  H  2606  1  0.45837000  0.92235300  0.87987100  1
  H  2607  1  0.52744800  0.95298400  0.89194100  1
  H  2608  1  0.50821000  0.97495400  0.91941000  1
  H  2610  1  0.49511000  0.92203100  0.85283900  1
  H  2640  1  0.57544200  0.83471500  0.75624400  1
  H  2641  1  0.60320100  0.81066400  0.73801900  1
  H  2642  1  0.62591900  0.83920200  0.80882700  1
  H  2643  1  0.65368900  0.81496400  0.79038000  1
  H  2644  1  0.66175400  0.83679400  0.73768300  1
  H  2645  1  0.69445900  0.83722600  0.70797600  1
  H  2646  1  0.67920000  0.77398300  0.72287700  1
  H  2647  1  0.68019100  0.73578500  0.72324300  1
  H  2648  1  0.61171400  0.77471200  0.78119100  1
  H  2649  1  0.61224200  0.73355500  0.78116900  1
  H  2650  1  0.60828700  0.69314700  0.73625400  1
  H  2651  1  0.58127500  0.66843300  0.75452800  1
  H  2652  1  0.65251400  0.69841400  0.79269200  1
  H  2653  1  0.62536400  0.67374700  0.81125400  1
  H  2654  1  0.66319900  0.67256600  0.73682000  1
  H  2655  1  0.69529900  0.67297000  0.70658600  1
  H  2657  1  0.56436300  0.85576300  0.78737400  1
  H  2663  1  0.57388500  0.91075100  0.86652200  1
  H  2664  1  0.59885500  0.88829000  0.84335000  1
  H  2666  1  0.53383600  0.86378900  0.81387200  1
  H  2668  1  0.49718700  0.87513800  0.84791100  1
  H  2680  1  0.75552800  0.69506100  0.69691200  1
  H  2681  1  0.77508300  0.67055600  0.67196900  1
  H  2682  1  0.75786100  0.81053900  0.69366400  1
  H  2684  1  0.56812100  0.65064700  0.78719300  1
  H  2685  1  0.53675000  0.64354600  0.81346100  1
  H  2694  1  0.74162500  0.77618600  0.66042300  1
  H  2695  1  0.74204500  0.73502600  0.66034800  1
  H  2696  1  0.69260500  0.69866000  0.65598200  1
  H  2697  1  0.68911400  0.81831100  0.66130900  1
  H  2698  1  0.77643000  0.83702300  0.67011400  1
  H  2703  1  0.51193800  0.62084500  0.83588200  1
  H  2708  1  0.70738200  0.84481600  0.63795600  1
  H  2713  1  0.49367800  0.60282700  0.86433200  1
  H  2716  1  0.61485000  0.61074400  0.83603800  1
  H  2717  1  0.71192100  0.67432700  0.63103700  1
  H  2718  1  0.74170000  0.86934200  0.63045000  1
  H  2721  1  0.82455200  0.86151100  0.62902700  1
  H  2722  1  0.86281200  0.89385600  0.61674400  1
  H  2723  1  0.74674600  0.65268300  0.62013000  1
  H  2724  1  0.82496200  0.65276000  0.62499900  1
  H  2727  1  0.46094600  0.59577700  0.89031100  1
  H  2729  1  0.57638100  0.59885000  0.86835100  1
  H  2733  1  0.75973600  0.89343200  0.60712700  1
  H  2740  1  0.44215500  0.57177300  0.91594900  1
  H  2749  1  0.44521600  0.98769100  0.05539900  1
  H  2750  1  0.49144400  0.94136100  0.99326000  1
  H  2751  1  0.50483400  0.97807800  0.03375000  1
  H  2752  1  0.52460900  0.95266300  0.05769300  1
  H  2753  1  0.44242900  0.93670400  0.02884700  1
  H  2754  1  0.46196200  0.91130100  0.05265100  1
  H  2756  1  0.49891400  0.89876400  0.07108200  1
  H  2776  1  0.82508300  0.97261100  0.55356400  1
  H  2777  1  0.87593500  0.92035300  0.55800500  1
  H  2778  1  0.90346760  0.93894800  0.53364200  1
  H  2779  1  0.86087700  0.94843700  0.49336300  1
  H  2780  1  0.86137200  0.94864400  0.45220500  1
  H  2781  1  0.83087900  0.97593900  0.38685000  1
  H  2782  1  0.90134260  0.93698400  0.41714000  1
  H  2783  1  0.87404000  0.91875900  0.39233300  1
  H  2786  1  0.81747700  0.94350800  0.36859100  1
  H  2787  1  0.81478700  0.94181800  0.57543400  1
  H  2836  1  0.78656200  0.83366300  0.25738300  1
  H  2837  1  0.75843800  0.81008600  0.23884600  1
  H  2838  1  0.73480500  0.84025600  0.30868200  1
  H  2839  1  0.70668100  0.81650500  0.28993700  1
  H  2840  1  0.69932800  0.83741100  0.23783800  1
  H  2841  1  0.66650400  0.83788900  0.20816000  1
  H  2842  1  0.68138300  0.77462500  0.22329100  1
  H  2843  1  0.68079100  0.73639800  0.22340900  1
  H  2844  1  0.74913100  0.77533400  0.28153800  1
  H  2845  1  0.74873800  0.73418300  0.28144300  1
  H  2846  1  0.75253600  0.69376400  0.23591900  1
  H  2847  1  0.77974800  0.66889100  0.25376600  1
  H  2848  1  0.70924800  0.69878100  0.29282900  1
  H  2849  1  0.73660100  0.67395800  0.31096200  1
  H  2850  1  0.69791800  0.67316200  0.23677000  1
  H  2851  1  0.66581500  0.67362000  0.20647400  1
  H  2852  1  0.61898700  0.77683600  0.16072300  1
  H  2853  1  0.61873900  0.73568900  0.16053000  1
  H  2854  1  0.60581600  0.69519300  0.19687400  1
  H  2855  1  0.58609600  0.67132800  0.17136100  1
  H  2856  1  0.66828900  0.70019600  0.15568200  1
  H  2857  1  0.64881200  0.67646100  0.13018200  1
  H  2858  1  0.67160100  0.81886700  0.16152700  1
  H  2859  1  0.65334500  0.84517400  0.13792700  1
  H  2860  1  0.58431500  0.83757000  0.17002900  1
  H  2861  1  0.60287100  0.81129400  0.19381000  1
  H  2864  1  0.79831300  0.85309200  0.28960300  1
  H  2865  1  0.61889000  0.86936400  0.12971100  1
  H  2871  1  0.78548200  0.91732300  0.36064400  1
  H  2872  1  0.76121700  0.89430800  0.33752200  1
  H  2874  1  0.82630300  0.86096900  0.31888700  1
  H  2876  1  0.86473700  0.89271000  0.33098600  1
  H  2884  1  0.57452900  0.91499600  0.08290000  1
  H  2885  1  0.60009400  0.89210800  0.10483400  1
  H  2887  1  0.53600600  0.86368000  0.13236900  1
  H  2889  1  0.49878400  0.89864700  0.12049800  1
  H  2894  1  0.78419600  0.91596800  0.58434900  1
  H  2898  1  0.61188400  0.65807700  0.11751000  1
  H  2899  1  0.79316400  0.65046600  0.28608900  1
  H  2900  1  0.82520200  0.64239700  0.31215300  1
  H  2902  1  0.53623000  0.64634000  0.13351100  1
  H  2904  1  0.84942600  0.63015600  0.60150500  1
  H  2914  1  0.51067500  0.62450500  0.11051900  1
  H  2917  1  0.74696800  0.61378600  0.60175500  1
  H  2919  1  0.84955000  0.61915100  0.33496300  1
  H  2921  1  0.74604600  0.61237500  0.33677200  1
  H  2925  1  0.61194500  0.60865700  0.11733000  1
  H  2926  1  0.87599600  0.59013500  0.38904300  1
  H  2927  1  0.87443300  0.59288200  0.55427400  1
  H  2928  1  0.45742200  0.59153200  0.06341600  1
  H  2930  1  0.49187600  0.59988900  0.08753100  1
  H  2931  1  0.78678200  0.59042000  0.59027000  1
  H  2933  1  0.78458800  0.60014100  0.36831300  1
  H  2935  1  0.57477300  0.59693500  0.08222900  1
  H  2939  1  0.90418160  0.57131900  0.41267600  1
  H  2940  1  0.90147460  0.57466200  0.52929300  1
  H  2943  1  0.81263700  0.57083400  0.37593800  1
  H  2962  1  0.32552500  0.03798500  0.89351900  1
  H  2963  1  0.35308500  0.01964200  0.91773600  1
  H  2964  1  0.37621500  0.09043300  0.88938300  1
  H  2965  1  0.40375700  0.07188500  0.91380500  1
  H  2966  1  0.41231200  0.02005700  0.89172000  1
  H  2967  1  0.44500200  0.99034800  0.89112600  1
  H  2968  1  0.42839200  0.00369400  0.95444600  1
  H  2969  1  0.36126700  0.06237900  0.95383700  1
  H  2971  1  0.31520300  0.06877800  0.87164300  1
  H  3002  1  0.10325500  0.19985300  0.70952400  1
  H  3003  1  0.16171100  0.17380700  0.70972600  1
  H  3004  1  0.19448300  0.17339600  0.73944200  1
  H  3005  1  0.17916400  0.23663400  0.72456700  1
  H  3006  1  0.18017200  0.27481700  0.72412300  1
  H  3007  1  0.10829900  0.31741100  0.71113400  1
  H  3008  1  0.16317300  0.33803000  0.71053500  1
  H  3009  1  0.19529500  0.33764400  0.74081100  1
  H  3010  1  0.24179500  0.23449100  0.78697600  1
  H  3011  1  0.24218400  0.27565400  0.78703500  1
  H  3012  1  0.25539900  0.31570500  0.75042600  1
  H  3013  1  0.27497700  0.34025100  0.77537200  1
  H  3014  1  0.19267200  0.31181300  0.79145500  1
  H  3015  1  0.21201400  0.33618700  0.81640500  1
  H  3016  1  0.18924600  0.19232300  0.78612400  1
  H  3017  1  0.20756400  0.16581000  0.80945600  1
  H  3018  1  0.27651100  0.17363100  0.77725600  1
  H  3019  1  0.25789000  0.20012200  0.75373000  1
  H  3022  1  0.24684500  0.35791300  0.82728700  1
  H  3023  1  0.24188400  0.14125900  0.81688200  1
  H  3049  1  0.42988400  0.50603600  0.95487200  1
  H  3050  1  0.36192800  0.44804200  0.95277900  1
  H  3051  1  0.35872700  0.49326400  0.91171500  1
  H  3052  1  0.33185900  0.47535900  0.88660700  1
  H  3053  1  0.40156200  0.43616700  0.91790400  1
  H  3054  1  0.37453800  0.41797000  0.89282600  1
  H  3055  1  0.41350400  0.49182100  0.89165800  1
  H  3056  1  0.44582200  0.52190400  0.89200200  1
  H  3057  1  0.49202900  0.56879700  0.95388800  1
  H  3058  1  0.50646300  0.53241300  0.91527900  1
  H  3059  1  0.52547500  0.55643100  0.88943800  1
  H  3061  1  0.31947800  0.44349500  0.86722000  1
  H  3067  1  0.32493500  0.35798700  0.82233700  1
  H  3068  1  0.34941900  0.38062000  0.84586700  1
  H  3070  1  0.28678900  0.42032500  0.85697200  1
  H  3072  1  0.24695700  0.39693900  0.84542000  1
  H  3080  1  0.28451300  0.09467000  0.86295900  1
  H  3081  1  0.25998200  0.11720000  0.84020400  1
  H  3083  1  0.32473000  0.14924100  0.81835200  1
  H  3085  1  0.36304000  0.11692200  0.83061100  1
  H  3100  1  0.07543800  0.17573000  0.69135300  1
  H  3101  1  0.08127600  0.34215800  0.69289400  1
  H  3108  1  0.15345800  0.19570500  0.65703800  1
  H  3109  1  0.11152200  0.23582300  0.66624700  1
  H  3110  1  0.11206800  0.27698100  0.66621500  1
  H  3111  1  0.15234800  0.31219200  0.65467400  1
  H  3114  1  0.06811700  0.36006300  0.66027700  1
  H  3115  1  0.06430300  0.15457000  0.66026200  1
  H  3116  1  0.12563700  0.17140600  0.63864800  1
  H  3117  1  0.12519000  0.33688800  0.63615000  1
  H  3118  1  0.03665800  0.36711000  0.63400200  1
  H  3119  1  0.03364800  0.14693100  0.63356700  1
  H  3128  1  0.01182900  0.38984000  0.61160400  1
  H  3129  1  0.11477500  0.39983000  0.61139000  1
  H  3132  1  0.09859600  0.12234300  0.60421700  1
  H  3147  1  0.42980000  0.00446700  0.99265100  1
  H  3148  1  0.36174600  0.06227500  0.99499300  1
  H  3149  1  0.35842600  0.01706100  0.03567100  1
  H  3150  1  0.33126300  0.03498900  0.06046500  1
  H  3151  1  0.40156000  0.07406800  0.03012100  1
  H  3152  1  0.37425500  0.09227800  0.05487100  1
  H  3153  1  0.41321100  0.01801300  0.05593800  1
  H  3155  1  0.31768500  0.06746900  0.07848200  1
  H  3185  1  0.85263500  0.99100100  0.52941500  1
  H  3186  1  0.91206160  0.99063700  0.55564400  1
  H  3187  1  0.94476060  0.02037200  0.55629700  1
  H  3188  1  0.92791860  0.00722500  0.49295400  1
  H  3189  1  0.92961760  0.00637100  0.45474900  1
  H  3190  1  0.85804900  0.99388600  0.41170700  1
  H  3191  1  0.91287960  0.99296000  0.39143300  1
  H  3192  1  0.94500260  0.02321900  0.39202900  1
  H  3193  1  0.99082860  0.06929300  0.49548600  1
  H  3194  1  0.99137460  0.06943900  0.45432600  1
  H  3195  1  0.00460500  0.03268200  0.41364800  1
  H  3196  1  0.02442400  0.05807000  0.38972100  1
  H  3197  1  0.94246760  0.07426200  0.41869800  1
  H  3198  1  0.96204860  0.09963900  0.39491700  1
  H  3199  1  0.93909560  0.06685000  0.53978200  1
  H  3200  1  0.95811960  0.08843300  0.56755400  1
  H  3201  1  0.02707300  0.05758500  0.55576000  1
  H  3202  1  0.00779800  0.03567800  0.52820800  1
  H  3205  1  0.99892660  0.11205500  0.37637400  1
  H  3206  1  0.99490660  0.08852900  0.59475800  1
  H  3255  1  0.28676400  0.17707700  0.19006800  1
  H  3256  1  0.25865200  0.20054000  0.20866100  1
  H  3257  1  0.23488300  0.17046300  0.13876900  1
  H  3258  1  0.20676700  0.19410600  0.15757500  1
  H  3259  1  0.19940200  0.17319800  0.20966500  1
  H  3260  1  0.16663000  0.17271600  0.23932500  1
  H  3261  1  0.18170900  0.23597800  0.22434900  1
  H  3262  1  0.18093700  0.27422800  0.22412500  1
  H  3263  1  0.24925500  0.23532900  0.16608000  1
  H  3264  1  0.24887900  0.27647600  0.16620800  1
  H  3265  1  0.25275600  0.31695400  0.21167200  1
  H  3266  1  0.27993500  0.34181300  0.19378100  1
  H  3267  1  0.20933400  0.31179200  0.15476500  1
  H  3268  1  0.23665500  0.33660000  0.13658800  1
  H  3269  1  0.19816200  0.33746100  0.21083800  1
  H  3270  1  0.16605300  0.33699800  0.24106600  1
  H  3271  1  0.11923500  0.23373600  0.28674300  1
  H  3272  1  0.11894200  0.27488300  0.28692000  1
  H  3273  1  0.10600100  0.31545200  0.25060400  1
  H  3274  1  0.08631500  0.33929600  0.27610500  1
  H  3275  1  0.16847800  0.31042900  0.29189600  1
  H  3276  1  0.14903700  0.33413500  0.31737700  1
  H  3277  1  0.17180600  0.19164600  0.28599700  1
  H  3278  1  0.15347300  0.16536900  0.30957000  1
  H  3279  1  0.08443600  0.17311900  0.27740200  1
  H  3280  1  0.10306700  0.19936400  0.25364800  1
  H  3285  1  0.11222800  0.35260200  0.32998600  1
  H  3286  1  0.29330000  0.36016800  0.16141900  1
  H  3287  1  0.29852600  0.15786400  0.15774800  1
  H  3288  1  0.11893300  0.14124900  0.31775300  1
  H  3335  1  0.82468300  0.53832100  0.39479500  1
  H  3336  1  0.85286800  0.51971400  0.41826400  1
  H  3337  1  0.91199960  0.51903100  0.39146500  1
  H  3338  1  0.94477060  0.48935400  0.39116600  1
  H  3339  1  0.92937560  0.50433500  0.45434500  1
  H  3340  1  0.92984260  0.50463400  0.49252300  1
  H  3341  1  0.86161300  0.56248100  0.45323700  1
  H  3342  1  0.86193500  0.56257700  0.49438600  1
  H  3343  1  0.85883500  0.51745700  0.53570300  1
  H  3344  1  0.83195900  0.53538200  0.56071500  1
  H  3345  1  0.91353660  0.51894400  0.55570000  1
  H  3346  1  0.94577760  0.48883000  0.55542600  1
  H  3347  1  0.99167260  0.44178600  0.45254600  1
  H  3348  1  0.99197260  0.44190000  0.49371400  1
  H  3349  1  0.00637800  0.47827800  0.53222400  1
  H  3350  1  0.02537800  0.45427300  0.55810500  1
  H  3351  1  0.94197960  0.43895800  0.53153800  1
  H  3352  1  0.96075760  0.41496400  0.55721800  1
  H  3353  1  0.93932860  0.44275400  0.41009300  1
  H  3354  1  0.95762560  0.41915300  0.38387300  1
  H  3355  1  0.02681100  0.45098000  0.39194800  1
  H  3356  1  0.00821300  0.47476400  0.41814000  1
  H  3359  1  0.99350960  0.40796600  0.58326000  1
  H  3360  1  0.81933800  0.56734100  0.57976500  1
  H  3361  1  0.99216560  0.41065000  0.36004900  1
  H  3381  1  0.32448100  0.47199800  0.05223700  1
  H  3382  1  0.35262100  0.49064500  0.02880000  1
  H  3383  1  0.37606100  0.42048300  0.05843800  1
  H  3384  1  0.40420400  0.43933800  0.03482700  1
  H  3385  1  0.41185500  0.49154900  0.05588300  1
  H  3386  1  0.44463500  0.52125100  0.05625300  1
  H  3387  1  0.42935100  0.50621100  0.99303900  1
  H  3388  1  0.36158000  0.44802700  0.99393200  1
  H  3389  1  0.49162300  0.56886400  0.99505700  1
  H  3390  1  0.43919200  0.56791400  0.03711200  1
  H  3391  1  0.52653000  0.55953600  0.05586200  1
  H  3392  1  0.50800300  0.53574400  0.02958800  1
  H  3394  1  0.31256200  0.43952300  0.07119300  1
  H  3400  1  0.28575300  0.09349600  0.08668800  1
  H  3401  1  0.26146800  0.11641400  0.10980700  1
  H  3403  1  0.32650700  0.14984800  0.12862200  1
  H  3405  1  0.36496500  0.11822900  0.11655300  1
  H  3410  1  0.07622200  0.41177800  0.57909700  1
  H  3418  1  0.07451400  0.09573500  0.36460600  1
  H  3419  1  0.10011000  0.11855700  0.34265600  1
  H  3421  1  0.03606200  0.14709900  0.31511500  1
  H  3423  1  0.99873660  0.11222400  0.32699100  1
  H  3428  1  0.07356000  0.09988800  0.58101300  1
  H  3429  1  0.99695560  0.13555400  0.59942200  1
  H  3436  1  0.32529000  0.36830200  0.13539900  1
  H  3437  1  0.34959400  0.39151200  0.11254200  1
  H  3439  1  0.28458400  0.41027500  0.07903100  1
  H  3441  1  0.24608900  0.39808500  0.11056900  1
  H  3449  1  0.03640500  0.36425000  0.31405400  1
  H  3450  1  0.01091300  0.38610100  0.33700700  1
  H  3452  1  0.07508200  0.41361700  0.36539600  1
  H  3454  1  0.11218700  0.40192200  0.33037500  1
  H  3468  1  0.30473700  0.94149400  0.95210600  1
  H  3469  1  0.25309700  0.94399200  0.90755600  1
  H  3470  1  0.27208000  0.92235300  0.87987100  1
  H  3471  1  0.34115800  0.95298400  0.89194100  1
  H  3472  1  0.32192000  0.97495400  0.91941000  1
  H  3474  1  0.30882000  0.92203100  0.85283900  1
  H  3504  1  0.38915200  0.83471500  0.75624400  1
  H  3505  1  0.41691100  0.81066400  0.73801900  1
  H  3506  1  0.43962900  0.83920200  0.80882700  1
  H  3507  1  0.46739900  0.81496400  0.79038000  1
  H  3508  1  0.47546400  0.83679400  0.73768300  1
  H  3509  1  0.50816900  0.83722600  0.70797600  1
  H  3510  1  0.49291000  0.77398300  0.72287700  1
  H  3511  1  0.49390100  0.73578500  0.72324300  1
  H  3512  1  0.42542400  0.77471200  0.78119100  1
  H  3513  1  0.42595200  0.73355500  0.78116900  1
  H  3514  1  0.42199700  0.69314700  0.73625400  1
  H  3515  1  0.39498500  0.66843300  0.75452800  1
  H  3516  1  0.46622400  0.69841400  0.79269200  1
  H  3517  1  0.43907400  0.67374700  0.81125400  1
  H  3518  1  0.47690900  0.67256600  0.73682000  1
  H  3519  1  0.50900900  0.67297000  0.70658600  1
  H  3521  1  0.37807300  0.85576300  0.78737400  1
  H  3527  1  0.38759500  0.91075100  0.86652200  1
  H  3528  1  0.41256500  0.88829000  0.84335000  1
  H  3530  1  0.34754600  0.86378900  0.81387200  1
  H  3532  1  0.31089700  0.87513800  0.84791100  1
  H  3544  1  0.56923800  0.69506100  0.69691200  1
  H  3545  1  0.58879300  0.67055600  0.67196900  1
  H  3546  1  0.57157100  0.81053900  0.69366400  1
  H  3548  1  0.38183100  0.65064700  0.78719300  1
  H  3549  1  0.35046000  0.64354600  0.81346100  1
  H  3558  1  0.55533500  0.77618600  0.66042300  1
  H  3559  1  0.55575500  0.73502600  0.66034800  1
  H  3560  1  0.50631500  0.69866000  0.65598200  1
  H  3561  1  0.50282400  0.81831100  0.66130900  1
  H  3562  1  0.59014000  0.83702300  0.67011400  1
  H  3567  1  0.32564800  0.62084500  0.83588200  1
  H  3572  1  0.52109200  0.84481600  0.63795600  1
  H  3577  1  0.30738800  0.60282700  0.86433200  1
  H  3580  1  0.42856000  0.61074400  0.83603800  1
  H  3581  1  0.52563100  0.67432700  0.63103700  1
  H  3582  1  0.55541000  0.86934200  0.63045000  1
  H  3585  1  0.63826200  0.86151100  0.62902700  1
  H  3586  1  0.67652200  0.89385600  0.61674400  1
  H  3587  1  0.56045600  0.65268300  0.62013000  1
  H  3588  1  0.63867200  0.65276000  0.62499900  1
  H  3591  1  0.27465600  0.59577700  0.89031100  1
  H  3593  1  0.39009100  0.59885000  0.86835100  1
  H  3597  1  0.57344600  0.89343200  0.60712700  1
  H  3604  1  0.25586500  0.57177300  0.91594900  1
  H  3613  1  0.25892600  0.98769100  0.05539900  1
  H  3614  1  0.30515400  0.94136100  0.99326000  1
  H  3615  1  0.31854400  0.97807800  0.03375000  1
  H  3616  1  0.33831900  0.95266300  0.05769300  1
  H  3617  1  0.25613900  0.93670400  0.02884700  1
  H  3618  1  0.27567200  0.91130100  0.05265100  1
  H  3620  1  0.31262400  0.89876400  0.07108200  1
  H  3640  1  0.63879300  0.97261100  0.55356400  1
  H  3641  1  0.68964500  0.92035300  0.55800500  1
  H  3642  1  0.71717800  0.93894800  0.53364200  1
  H  3643  1  0.67458700  0.94843700  0.49336300  1
  H  3644  1  0.67508200  0.94864400  0.45220500  1
  H  3645  1  0.64458900  0.97593900  0.38685000  1
  H  3646  1  0.71505300  0.93698400  0.41714000  1
  H  3647  1  0.68775000  0.91875900  0.39233300  1
  H  3650  1  0.63118700  0.94350800  0.36859100  1
  H  3651  1  0.62849700  0.94181800  0.57543400  1
  H  3700  1  0.60027200  0.83366300  0.25738300  1
  H  3701  1  0.57214800  0.81008600  0.23884600  1
  H  3702  1  0.54851500  0.84025600  0.30868200  1
  H  3703  1  0.52039100  0.81650500  0.28993700  1
  H  3704  1  0.51303800  0.83741100  0.23783800  1
  H  3705  1  0.48021400  0.83788900  0.20816000  1
  H  3706  1  0.49509300  0.77462500  0.22329100  1
  H  3707  1  0.49450100  0.73639800  0.22340900  1
  H  3708  1  0.56284100  0.77533400  0.28153800  1
  H  3709  1  0.56244800  0.73418300  0.28144300  1
  H  3710  1  0.56624600  0.69376400  0.23591900  1
  H  3711  1  0.59345800  0.66889100  0.25376600  1
  H  3712  1  0.52295800  0.69878100  0.29282900  1
  H  3713  1  0.55031100  0.67395800  0.31096200  1
  H  3714  1  0.51162800  0.67316200  0.23677000  1
  H  3715  1  0.47952500  0.67362000  0.20647400  1
  H  3716  1  0.43269700  0.77683600  0.16072300  1
  H  3717  1  0.43244900  0.73568900  0.16053000  1
  H  3718  1  0.41952600  0.69519300  0.19687400  1
  H  3719  1  0.39980600  0.67132800  0.17136100  1
  H  3720  1  0.48199900  0.70019600  0.15568200  1
  H  3721  1  0.46252200  0.67646100  0.13018200  1
  H  3722  1  0.48531100  0.81886700  0.16152700  1
  H  3723  1  0.46705500  0.84517400  0.13792700  1
  H  3724  1  0.39802500  0.83757000  0.17002900  1
  H  3725  1  0.41658100  0.81129400  0.19381000  1
  H  3728  1  0.61202300  0.85309200  0.28960300  1
  H  3729  1  0.43260000  0.86936400  0.12971100  1
  H  3735  1  0.59919200  0.91732300  0.36064400  1
  H  3736  1  0.57492700  0.89430800  0.33752200  1
  H  3738  1  0.64001300  0.86096900  0.31888700  1
  H  3740  1  0.67844700  0.89271000  0.33098600  1
  H  3748  1  0.38823900  0.91499600  0.08290000  1
  H  3749  1  0.41380400  0.89210800  0.10483400  1
  H  3751  1  0.34971600  0.86368000  0.13236900  1
  H  3753  1  0.31249400  0.89864700  0.12049800  1
  H  3758  1  0.59790600  0.91596800  0.58434900  1
  H  3762  1  0.42559400  0.65807700  0.11751000  1
  H  3763  1  0.60687400  0.65046600  0.28608900  1
  H  3764  1  0.63891200  0.64239700  0.31215300  1
  H  3766  1  0.34994000  0.64634000  0.13351100  1
  H  3768  1  0.66313600  0.63015600  0.60150500  1
  H  3778  1  0.32438500  0.62450500  0.11051900  1
  H  3781  1  0.56067800  0.61378600  0.60175500  1
  H  3783  1  0.66326000  0.61915100  0.33496300  1
  H  3785  1  0.55975600  0.61237500  0.33677200  1
  H  3789  1  0.42565500  0.60865700  0.11733000  1
  H  3790  1  0.68970600  0.59013500  0.38904300  1
  H  3791  1  0.68814300  0.59288200  0.55427400  1
  H  3792  1  0.27113200  0.59153200  0.06341600  1
  H  3794  1  0.30558600  0.59988900  0.08753100  1
  H  3795  1  0.60049200  0.59042000  0.59027000  1
  H  3797  1  0.59829800  0.60014100  0.36831300  1
  H  3799  1  0.38848300  0.59693500  0.08222900  1
  H  3803  1  0.71789200  0.57131900  0.41267600  1
  H  3804  1  0.71518500  0.57466200  0.52929300  1
  H  3807  1  0.62634700  0.57083400  0.37593800  1
  H  3826  1  0.13923500  0.03798500  0.89351900  1
  H  3827  1  0.16679500  0.01964200  0.91773600  1
  H  3828  1  0.18992500  0.09043300  0.88938300  1
  H  3829  1  0.21746700  0.07188500  0.91380500  1
  H  3830  1  0.22602200  0.02005700  0.89172000  1
  H  3831  1  0.25871200  0.99034800  0.89112600  1
  H  3832  1  0.24210200  0.00369400  0.95444600  1
  H  3833  1  0.17497700  0.06237900  0.95383700  1
  H  3835  1  0.12891300  0.06877800  0.87164300  1
  H  3866  1  0.91696510  0.19985300  0.70952400  1
  H  3867  1  0.97542110  0.17380700  0.70972600  1
  H  3868  1  0.00819300  0.17339600  0.73944200  1
  H  3869  1  0.99287413  0.23663400  0.72456700  1
  H  3870  1  0.99388213  0.27481700  0.72412300  1
  H  3871  1  0.92200910  0.31741100  0.71113400  1
  H  3872  1  0.97688310  0.33803000  0.71053500  1
  H  3873  1  0.00900500  0.33764400  0.74081100  1
  H  3874  1  0.05550500  0.23449100  0.78697600  1
  H  3875  1  0.05589400  0.27565400  0.78703500  1
  H  3876  1  0.06910900  0.31570500  0.75042600  1
  H  3877  1  0.08868700  0.34025100  0.77537200  1
  H  3878  1  0.00638200  0.31181300  0.79145500  1
  H  3879  1  0.02572400  0.33618700  0.81640500  1
  H  3880  1  0.00295600  0.19232300  0.78612400  1
  H  3881  1  0.02127400  0.16581000  0.80945600  1
  H  3882  1  0.09022100  0.17363100  0.77725600  1
  H  3883  1  0.07160000  0.20012200  0.75373000  1
  H  3886  1  0.06055500  0.35791300  0.82728700  1
  H  3887  1  0.05559400  0.14125900  0.81688200  1
  H  3913  1  0.24359400  0.50603600  0.95487200  1
  H  3914  1  0.17563800  0.44804200  0.95277900  1
  H  3915  1  0.17243700  0.49326400  0.91171500  1
  H  3916  1  0.14556900  0.47535900  0.88660700  1
  H  3917  1  0.21527200  0.43616700  0.91790400  1
  H  3918  1  0.18824800  0.41797000  0.89282600  1
  H  3919  1  0.22721400  0.49182100  0.89165800  1
  H  3920  1  0.25953200  0.52190400  0.89200200  1
  H  3921  1  0.30573900  0.56879700  0.95388800  1
  H  3922  1  0.32017300  0.53241300  0.91527900  1
  H  3923  1  0.33918500  0.55643100  0.88943800  1
  H  3925  1  0.13318800  0.44349500  0.86722000  1
  H  3931  1  0.13864500  0.35798700  0.82233700  1
  H  3932  1  0.16312900  0.38062000  0.84586700  1
  H  3934  1  0.10049900  0.42032500  0.85697200  1
  H  3936  1  0.06066700  0.39693900  0.84542000  1
  H  3944  1  0.09822300  0.09467000  0.86295900  1
  H  3945  1  0.07369200  0.11720000  0.84020400  1
  H  3947  1  0.13844000  0.14924100  0.81835200  1
  H  3949  1  0.17675000  0.11692200  0.83061100  1
  H  3964  1  0.88914800  0.17573000  0.69135300  1
  H  3965  1  0.89498600  0.34215800  0.69289400  1
  H  3972  1  0.96716810  0.19570500  0.65703800  1
  H  3973  1  0.92523210  0.23582300  0.66624700  1
  H  3974  1  0.92577810  0.27698100  0.66621500  1
  H  3975  1  0.96605810  0.31219200  0.65467400  1
  H  3978  1  0.88182700  0.36006300  0.66027700  1
  H  3979  1  0.87801300  0.15457000  0.66026200  1
  H  3980  1  0.93934710  0.17140600  0.63864800  1
  H  3981  1  0.93890010  0.33688800  0.63615000  1
  H  3982  1  0.85036800  0.36711000  0.63400200  1
  H  3983  1  0.84735800  0.14693100  0.63356700  1
  H  3992  1  0.82553900  0.38984000  0.61160400  1
  H  3993  1  0.92848510  0.39983000  0.61139000  1
  H  3996  1  0.91230610  0.12234300  0.60421700  1
  H  4011  1  0.24351000  0.00446700  0.99265100  1
  H  4012  1  0.17545600  0.06227500  0.99499300  1
  H  4013  1  0.17213600  0.01706100  0.03567100  1
  H  4014  1  0.14497300  0.03498900  0.06046500  1
  H  4015  1  0.21527000  0.07406800  0.03012100  1
  H  4016  1  0.18796500  0.09227800  0.05487100  1
  H  4017  1  0.22692100  0.01801300  0.05593800  1
  H  4019  1  0.13139500  0.06746900  0.07848200  1
  H  4049  1  0.66634500  0.99100100  0.52941500  1
  H  4050  1  0.72577200  0.99063700  0.55564400  1
  H  4051  1  0.75847100  0.02037200  0.55629700  1
  H  4052  1  0.74162900  0.00722500  0.49295400  1
  H  4053  1  0.74332800  0.00637100  0.45474900  1
  H  4054  1  0.67175900  0.99388600  0.41170700  1
  H  4055  1  0.72659000  0.99296000  0.39143300  1
  H  4056  1  0.75871300  0.02321900  0.39202900  1
  H  4057  1  0.80453900  0.06929300  0.49548600  1
  H  4058  1  0.80508500  0.06943900  0.45432600  1
  H  4059  1  0.81831500  0.03268200  0.41364800  1
  H  4060  1  0.83813400  0.05807000  0.38972100  1
  H  4061  1  0.75617800  0.07426200  0.41869800  1
  H  4062  1  0.77575900  0.09963900  0.39491700  1
  H  4063  1  0.75280600  0.06685000  0.53978200  1
  H  4064  1  0.77183000  0.08843300  0.56755400  1
  H  4065  1  0.84078300  0.05758500  0.55576000  1
  H  4066  1  0.82150800  0.03567800  0.52820800  1
  H  4069  1  0.81263700  0.11205500  0.37637400  1
  H  4070  1  0.80861700  0.08852900  0.59475800  1
  H  4119  1  0.10047400  0.17707700  0.19006800  1
  H  4120  1  0.07236200  0.20054000  0.20866100  1
  H  4121  1  0.04859300  0.17046300  0.13876900  1
  H  4122  1  0.02047700  0.19410600  0.15757500  1
  H  4123  1  0.01311200  0.17319800  0.20966500  1
  H  4124  1  0.98034010  0.17271600  0.23932500  1
  H  4125  1  0.99541913  0.23597800  0.22434900  1
  H  4126  1  0.99464713  0.27422800  0.22412500  1
  H  4127  1  0.06296500  0.23532900  0.16608000  1
  H  4128  1  0.06258900  0.27647600  0.16620800  1
  H  4129  1  0.06646600  0.31695400  0.21167200  1
  H  4130  1  0.09364500  0.34181300  0.19378100  1
  H  4131  1  0.02304400  0.31179200  0.15476500  1
  H  4132  1  0.05036500  0.33660000  0.13658800  1
  H  4133  1  0.01187200  0.33746100  0.21083800  1
  H  4134  1  0.97976310  0.33699800  0.24106600  1
  H  4135  1  0.93294510  0.23373600  0.28674300  1
  H  4136  1  0.93265210  0.27488300  0.28692000  1
  H  4137  1  0.91971110  0.31545200  0.25060400  1
  H  4138  1  0.90002510  0.33929600  0.27610500  1
  H  4139  1  0.98218810  0.31042900  0.29189600  1
  H  4140  1  0.96274710  0.33413500  0.31737700  1
  H  4141  1  0.98551610  0.19164600  0.28599700  1
  H  4142  1  0.96718310  0.16536900  0.30957000  1
  H  4143  1  0.89814600  0.17311900  0.27740200  1
  H  4144  1  0.91677710  0.19936400  0.25364800  1
  H  4149  1  0.92593810  0.35260200  0.32998600  1
  H  4150  1  0.10701000  0.36016800  0.16141900  1
  H  4151  1  0.11223600  0.15786400  0.15774800  1
  H  4152  1  0.93264310  0.14124900  0.31775300  1
  H  4199  1  0.63839300  0.53832100  0.39479500  1
  H  4200  1  0.66657800  0.51971400  0.41826400  1
  H  4201  1  0.72571000  0.51903100  0.39146500  1
  H  4202  1  0.75848100  0.48935400  0.39116600  1
  H  4203  1  0.74308600  0.50433500  0.45434500  1
  H  4204  1  0.74355300  0.50463400  0.49252300  1
  H  4205  1  0.67532300  0.56248100  0.45323700  1
  H  4206  1  0.67564500  0.56257700  0.49438600  1
  H  4207  1  0.67254500  0.51745700  0.53570300  1
  H  4208  1  0.64566900  0.53538200  0.56071500  1
  H  4209  1  0.72724700  0.51894400  0.55570000  1
  H  4210  1  0.75948800  0.48883000  0.55542600  1
  H  4211  1  0.80538300  0.44178600  0.45254600  1
  H  4212  1  0.80568300  0.44190000  0.49371400  1
  H  4213  1  0.82008800  0.47827800  0.53222400  1
  H  4214  1  0.83908800  0.45427300  0.55810500  1
  H  4215  1  0.75569000  0.43895800  0.53153800  1
  H  4216  1  0.77446800  0.41496400  0.55721800  1
  H  4217  1  0.75303900  0.44275400  0.41009300  1
  H  4218  1  0.77133600  0.41915300  0.38387300  1
  H  4219  1  0.84052100  0.45098000  0.39194800  1
  H  4220  1  0.82192300  0.47476400  0.41814000  1
  H  4223  1  0.80722000  0.40796600  0.58326000  1
  H  4224  1  0.63304800  0.56734100  0.57976500  1
  H  4225  1  0.80587600  0.41065000  0.36004900  1
  H  4245  1  0.13819100  0.47199800  0.05223700  1
  H  4246  1  0.16633100  0.49064500  0.02880000  1
  H  4247  1  0.18977100  0.42048300  0.05843800  1
  H  4248  1  0.21791400  0.43933800  0.03482700  1
  H  4249  1  0.22556500  0.49154900  0.05588300  1
  H  4250  1  0.25834500  0.52125100  0.05625300  1
  H  4251  1  0.24306100  0.50621100  0.99303900  1
  H  4252  1  0.17529000  0.44802700  0.99393200  1
  H  4253  1  0.30533300  0.56886400  0.99505700  1
  H  4254  1  0.25290200  0.56791400  0.03711200  1
  H  4255  1  0.34024000  0.55953600  0.05586200  1
  H  4256  1  0.32171300  0.53574400  0.02958800  1
  H  4258  1  0.12627200  0.43952300  0.07119300  1
  H  4264  1  0.09946300  0.09349600  0.08668800  1
  H  4265  1  0.07517800  0.11641400  0.10980700  1
  H  4267  1  0.14021700  0.14984800  0.12862200  1
  H  4269  1  0.17867500  0.11822900  0.11655300  1
  H  4274  1  0.88993200  0.41177800  0.57909700  1
  H  4282  1  0.88822400  0.09573500  0.36460600  1
  H  4283  1  0.91382010  0.11855700  0.34265600  1
  H  4285  1  0.84977200  0.14709900  0.31511500  1
  H  4287  1  0.81244700  0.11222400  0.32699100  1
  H  4292  1  0.88727000  0.09988800  0.58101300  1
  H  4293  1  0.81066600  0.13555400  0.59942200  1
  H  4300  1  0.13900000  0.36830200  0.13539900  1
  H  4301  1  0.16330400  0.39151200  0.11254200  1
  H  4303  1  0.09829400  0.41027500  0.07903100  1
  H  4305  1  0.05979900  0.39808500  0.11056900  1
  H  4313  1  0.85011500  0.36425000  0.31405400  1
  H  4314  1  0.82462300  0.38610100  0.33700700  1
  H  4316  1  0.88879200  0.41361700  0.36539600  1
  H  4318  1  0.92589710  0.40192200  0.33037500  1
  C  2  1  0.02482700  0.96915000  0.95467000  1
  C  3  1  0.04046300  0.95236900  0.96156600  1
  C  4  1  0.04065700  0.95227100  0.98397700  1
  C  5  1  0.01919400  0.97448400  0.93270500  1
  C  6  1  0.03077600  0.96171200  0.91602000  1
  C  7  1  0.05644600  0.96382300  0.91123100  1
  C  8  1  0.06779500  0.95076800  0.89521000  1
  C  9  1  0.05374300  0.93533700  0.88334300  1
  C  10  1  0.02806900  0.93327300  0.88816200  1
  C  11  1  0.01682800  0.94606200  0.90439500  1
  C  17  1  0.06393300  0.92334200  0.86639400  1
  C  19  1  0.22837300  0.82319300  0.73097700  1
  C  20  1  0.24620700  0.82341200  0.71479800  1
  C  21  1  0.25215700  0.80194100  0.70953500  1
  C  23  1  0.22309700  0.80158300  0.73618000  1
  C  24  1  0.20533500  0.79475700  0.75196200  1
  C  25  1  0.20018900  0.77268600  0.75715600  1
  C  27  1  0.20080200  0.73619900  0.75724700  1
  C  28  1  0.18271000  0.74304900  0.77204000  1
  C  29  1  0.18234700  0.76545200  0.77199600  1
  C  30  1  0.20658100  0.71425200  0.75203600  1
  C  31  1  0.22424900  0.70783100  0.73600100  1
  C  33  1  0.25296500  0.70818000  0.70909900  1
  C  34  1  0.24714900  0.68657200  0.71387900  1
  C  35  1  0.22967200  0.68635800  0.73035400  1
  C  36  1  0.19217300  0.69774500  0.76256800  1
  C  37  1  0.17129200  0.68873800  0.75189200  1
  C  38  1  0.15531600  0.67425200  0.76279500  1
  C  39  1  0.15947000  0.66833200  0.78477200  1
  C  40  1  0.18062700  0.67727300  0.79531000  1
  C  41  1  0.19672400  0.69173700  0.78438900  1
  C  42  1  0.19020400  0.81090200  0.76224900  1
  C  43  1  0.16730600  0.81697400  0.75272600  1
  C  44  1  0.19632400  0.81945500  0.78288900  1
  C  45  1  0.17986700  0.83365900  0.79375000  1
  C  46  1  0.15670000  0.83966300  0.78441000  1
  C  47  1  0.15091000  0.83108200  0.76361900  1
  C  64  1  0.13929700  0.85293100  0.79493200  1
  C  66  1  0.12772800  0.87436500  0.82583200  1
  C  67  1  0.13875100  0.88790700  0.84165300  1
  C  68  1  0.12404000  0.90110900  0.85528100  1
  C  69  1  0.09778200  0.90122000  0.85363700  1
  C  70  1  0.08654300  0.88702800  0.83827500  1
  C  73  1  0.10139800  0.87403700  0.82452500  1
  C  79  1  0.26994400  0.71503000  0.69268200  1
  C  80  1  0.27540200  0.73710000  0.68772000  1
  C  82  1  0.27516500  0.77359800  0.68790100  1
  C  83  1  0.26943300  0.79554700  0.69314200  1
  C  84  1  0.28050800  0.81211500  0.67993000  1
  C  85  1  0.30593300  0.81780900  0.68202900  1
  C  86  1  0.28090900  0.69885500  0.67900700  1
  C  87  1  0.30491400  0.69041900  0.68324200  1
  C  91  1  0.14235200  0.65478400  0.79525400  1
  C  95  1  0.29091300  0.76671800  0.67120600  1
  C  96  1  0.29116000  0.74430800  0.67117000  1
  C  97  1  0.31687000  0.83328000  0.66804400  1
  C  98  1  0.30270700  0.84361100  0.65157300  1
  C  99  1  0.26635200  0.82227200  0.66345600  1
  C  100  1  0.31643200  0.67608200  0.66844900  1
  C  101  1  0.26867900  0.69250600  0.65970900  1
  C  107  1  0.08965300  0.62068500  0.83815900  1
  C  108  1  0.10437500  0.63396200  0.82468700  1
  C  109  1  0.13063100  0.63438800  0.82676900  1
  C  110  1  0.14167400  0.62125600  0.84303400  1
  C  113  1  0.27723000  0.83783700  0.64965400  1
  C  114  1  0.30442200  0.66984400  0.64888100  1
  C  115  1  0.28022300  0.67823100  0.64497700  1
  C  117  1  0.31253500  0.85942200  0.63774100  1
  C  119  1  0.31539300  0.65620500  0.63342400  1
  C  122  1  0.10057500  0.60754900  0.85448400  1
  C  123  1  0.12677100  0.60808000  0.85663900  1
  C  127  1  0.34860300  0.87527300  0.62063800  1
  C  128  1  0.37479100  0.87316800  0.61983700  1
  C  133  1  0.37554000  0.63966200  0.61771000  1
  C  134  1  0.35005400  0.63529000  0.62136000  1
  C  136  1  0.06421800  0.59297500  0.87207800  1
  C  139  1  0.33748100  0.89141900  0.60741200  1
  C  140  1  0.38950300  0.88679800  0.60651100  1
  C  143  1  0.38990900  0.62640400  0.60387000  1
  C  144  1  0.33933100  0.61690100  0.61106000  1
  C  146  1  0.05407300  0.57861700  0.88725800  1
  C  147  1  0.02970600  0.58243100  0.89525500  1
  C  149  1  0.01953900  0.97379900  0.01326900  1
  C  150  1  0.02498400  0.96888200  0.99118800  1
  C  151  1  0.03043100  0.96000300  0.02940500  1
  C  152  1  0.05431900  0.96426200  0.03809200  1
  C  153  1  0.06594300  0.94921700  0.05213300  1
  C  154  1  0.05414900  0.92938100  0.05779600  1
  C  155  1  0.03004900  0.92546000  0.04919600  1
  C  156  1  0.01838200  0.94046400  0.03524900  1
  C  163  1  0.06553200  0.91345200  0.07062300  1
  C  165  1  0.45482500  0.97735000  0.51350700  1
  C  166  1  0.44956600  0.97232700  0.49142100  1
  C  168  1  0.45015300  0.97239200  0.45493900  1
  C  169  1  0.43191100  0.95768400  0.46173200  1
  C  170  1  0.43159300  0.95760400  0.48413600  1
  C  171  1  0.45598800  0.97765900  0.43301500  1
  C  172  1  0.44146800  0.96730000  0.41644200  1
  C  173  1  0.42080500  0.97820000  0.40733300  1
  C  174  1  0.40472600  0.96749300  0.39276600  1
  C  175  1  0.40854100  0.94548000  0.38685600  1
  C  176  1  0.42951200  0.93472600  0.39586900  1
  C  177  1  0.44569900  0.94544300  0.41043200  1
  C  178  1  0.43977100  0.96692800  0.52960900  1
  C  179  1  0.41682600  0.97630400  0.53569200  1
  C  180  1  0.44604500  0.94631400  0.53812900  1
  C  181  1  0.42972800  0.93536500  0.55239500  1
  C  182  1  0.40655000  0.94458800  0.55846200  1
  C  183  1  0.40056400  0.96532600  0.54986500  1
  C  192  1  0.39137100  0.93521000  0.37315000  1
  C  193  1  0.38943000  0.93408300  0.57200600  1
  C  196  1  0.25031600  0.82382100  0.23118900  1
  C  197  1  0.23242900  0.82406800  0.21502100  1
  C  198  1  0.22632800  0.80260500  0.20982200  1
  C  200  1  0.25548000  0.80220400  0.23643600  1
  C  201  1  0.27328900  0.79533100  0.25218200  1
  C  202  1  0.27843700  0.77326400  0.25739600  1
  C  204  1  0.27793400  0.73677100  0.25744200  1
  C  205  1  0.29600000  0.74365300  0.27228400  1
  C  206  1  0.29624200  0.76605700  0.27231800  1
  C  207  1  0.27223500  0.71481500  0.25216700  1
  C  208  1  0.25453900  0.70842500  0.23609800  1
  C  210  1  0.22579100  0.70881900  0.20916600  1
  C  211  1  0.23165000  0.68720600  0.21386300  1
  C  212  1  0.24915200  0.68696300  0.23035300  1
  C  213  1  0.20882400  0.71570300  0.19273200  1
  C  214  1  0.20318700  0.73777100  0.18790900  1
  C  216  1  0.20323000  0.77427500  0.18821700  1
  C  217  1  0.18742100  0.76737800  0.17153900  1
  C  218  1  0.18731700  0.74497100  0.17140700  1
  C  219  1  0.20900300  0.79623300  0.19342200  1
  C  220  1  0.19796500  0.81279900  0.18015600  1
  C  221  1  0.17254800  0.81850300  0.18216100  1
  C  222  1  0.16161800  0.83385900  0.16803300  1
  C  223  1  0.17576500  0.84407500  0.15148700  1
  C  224  1  0.20124000  0.83831000  0.14968400  1
  C  225  1  0.21211200  0.82285300  0.16363000  1
  C  226  1  0.19798900  0.69957100  0.17890500  1
  C  227  1  0.17409800  0.69087900  0.18308100  1
  C  228  1  0.16250300  0.67688800  0.16797700  1
  C  229  1  0.17433100  0.67128100  0.14816200  1
  C  230  1  0.19843800  0.67987600  0.14432500  1
  C  231  1  0.21007400  0.69378100  0.15938700  1
  C  232  1  0.28685300  0.69830600  0.26251700  1
  C  233  1  0.30753000  0.68930800  0.25158800  1
  C  234  1  0.32363100  0.67472300  0.26223800  1
  C  235  1  0.31983200  0.66868300  0.28422300  1
  C  236  1  0.29887300  0.67761000  0.29501800  1
  C  237  1  0.28265800  0.69218200  0.28435600  1
  C  238  1  0.28853400  0.81144800  0.26240700  1
  C  239  1  0.31187800  0.81679700  0.25330800  1
  C  240  1  0.28210500  0.82051200  0.28273300  1
  C  241  1  0.29875300  0.83444200  0.29375900  1
  C  242  1  0.32242000  0.83960100  0.28491100  1
  C  243  1  0.32847400  0.83062300  0.26437300  1
  C  270  1  0.34010000  0.85227100  0.29581600  1
  C  271  1  0.16587700  0.85967700  0.13741200  1
  C  274  1  0.35032000  0.87581600  0.32545900  1
  C  275  1  0.33899400  0.89218300  0.33807900  1
  C  276  1  0.35332900  0.90584800  0.35155800  1
  C  277  1  0.37953600  0.90352500  0.35293100  1
  C  278  1  0.39091500  0.88682400  0.34065400  1
  C  281  1  0.37644400  0.87313000  0.32723200  1
  C  287  1  0.12940900  0.87548800  0.12079300  1
  C  288  1  0.14007600  0.89070600  0.10624500  1
  C  289  1  0.12499900  0.90424100  0.09327500  1
  C  290  1  0.09877900  0.90290500  0.09416200  1
  C  291  1  0.08792200  0.88802300  0.10904500  1
  C  294  1  0.10316400  0.87438800  0.12188100  1
  C  300  1  0.35200800  0.90491000  0.59398800  1
  C  301  1  0.37827300  0.90296700  0.59338000  1
  C  304  1  0.16297600  0.65850800  0.13217600  1
  C  305  1  0.33701700  0.65494400  0.29442100  1
  C  313  1  0.38951600  0.61965800  0.33713200  1
  C  314  1  0.37512800  0.63320800  0.32358300  1
  C  315  1  0.34892700  0.63451400  0.32596200  1
  C  316  1  0.33761300  0.62209600  0.34261400  1
  C  318  1  0.08843100  0.62307500  0.10916000  1
  C  319  1  0.10349900  0.63598100  0.12276000  1
  C  320  1  0.12972000  0.63505000  0.12149900  1
  C  321  1  0.14058400  0.62018800  0.10662700  1
  C  323  1  0.37945800  0.60798400  0.59367900  1
  C  324  1  0.35395300  0.60351000  0.59748200  1
  C  326  1  0.37825300  0.60689600  0.35344300  1
  C  328  1  0.35213700  0.60859400  0.35618700  1
  C  330  1  0.09910500  0.60855000  0.09394800  1
  C  331  1  0.12534900  0.60741700  0.09292400  1
  C  337  1  0.06264100  0.59210000  0.07794900  1
  C  345  1  0.42995900  0.57687700  0.55085100  1
  C  346  1  0.42990000  0.57509100  0.39464400  1
  C  349  1  0.39241100  0.57614300  0.57427700  1
  C  350  1  0.38858600  0.57707500  0.37674700  1
  C  352  1  0.05277300  0.57802600  0.06234100  1
  C  353  1  0.02728700  0.57980400  0.05655300  1
  C  354  1  0.97864000  0.01299900  0.90528900  1
  C  355  1  0.99646100  0.99680600  0.90498400  1
  C  356  1  0.00202600  0.99103900  0.92641900  1
  C  358  1  0.97300600  0.01773700  0.92692400  1
  C  359  1  0.95518300  0.03342500  0.93383000  1
  C  360  1  0.94993200  0.03850100  0.95589700  1
  C  362  1  0.93228500  0.05322100  0.98551600  1
  C  363  1  0.93199300  0.05325700  0.96311000  1
  C  364  1  0.94013400  0.04382200  0.91769200  1
  C  365  1  0.91724000  0.03436700  0.91150300  1
  C  366  1  0.94637500  0.06446700  0.90923100  1
  C  367  1  0.93005000  0.07538800  0.89493500  1
  C  368  1  0.90691600  0.06609600  0.88876800  1
  C  369  1  0.90097800  0.04531600  0.89729100  1
  C  378  1  0.88979400  0.07657300  0.87519100  1
  C  380  1  0.72835600  0.18741400  0.71643100  1
  C  381  1  0.74623600  0.18720500  0.73260400  1
  C  382  1  0.75219200  0.20868000  0.73787600  1
  C  384  1  0.72307100  0.20902200  0.71123900  1
  C  386  1  0.72421500  0.30276600  0.71135600  1
  C  388  1  0.75294300  0.30243100  0.73828800  1
  C  389  1  0.74713800  0.32403600  0.73350400  1
  C  390  1  0.72964700  0.32424200  0.71700700  1
  C  391  1  0.76992700  0.29558500  0.75472200  1
  C  392  1  0.77540700  0.27353100  0.75970700  1
  C  394  1  0.77522100  0.23704100  0.75952600  1
  C  395  1  0.79101600  0.24394500  0.77621100  1
  C  396  1  0.79121800  0.26635300  0.77626200  1
  C  397  1  0.76948100  0.21508900  0.75428700  1
  C  398  1  0.78058800  0.19853200  0.76749300  1
  C  399  1  0.80599800  0.19284900  0.76537400  1
  C  400  1  0.81696500  0.17737400  0.77934300  1
  C  401  1  0.80284200  0.16703300  0.79581200  1
  C  402  1  0.77737800  0.17279900  0.79775400  1
  C  403  1  0.76647300  0.18836900  0.78396900  1
  C  404  1  0.78089400  0.31176300  0.76840300  1
  C  405  1  0.80484100  0.32028200  0.76412600  1
  C  406  1  0.81636200  0.33465500  0.77891000  1
  C  407  1  0.80440900  0.34081100  0.79850300  1
  C  408  1  0.78026000  0.33233600  0.80244300  1
  C  409  1  0.76869900  0.31804600  0.78771000  1
  C  428  1  0.81540900  0.35445400  0.81395100  1
  C  429  1  0.81269900  0.15122000  0.80962700  1
  C  433  1  0.95061800  0.47189300  0.95532700  1
  C  434  1  0.93246400  0.45716100  0.96223300  1
  C  435  1  0.93220800  0.45720900  0.98463700  1
  C  436  1  0.95638600  0.47704600  0.93336600  1
  C  437  1  0.97418500  0.49299300  0.92693300  1
  C  439  1  0.00309700  0.51977700  0.92723500  1
  C  440  1  0.99745200  0.51480900  0.90563100  1
  C  441  1  0.97984300  0.49842100  0.90544600  1
  C  442  1  0.02015200  0.53617600  0.93404700  1
  C  443  1  0.02556900  0.54127200  0.95608600  1
  C  445  1  0.04098100  0.55798600  0.98563000  1
  C  446  1  0.04123400  0.55793900  0.96322000  1
  C  447  1  0.03126200  0.54966100  0.91778700  1
  C  448  1  0.05556300  0.54565600  0.90992600  1
  C  449  1  0.06677200  0.55990300  0.89484800  1
  C  450  1  0.01850700  0.56827100  0.91030900  1
  C  451  1  0.94188800  0.46656900  0.91686200  1
  C  452  1  0.92142800  0.47752700  0.90748600  1
  C  453  1  0.90553600  0.46684500  0.89275400  1
  C  454  1  0.90932200  0.44479500  0.88695500  1
  C  455  1  0.93001200  0.43394600  0.89632400  1
  C  456  1  0.94604700  0.44465200  0.91102100  1
  C  468  1  0.89245500  0.43467200  0.87287100  1
  C  470  1  0.87945000  0.40277500  0.85361000  1
  C  471  1  0.88990600  0.38436200  0.84345600  1
  C  472  1  0.87552700  0.37108400  0.82960700  1
  C  473  1  0.85004900  0.37546000  0.82591000  1
  C  474  1  0.83931800  0.39383500  0.83618200  1
  C  477  1  0.85394800  0.40724100  0.84977300  1
  C  483  1  0.84881000  0.13541500  0.82672100  1
  C  484  1  0.83772500  0.11923900  0.83992300  1
  C  485  1  0.85229000  0.10575600  0.85333700  1
  C  486  1  0.87855600  0.10773000  0.85393600  1
  C  487  1  0.88974900  0.12393600  0.84083600  1
  C  490  1  0.87500000  0.13755800  0.82752300  1
  C  496  1  0.70527500  0.21584800  0.69546000  1
  C  497  1  0.70010700  0.23790000  0.69024200  1
  C  498  1  0.70072400  0.27437800  0.69011000  1
  C  499  1  0.68255500  0.26750500  0.67535600  1
  C  500  1  0.68221400  0.24510200  0.67540200  1
  C  501  1  0.70653000  0.29632800  0.69530500  1
  C  502  1  0.69207800  0.31281800  0.68479800  1
  C  503  1  0.67124000  0.32180900  0.69548600  1
  C  504  1  0.65527100  0.33632900  0.68461400  1
  C  505  1  0.69010500  0.19969200  0.68521300  1
  C  506  1  0.66727200  0.19357600  0.69479200  1
  C  507  1  0.65085200  0.17942000  0.68394000  1
  C  510  1  0.65938400  0.34227800  0.66264500  1
  C  511  1  0.68048900  0.33333333  0.65209000  1
  C  512  1  0.69656900  0.31883600  0.66297700  1
  C  513  1  0.69614100  0.19116700  0.66456300  1
  C  514  1  0.67964700  0.17694600  0.65373000  1
  C  515  1  0.65655600  0.17087200  0.66313500  1
  C  520  1  0.64228500  0.35587000  0.65219200  1
  C  521  1  0.63914900  0.15755700  0.65264700  1
  C  529  1  0.60426900  0.37669800  0.62278200  1
  C  530  1  0.63051500  0.37624500  0.62067700  1
  C  532  1  0.62749500  0.13627600  0.62168200  1
  C  533  1  0.60116900  0.13665300  0.62294200  1
  C  534  1  0.58953900  0.38998900  0.60932100  1
  C  535  1  0.64154300  0.38936200  0.60440700  1
  C  538  1  0.63849200  0.12273800  0.60587900  1
  C  539  1  0.58628000  0.12367500  0.60917300  1
  C  542  1  0.95049800  0.03852700  0.99238500  1
  C  543  1  0.95631200  0.03330800  0.01433700  1
  C  544  1  0.97406100  0.01727300  0.02066900  1
  C  546  1  0.00273000  0.99031000  0.02019600  1
  C  547  1  0.99706500  0.99507600  0.04182600  1
  C  548  1  0.97960700  0.01157500  0.04211600  1
  C  549  1  0.94179100  0.04368800  0.03087900  1
  C  550  1  0.92116700  0.03276200  0.04001400  1
  C  551  1  0.90508600  0.04346300  0.05454900  1
  C  552  1  0.90884200  0.06550400  0.06041400  1
  C  553  1  0.92975500  0.07629400  0.05136400  1
  C  554  1  0.94594400  0.06558300  0.03683200  1
  C  562  1  0.89164100  0.07576000  0.07407400  1
  C  564  1  0.47839100  0.99770000  0.54209000  1
  C  565  1  0.49623400  0.01389200  0.54242300  1
  C  566  1  0.50172400  0.01971800  0.52099900  1
  C  568  1  0.47270300  0.99300500  0.52044400  1
  C  569  1  0.47379500  0.99365400  0.42670700  1
  C  571  1  0.50254300  0.02057300  0.42722800  1
  C  572  1  0.49684100  0.01583400  0.40558800  1
  C  573  1  0.47935800  0.99933800  0.40526700  1
  C  574  1  0.51940800  0.03705500  0.43418500  1
  C  575  1  0.52476200  0.04199800  0.45628700  1
  C  577  1  0.52449200  0.04171000  0.49279900  1
  C  578  1  0.54017400  0.05849500  0.48597800  1
  C  579  1  0.54044000  0.05860100  0.46356700  1
  C  580  1  0.51884500  0.03631800  0.51473600  1
  C  581  1  0.53043400  0.04905700  0.53145100  1
  C  582  1  0.55607500  0.04684400  0.53634500  1
  C  583  1  0.56744100  0.05985700  0.55241300  1
  C  584  1  0.55343000  0.07533200  0.56420800  1
  C  585  1  0.52778000  0.07748100  0.55930000  1
  C  586  1  0.51652000  0.06473600  0.54301600  1
  C  587  1  0.53033000  0.05086700  0.41808200  1
  C  588  1  0.55416000  0.04654600  0.40935900  1
  C  589  1  0.56580900  0.06157000  0.39531900  1
  C  590  1  0.55411200  0.08145900  0.38970000  1
  C  591  1  0.53006600  0.08543900  0.39833100  1
  C  592  1  0.51837800  0.07046100  0.41228400  1
  C  611  1  0.56551700  0.09736400  0.37685700  1
  C  612  1  0.56365400  0.08728700  0.58117200  1
  C  615  1  0.75039600  0.18678500  0.21629300  1
  C  616  1  0.73252200  0.18653700  0.23244100  1
  C  617  1  0.72650600  0.20799800  0.23768600  1
  C  619  1  0.75562000  0.20840100  0.21107900  1
  C  620  1  0.77344600  0.21527300  0.19536900  1
  C  621  1  0.77859500  0.23735500  0.19019400  1
  C  623  1  0.77810500  0.27385900  0.19017700  1
  C  624  1  0.79615400  0.26699500  0.17535500  1
  C  625  1  0.79640400  0.24458900  0.17531700  1
  C  626  1  0.77242300  0.29581400  0.19544700  1
  C  627  1  0.75473700  0.30219900  0.21149100  1
  C  629  1  0.72599400  0.30180100  0.23838500  1
  C  630  1  0.73188100  0.32341500  0.23369800  1
  C  631  1  0.74935300  0.32365900  0.21721600  1
  C  632  1  0.70900400  0.29492200  0.25478300  1
  C  633  1  0.70345100  0.27283900  0.25963800  1
  C  635  1  0.70353100  0.23632400  0.25933800  1
  C  636  1  0.68774500  0.24320500  0.27600200  1
  C  637  1  0.68761500  0.26561300  0.27612800  1
  C  638  1  0.70924600  0.21436600  0.25410300  1
  C  639  1  0.69817300  0.19779000  0.26733700  1
  C  640  1  0.67273200  0.19212700  0.26530000  1
  C  641  1  0.66175800  0.17679100  0.27941800  1
  C  642  1  0.67587600  0.16654900  0.29598300  1
  C  643  1  0.70138100  0.17226000  0.29780700  1
  C  644  1  0.71230200  0.18769000  0.28386700  1
  C  645  1  0.69818300  0.31105100  0.26861400  1
  C  646  1  0.67428900  0.31974300  0.26442300  1
  C  647  1  0.66271500  0.33373200  0.27951800  1
  C  648  1  0.67454800  0.33933500  0.29935900  1
  C  649  1  0.69865600  0.33074100  0.30321200  1
  C  650  1  0.71026600  0.31683300  0.28816600  1
  C  651  1  0.78701300  0.31233400  0.18507900  1
  C  652  1  0.80772100  0.32137000  0.19599000  1
  C  653  1  0.82380300  0.33594500  0.18531500  1
  C  654  1  0.81995800  0.34194200  0.16331500  1
  C  655  1  0.79895100  0.33299700  0.15254400  1
  C  656  1  0.78275600  0.31842800  0.16323200  1
  C  657  1  0.78866000  0.19916000  0.18512700  1
  C  658  1  0.81205000  0.19384300  0.19419000  1
  C  659  1  0.78222000  0.19012900  0.16476800  1
  C  660  1  0.79886300  0.17625600  0.15370400  1
  C  661  1  0.82256600  0.17112700  0.16252700  1
  C  662  1  0.82864900  0.18008500  0.18308500  1
  C  689  1  0.66322700  0.35211600  0.31534400  1
  C  690  1  0.83712800  0.35567300  0.15309000  1
  C  691  1  0.84026900  0.15854300  0.15158200  1
  C  692  1  0.66594300  0.15096500  0.31005300  1
  C  697  1  0.47865700  0.51237800  0.40509600  1
  C  698  1  0.49653900  0.49622700  0.40494800  1
  C  699  1  0.50245900  0.49098000  0.42644300  1
  C  701  1  0.47334200  0.51759600  0.42668300  1
  C  702  1  0.45548800  0.53331400  0.43345400  1
  C  703  1  0.45022400  0.53855900  0.45548500  1
  C  705  1  0.45066700  0.53879000  0.49197600  1
  C  706  1  0.43248300  0.55345200  0.48498700  1
  C  707  1  0.43227300  0.55336700  0.46258100  1
  C  708  1  0.45641800  0.53369900  0.51396600  1
  C  709  1  0.47418100  0.51773300  0.52043200  1
  C  711  1  0.50302600  0.49091900  0.52018800  1
  C  712  1  0.49741300  0.49591800  0.54178100  1
  C  713  1  0.47984400  0.51232200  0.54192800  1
  C  714  1  0.52004100  0.47450200  0.51341500  1
  C  715  1  0.52548800  0.46938000  0.49139600  1
  C  717  1  0.52535100  0.46938500  0.45489700  1
  C  718  1  0.54099200  0.45265500  0.46192300  1
  C  719  1  0.54115400  0.45270400  0.48433400  1
  C  720  1  0.51969100  0.47455000  0.43290100  1
  C  721  1  0.53077400  0.46125300  0.41640200  1
  C  722  1  0.55624900  0.46317000  0.41085300  1
  C  723  1  0.56720200  0.44903900  0.39553900  1
  C  724  1  0.55303100  0.43256700  0.38520400  1
  C  725  1  0.52750000  0.43084300  0.39082800  1
  C  726  1  0.51660100  0.44480000  0.40623000  1
  C  727  1  0.53113900  0.46104300  0.52970800  1
  C  728  1  0.55546100  0.46504400  0.53758000  1
  C  729  1  0.56666000  0.45080600  0.55268100  1
  C  730  1  0.55392700  0.43210800  0.56027300  1
  C  731  1  0.52953800  0.42830300  0.55226900  1
  C  732  1  0.51834400  0.44245500  0.53719600  1
  C  733  1  0.44190600  0.54419900  0.53043100  1
  C  734  1  0.42148700  0.53323000  0.53984900  1
  C  735  1  0.40559400  0.54392200  0.55453700  1
  C  736  1  0.40931300  0.56601000  0.56025400  1
  C  737  1  0.44598400  0.56616100  0.53618500  1
  C  738  1  0.44032100  0.54350800  0.41726400  1
  C  739  1  0.41708300  0.53428700  0.41171900  1
  C  740  1  0.44660400  0.56400600  0.40847400  1
  C  741  1  0.40633900  0.56611100  0.38927900  1
  C  742  1  0.40043400  0.54540600  0.39798100  1
  C  765  1  0.56406300  0.41776700  0.57547300  1
  C  766  1  0.56293300  0.41847900  0.36963100  1
  C  770  1  0.97852900  0.49819900  0.04226900  1
  C  771  1  0.99639800  0.51437600  0.04245500  1
  C  772  1  0.00234600  0.51961100  0.02097200  1
  C  774  1  0.97323600  0.49296800  0.02067100  1
  C  775  1  0.95537400  0.47724200  0.01386400  1
  C  776  1  0.95013700  0.47203100  0.99181100  1
  C  777  1  0.02531400  0.54123600  0.99257800  1
  C  778  1  0.01959300  0.53603900  0.01454300  1
  C  779  1  0.03061600  0.54935100  0.03106900  1
  C  780  1  0.05604400  0.54737700  0.03678400  1
  C  781  1  0.06695300  0.56151000  0.05214100  1
  C  782  1  0.01643000  0.56584400  0.04110500  1
  C  783  1  0.94020400  0.46700700  0.03001200  1
  C  784  1  0.91690700  0.47613600  0.03544000  1
  C  785  1  0.94657100  0.44658000  0.03891900  1
  C  786  1  0.92990600  0.43548300  0.05276100  1
  C  787  1  0.90627700  0.44435600  0.05798100  1
  C  788  1  0.90028100  0.46498700  0.04915400  1
  C  801  1  0.88854500  0.43336400  0.07050400  1
  C  803  1  0.85052800  0.13497100  0.12195300  1
  C  804  1  0.83924100  0.11858800  0.10928400  1
  C  805  1  0.85359300  0.10498000  0.09579700  1
  C  806  1  0.87979900  0.10734900  0.09446100  1
  C  807  1  0.89114300  0.12405200  0.10680400  1
  C  810  1  0.87665300  0.13769400  0.12023100  1
  C  816  1  0.60044200  0.40311400  0.59299200  1
  C  817  1  0.62662900  0.40255700  0.59081500  1
  C  821  1  0.62945100  0.13523200  0.32668900  1
  C  822  1  0.64009200  0.11999800  0.34124500  1
  C  823  1  0.62499500  0.10649900  0.35422300  1
  C  824  1  0.59877900  0.10789400  0.35335600  1
  C  825  1  0.58794600  0.12278400  0.33845500  1
  C  828  1  0.60320700  0.13637900  0.32560500  1
  C  834  1  0.62374900  0.10954500  0.59223700  1
  C  835  1  0.59749500  0.10946600  0.59385100  1
  C  839  1  0.87827800  0.40363700  0.09396300  1
  C  840  1  0.88955900  0.39096000  0.11034100  1
  C  841  1  0.87519800  0.37742100  0.12391300  1
  C  842  1  0.84899500  0.37605900  0.12151000  1
  C  843  1  0.83766000  0.38840200  0.10480000  1
  C  846  1  0.85215800  0.40188000  0.09119400  1
  C  852  1  0.59937300  0.40203500  0.35363900  1
  C  853  1  0.58867200  0.38751600  0.33840100  1
  C  854  1  0.60371000  0.37460200  0.32481700  1
  C  855  1  0.62993600  0.37549000  0.32611900  1
  C  856  1  0.64082600  0.39035600  0.34100900  1
  C  859  1  0.62562500  0.40314300  0.35468900  1
  C  866  1  0.83853800  0.96915000  0.95467000  1
  C  867  1  0.85417400  0.95236900  0.96156600  1
  C  868  1  0.85436800  0.95227100  0.98397700  1
  C  869  1  0.83290500  0.97448400  0.93270500  1
  C  870  1  0.84448700  0.96171200  0.91602000  1
  C  871  1  0.87015700  0.96382300  0.91123100  1
  C  872  1  0.88150600  0.95076800  0.89521000  1
  C  873  1  0.86745400  0.93533700  0.88334300  1
  C  874  1  0.84178000  0.93327300  0.88816200  1
  C  875  1  0.83053900  0.94606200  0.90439500  1
  C  881  1  0.87764400  0.92334200  0.86639400  1
  C  883  1  0.04208400  0.82319300  0.73097700  1
  C  884  1  0.05991800  0.82341200  0.71479800  1
  C  885  1  0.06586800  0.80194100  0.70953500  1
  C  887  1  0.03680800  0.80158300  0.73618000  1
  C  888  1  0.01904600  0.79475700  0.75196200  1
  C  889  1  0.01390000  0.77268600  0.75715600  1
  C  891  1  0.01451300  0.73619900  0.75724700  1
  C  892  1  0.99642053  0.74304900  0.77204000  1
  C  893  1  0.99605753  0.76545200  0.77199600  1
  C  894  1  0.02029200  0.71425200  0.75203600  1
  C  895  1  0.03796000  0.70783100  0.73600100  1
  C  897  1  0.06667600  0.70818000  0.70909900  1
  C  898  1  0.06086000  0.68657200  0.71387900  1
  C  899  1  0.04338300  0.68635800  0.73035400  1
  C  900  1  0.00588400  0.69774500  0.76256800  1
  C  901  1  0.98500250  0.68873800  0.75189200  1
  C  902  1  0.96902650  0.67425200  0.76279500  1
  C  903  1  0.97318050  0.66833200  0.78477200  1
  C  904  1  0.99433753  0.67727300  0.79531000  1
  C  905  1  0.01043500  0.69173700  0.78438900  1
  C  906  1  0.00391500  0.81090200  0.76224900  1
  C  907  1  0.98101650  0.81697400  0.75272600  1
  C  908  1  0.01003500  0.81945500  0.78288900  1
  C  909  1  0.99357753  0.83365900  0.79375000  1
  C  910  1  0.97041050  0.83966300  0.78441000  1
  C  911  1  0.96462050  0.83108200  0.76361900  1
  C  928  1  0.95300750  0.85293100  0.79493200  1
  C  930  1  0.94143850  0.87436500  0.82583200  1
  C  931  1  0.95246150  0.88790700  0.84165300  1
  C  932  1  0.93775050  0.90110900  0.85528100  1
  C  933  1  0.91149250  0.90122000  0.85363700  1
  C  934  1  0.90025350  0.88702800  0.83827500  1
  C  937  1  0.91510850  0.87403700  0.82452500  1
  C  943  1  0.08365500  0.71503000  0.69268200  1
  C  944  1  0.08911300  0.73710000  0.68772000  1
  C  946  1  0.08887600  0.77359800  0.68790100  1
  C  947  1  0.08314400  0.79554700  0.69314200  1
  C  948  1  0.09421900  0.81211500  0.67993000  1
  C  949  1  0.11964400  0.81780900  0.68202900  1
  C  950  1  0.09462000  0.69885500  0.67900700  1
  C  951  1  0.11862500  0.69041900  0.68324200  1
  C  955  1  0.95606250  0.65478400  0.79525400  1
  C  959  1  0.10462400  0.76671800  0.67120600  1
  C  960  1  0.10487100  0.74430800  0.67117000  1
  C  961  1  0.13058100  0.83328000  0.66804400  1
  C  962  1  0.11641800  0.84361100  0.65157300  1
  C  963  1  0.08006300  0.82227200  0.66345600  1
  C  964  1  0.13014300  0.67608200  0.66844900  1
  C  965  1  0.08239000  0.69250600  0.65970900  1
  C  971  1  0.90336350  0.62068500  0.83815900  1
  C  972  1  0.91808550  0.63396200  0.82468700  1
  C  973  1  0.94434150  0.63438800  0.82676900  1
  C  974  1  0.95538450  0.62125600  0.84303400  1
  C  977  1  0.09094100  0.83783700  0.64965400  1
  C  978  1  0.11813300  0.66984400  0.64888100  1
  C  979  1  0.09393400  0.67823100  0.64497700  1
  C  981  1  0.12624600  0.85942200  0.63774100  1
  C  983  1  0.12910400  0.65620500  0.63342400  1
  C  986  1  0.91428550  0.60754900  0.85448400  1
  C  987  1  0.94048150  0.60808000  0.85663900  1
  C  991  1  0.16231400  0.87527300  0.62063800  1
  C  992  1  0.18850200  0.87316800  0.61983700  1
  C  997  1  0.18925100  0.63966200  0.61771000  1
  C  998  1  0.16376500  0.63529000  0.62136000  1
  C  1000  1  0.87792900  0.59297500  0.87207800  1
  C  1003  1  0.15119200  0.89141900  0.60741200  1
  C  1004  1  0.20321400  0.88679800  0.60651100  1
  C  1007  1  0.20362000  0.62640400  0.60387000  1
  C  1008  1  0.15304200  0.61690100  0.61106000  1
  C  1010  1  0.86778400  0.57861700  0.88725800  1
  C  1011  1  0.84341700  0.58243100  0.89525500  1
  C  1013  1  0.83325000  0.97379900  0.01326900  1
  C  1014  1  0.83869500  0.96888200  0.99118800  1
  C  1015  1  0.84414200  0.96000300  0.02940500  1
  C  1016  1  0.86803000  0.96426200  0.03809200  1
  C  1017  1  0.87965400  0.94921700  0.05213300  1
  C  1018  1  0.86786000  0.92938100  0.05779600  1
  C  1019  1  0.84376000  0.92546000  0.04919600  1
  C  1020  1  0.83209300  0.94046400  0.03524900  1
  C  1027  1  0.87924300  0.91345200  0.07062300  1
  C  1029  1  0.26853600  0.97735000  0.51350700  1
  C  1030  1  0.26327700  0.97232700  0.49142100  1
  C  1032  1  0.26386400  0.97239200  0.45493900  1
  C  1033  1  0.24562200  0.95768400  0.46173200  1
  C  1034  1  0.24530400  0.95760400  0.48413600  1
  C  1035  1  0.26969900  0.97765900  0.43301500  1
  C  1036  1  0.25517900  0.96730000  0.41644200  1
  C  1037  1  0.23451600  0.97820000  0.40733300  1
  C  1038  1  0.21843700  0.96749300  0.39276600  1
  C  1039  1  0.22225200  0.94548000  0.38685600  1
  C  1040  1  0.24322300  0.93472600  0.39586900  1
  C  1041  1  0.25941000  0.94544300  0.41043200  1
  C  1042  1  0.25348200  0.96692800  0.52960900  1
  C  1043  1  0.23053700  0.97630400  0.53569200  1
  C  1044  1  0.25975600  0.94631400  0.53812900  1
  C  1045  1  0.24343900  0.93536500  0.55239500  1
  C  1046  1  0.22026100  0.94458800  0.55846200  1
  C  1047  1  0.21427500  0.96532600  0.54986500  1
  C  1056  1  0.20508200  0.93521000  0.37315000  1
  C  1057  1  0.20314100  0.93408300  0.57200600  1
  C  1060  1  0.06402700  0.82382100  0.23118900  1
  C  1061  1  0.04614000  0.82406800  0.21502100  1
  C  1062  1  0.04003900  0.80260500  0.20982200  1
  C  1064  1  0.06919100  0.80220400  0.23643600  1
  C  1065  1  0.08700000  0.79533100  0.25218200  1
  C  1066  1  0.09214800  0.77326400  0.25739600  1
  C  1068  1  0.09164500  0.73677100  0.25744200  1
  C  1069  1  0.10971100  0.74365300  0.27228400  1
  C  1070  1  0.10995300  0.76605700  0.27231800  1
  C  1071  1  0.08594600  0.71481500  0.25216700  1
  C  1072  1  0.06825000  0.70842500  0.23609800  1
  C  1074  1  0.03950200  0.70881900  0.20916600  1
  C  1075  1  0.04536100  0.68720600  0.21386300  1
  C  1076  1  0.06286300  0.68696300  0.23035300  1
  C  1077  1  0.02253500  0.71570300  0.19273200  1
  C  1078  1  0.01689800  0.73777100  0.18790900  1
  C  1080  1  0.01694100  0.77427500  0.18821700  1
  C  1081  1  0.00113200  0.76737800  0.17153900  1
  C  1082  1  0.00102800  0.74497100  0.17140700  1
  C  1083  1  0.02271400  0.79623300  0.19342200  1
  C  1084  1  0.01167600  0.81279900  0.18015600  1
  C  1085  1  0.98625850  0.81850300  0.18216100  1
  C  1086  1  0.97532850  0.83385900  0.16803300  1
  C  1087  1  0.98947550  0.84407500  0.15148700  1
  C  1088  1  0.01495100  0.83831000  0.14968400  1
  C  1089  1  0.02582300  0.82285300  0.16363000  1
  C  1090  1  0.01170000  0.69957100  0.17890500  1
  C  1091  1  0.98780850  0.69087900  0.18308100  1
  C  1092  1  0.97621350  0.67688800  0.16797700  1
  C  1093  1  0.98804150  0.67128100  0.14816200  1
  C  1094  1  0.01214900  0.67987600  0.14432500  1
  C  1095  1  0.02378500  0.69378100  0.15938700  1
  C  1096  1  0.10056400  0.69830600  0.26251700  1
  C  1097  1  0.12124100  0.68930800  0.25158800  1
  C  1098  1  0.13734200  0.67472300  0.26223800  1
  C  1099  1  0.13354300  0.66868300  0.28422300  1
  C  1100  1  0.11258400  0.67761000  0.29501800  1
  C  1101  1  0.09636900  0.69218200  0.28435600  1
  C  1102  1  0.10224500  0.81144800  0.26240700  1
  C  1103  1  0.12558900  0.81679700  0.25330800  1
  C  1104  1  0.09581600  0.82051200  0.28273300  1
  C  1105  1  0.11246400  0.83444200  0.29375900  1
  C  1106  1  0.13613100  0.83960100  0.28491100  1
  C  1107  1  0.14218500  0.83062300  0.26437300  1
  C  1134  1  0.15381100  0.85227100  0.29581600  1
  C  1135  1  0.97958750  0.85967700  0.13741200  1
  C  1138  1  0.16403100  0.87581600  0.32545900  1
  C  1139  1  0.15270500  0.89218300  0.33807900  1
  C  1140  1  0.16704000  0.90584800  0.35155800  1
  C  1141  1  0.19324700  0.90352500  0.35293100  1
  C  1142  1  0.20462600  0.88682400  0.34065400  1
  C  1145  1  0.19015500  0.87313000  0.32723200  1
  C  1151  1  0.94311950  0.87548800  0.12079300  1
  C  1152  1  0.95378650  0.89070600  0.10624500  1
  C  1153  1  0.93870950  0.90424100  0.09327500  1
  C  1154  1  0.91248950  0.90290500  0.09416200  1
  C  1155  1  0.90163250  0.88802300  0.10904500  1
  C  1158  1  0.91687450  0.87438800  0.12188100  1
  C  1164  1  0.16571900  0.90491000  0.59398800  1
  C  1165  1  0.19198400  0.90296700  0.59338000  1
  C  1168  1  0.97668650  0.65850800  0.13217600  1
  C  1169  1  0.15072800  0.65494400  0.29442100  1
  C  1177  1  0.20322700  0.61965800  0.33713200  1
  C  1178  1  0.18883900  0.63320800  0.32358300  1
  C  1179  1  0.16263800  0.63451400  0.32596200  1
  C  1180  1  0.15132400  0.62209600  0.34261400  1
  C  1182  1  0.90214150  0.62307500  0.10916000  1
  C  1183  1  0.91720950  0.63598100  0.12276000  1
  C  1184  1  0.94343050  0.63505000  0.12149900  1
  C  1185  1  0.95429450  0.62018800  0.10662700  1
  C  1187  1  0.19316900  0.60798400  0.59367900  1
  C  1188  1  0.16766400  0.60351000  0.59748200  1
  C  1190  1  0.19196400  0.60689600  0.35344300  1
  C  1192  1  0.16584800  0.60859400  0.35618700  1
  C  1194  1  0.91281550  0.60855000  0.09394800  1
  C  1195  1  0.93905950  0.60741700  0.09292400  1
  C  1201  1  0.87635200  0.59210000  0.07794900  1
  C  1209  1  0.24367000  0.57687700  0.55085100  1
  C  1210  1  0.24361100  0.57509100  0.39464400  1
  C  1213  1  0.20612200  0.57614300  0.57427700  1
  C  1214  1  0.20229700  0.57707500  0.37674700  1
  C  1216  1  0.86648400  0.57802600  0.06234100  1
  C  1217  1  0.84099800  0.57980400  0.05655300  1
  C  1218  1  0.79235100  0.01299900  0.90528900  1
  C  1219  1  0.81017200  0.99680600  0.90498400  1
  C  1220  1  0.81573700  0.99103900  0.92641900  1
  C  1222  1  0.78671700  0.01773700  0.92692400  1
  C  1223  1  0.76889400  0.03342500  0.93383000  1
  C  1224  1  0.76364300  0.03850100  0.95589700  1
  C  1226  1  0.74599600  0.05322100  0.98551600  1
  C  1227  1  0.74570400  0.05325700  0.96311000  1
  C  1228  1  0.75384500  0.04382200  0.91769200  1
  C  1229  1  0.73095100  0.03436700  0.91150300  1
  C  1230  1  0.76008600  0.06446700  0.90923100  1
  C  1231  1  0.74376100  0.07538800  0.89493500  1
  C  1232  1  0.72062700  0.06609600  0.88876800  1
  C  1233  1  0.71468900  0.04531600  0.89729100  1
  C  1242  1  0.70350500  0.07657300  0.87519100  1
  C  1244  1  0.54206700  0.18741400  0.71643100  1
  C  1245  1  0.55994700  0.18720500  0.73260400  1
  C  1246  1  0.56590300  0.20868000  0.73787600  1
  C  1248  1  0.53678200  0.20902200  0.71123900  1
  C  1250  1  0.53792600  0.30276600  0.71135600  1
  C  1252  1  0.56665400  0.30243100  0.73828800  1
  C  1253  1  0.56084900  0.32403600  0.73350400  1
  C  1254  1  0.54335800  0.32424200  0.71700700  1
  C  1255  1  0.58363800  0.29558500  0.75472200  1
  C  1256  1  0.58911800  0.27353100  0.75970700  1
  C  1258  1  0.58893200  0.23704100  0.75952600  1
  C  1259  1  0.60472700  0.24394500  0.77621100  1
  C  1260  1  0.60492900  0.26635300  0.77626200  1
  C  1261  1  0.58319200  0.21508900  0.75428700  1
  C  1262  1  0.59429900  0.19853200  0.76749300  1
  C  1263  1  0.61970900  0.19284900  0.76537400  1
  C  1264  1  0.63067600  0.17737400  0.77934300  1
  C  1265  1  0.61655300  0.16703300  0.79581200  1
  C  1266  1  0.59108900  0.17279900  0.79775400  1
  C  1267  1  0.58018400  0.18836900  0.78396900  1
  C  1268  1  0.59460500  0.31176300  0.76840300  1
  C  1269  1  0.61855200  0.32028200  0.76412600  1
  C  1270  1  0.63007300  0.33465500  0.77891000  1
  C  1271  1  0.61812000  0.34081100  0.79850300  1
  C  1272  1  0.59397100  0.33233600  0.80244300  1
  C  1273  1  0.58241000  0.31804600  0.78771000  1
  C  1292  1  0.62912000  0.35445400  0.81395100  1
  C  1293  1  0.62641000  0.15122000  0.80962700  1
  C  1297  1  0.76432900  0.47189300  0.95532700  1
  C  1298  1  0.74617500  0.45716100  0.96223300  1
  C  1299  1  0.74591900  0.45720900  0.98463700  1
  C  1300  1  0.77009700  0.47704600  0.93336600  1
  C  1301  1  0.78789600  0.49299300  0.92693300  1
  C  1303  1  0.81680800  0.51977700  0.92723500  1
  C  1304  1  0.81116300  0.51480900  0.90563100  1
  C  1305  1  0.79355400  0.49842100  0.90544600  1
  C  1306  1  0.83386300  0.53617600  0.93404700  1
  C  1307  1  0.83928000  0.54127200  0.95608600  1
  C  1309  1  0.85469200  0.55798600  0.98563000  1
  C  1310  1  0.85494500  0.55793900  0.96322000  1
  C  1311  1  0.84497300  0.54966100  0.91778700  1
  C  1312  1  0.86927400  0.54565600  0.90992600  1
  C  1313  1  0.88048300  0.55990300  0.89484800  1
  C  1314  1  0.83221800  0.56827100  0.91030900  1
  C  1315  1  0.75559900  0.46656900  0.91686200  1
  C  1316  1  0.73513900  0.47752700  0.90748600  1
  C  1317  1  0.71924700  0.46684500  0.89275400  1
  C  1318  1  0.72303300  0.44479500  0.88695500  1
  C  1319  1  0.74372300  0.43394600  0.89632400  1
  C  1320  1  0.75975800  0.44465200  0.91102100  1
  C  1332  1  0.70616600  0.43467200  0.87287100  1
  C  1334  1  0.69316100  0.40277500  0.85361000  1
  C  1335  1  0.70361700  0.38436200  0.84345600  1
  C  1336  1  0.68923800  0.37108400  0.82960700  1
  C  1337  1  0.66376000  0.37546000  0.82591000  1
  C  1338  1  0.65302900  0.39383500  0.83618200  1
  C  1341  1  0.66765900  0.40724100  0.84977300  1
  C  1347  1  0.66252100  0.13541500  0.82672100  1
  C  1348  1  0.65143600  0.11923900  0.83992300  1
  C  1349  1  0.66600100  0.10575600  0.85333700  1
  C  1350  1  0.69226700  0.10773000  0.85393600  1
  C  1351  1  0.70346000  0.12393600  0.84083600  1
  C  1354  1  0.68871100  0.13755800  0.82752300  1
  C  1360  1  0.51898600  0.21584800  0.69546000  1
  C  1361  1  0.51381800  0.23790000  0.69024200  1
  C  1362  1  0.51443500  0.27437800  0.69011000  1
  C  1363  1  0.49626600  0.26750500  0.67535600  1
  C  1364  1  0.49592500  0.24510200  0.67540200  1
  C  1365  1  0.52024100  0.29632800  0.69530500  1
  C  1366  1  0.50578900  0.31281800  0.68479800  1
  C  1367  1  0.48495100  0.32180900  0.69548600  1
  C  1368  1  0.46898200  0.33632900  0.68461400  1
  C  1369  1  0.50381600  0.19969200  0.68521300  1
  C  1370  1  0.48098300  0.19357600  0.69479200  1
  C  1371  1  0.46456300  0.17942000  0.68394000  1
  C  1374  1  0.47309500  0.34227800  0.66264500  1
  C  1375  1  0.49420000  0.33333333  0.65209000  1
  C  1376  1  0.51028000  0.31883600  0.66297700  1
  C  1377  1  0.50985200  0.19116700  0.66456300  1
  C  1378  1  0.49335800  0.17694600  0.65373000  1
  C  1379  1  0.47026700  0.17087200  0.66313500  1
  C  1384  1  0.45599600  0.35587000  0.65219200  1
  C  1385  1  0.45286000  0.15755700  0.65264700  1
  C  1393  1  0.41798000  0.37669800  0.62278200  1
  C  1394  1  0.44422600  0.37624500  0.62067700  1
  C  1396  1  0.44120600  0.13627600  0.62168200  1
  C  1397  1  0.41488000  0.13665300  0.62294200  1
  C  1398  1  0.40325000  0.38998900  0.60932100  1
  C  1399  1  0.45525400  0.38936200  0.60440700  1
  C  1402  1  0.45220300  0.12273800  0.60587900  1
  C  1403  1  0.39999100  0.12367500  0.60917300  1
  C  1406  1  0.76420900  0.03852700  0.99238500  1
  C  1407  1  0.77002300  0.03330800  0.01433700  1
  C  1408  1  0.78777200  0.01727300  0.02066900  1
  C  1410  1  0.81644100  0.99031000  0.02019600  1
  C  1411  1  0.81077600  0.99507600  0.04182600  1
  C  1412  1  0.79331800  0.01157500  0.04211600  1
  C  1413  1  0.75550200  0.04368800  0.03087900  1
  C  1414  1  0.73487800  0.03276200  0.04001400  1
  C  1415  1  0.71879700  0.04346300  0.05454900  1
  C  1416  1  0.72255300  0.06550400  0.06041400  1
  C  1417  1  0.74346600  0.07629400  0.05136400  1
  C  1418  1  0.75965500  0.06558300  0.03683200  1
  C  1426  1  0.70535200  0.07576000  0.07407400  1
  C  1428  1  0.29210200  0.99770000  0.54209000  1
  C  1429  1  0.30994500  0.01389200  0.54242300  1
  C  1430  1  0.31543500  0.01971800  0.52099900  1
  C  1432  1  0.28641400  0.99300500  0.52044400  1
  C  1433  1  0.28750600  0.99365400  0.42670700  1
  C  1435  1  0.31625400  0.02057300  0.42722800  1
  C  1436  1  0.31055200  0.01583400  0.40558800  1
  C  1437  1  0.29306900  0.99933800  0.40526700  1
  C  1438  1  0.33311900  0.03705500  0.43418500  1
  C  1439  1  0.33847300  0.04199800  0.45628700  1
  C  1441  1  0.33820300  0.04171000  0.49279900  1
  C  1442  1  0.35388500  0.05849500  0.48597800  1
  C  1443  1  0.35415100  0.05860100  0.46356700  1
  C  1444  1  0.33255600  0.03631800  0.51473600  1
  C  1445  1  0.34414500  0.04905700  0.53145100  1
  C  1446  1  0.36978600  0.04684400  0.53634500  1
  C  1447  1  0.38115200  0.05985700  0.55241300  1
  C  1448  1  0.36714100  0.07533200  0.56420800  1
  C  1449  1  0.34149100  0.07748100  0.55930000  1
  C  1450  1  0.33023100  0.06473600  0.54301600  1
  C  1451  1  0.34404100  0.05086700  0.41808200  1
  C  1452  1  0.36787100  0.04654600  0.40935900  1
  C  1453  1  0.37952000  0.06157000  0.39531900  1
  C  1454  1  0.36782300  0.08145900  0.38970000  1
  C  1455  1  0.34377700  0.08543900  0.39833100  1
  C  1456  1  0.33208900  0.07046100  0.41228400  1
  C  1475  1  0.37922800  0.09736400  0.37685700  1
  C  1476  1  0.37736500  0.08728700  0.58117200  1
  C  1479  1  0.56410700  0.18678500  0.21629300  1
  C  1480  1  0.54623300  0.18653700  0.23244100  1
  C  1481  1  0.54021700  0.20799800  0.23768600  1
  C  1483  1  0.56933100  0.20840100  0.21107900  1
  C  1484  1  0.58715700  0.21527300  0.19536900  1
  C  1485  1  0.59230600  0.23735500  0.19019400  1
  C  1487  1  0.59181600  0.27385900  0.19017700  1
  C  1488  1  0.60986500  0.26699500  0.17535500  1
  C  1489  1  0.61011500  0.24458900  0.17531700  1
  C  1490  1  0.58613400  0.29581400  0.19544700  1
  C  1491  1  0.56844800  0.30219900  0.21149100  1
  C  1493  1  0.53970500  0.30180100  0.23838500  1
  C  1494  1  0.54559200  0.32341500  0.23369800  1
  C  1495  1  0.56306400  0.32365900  0.21721600  1
  C  1496  1  0.52271500  0.29492200  0.25478300  1
  C  1497  1  0.51716200  0.27283900  0.25963800  1
  C  1499  1  0.51724200  0.23632400  0.25933800  1
  C  1500  1  0.50145600  0.24320500  0.27600200  1
  C  1501  1  0.50132600  0.26561300  0.27612800  1
  C  1502  1  0.52295700  0.21436600  0.25410300  1
  C  1503  1  0.51188400  0.19779000  0.26733700  1
  C  1504  1  0.48644300  0.19212700  0.26530000  1
  C  1505  1  0.47546900  0.17679100  0.27941800  1
  C  1506  1  0.48958700  0.16654900  0.29598300  1
  C  1507  1  0.51509200  0.17226000  0.29780700  1
  C  1508  1  0.52601300  0.18769000  0.28386700  1
  C  1509  1  0.51189400  0.31105100  0.26861400  1
  C  1510  1  0.48800000  0.31974300  0.26442300  1
  C  1511  1  0.47642600  0.33373200  0.27951800  1
  C  1512  1  0.48825900  0.33933500  0.29935900  1
  C  1513  1  0.51236700  0.33074100  0.30321200  1
  C  1514  1  0.52397700  0.31683300  0.28816600  1
  C  1515  1  0.60072400  0.31233400  0.18507900  1
  C  1516  1  0.62143200  0.32137000  0.19599000  1
  C  1517  1  0.63751400  0.33594500  0.18531500  1
  C  1518  1  0.63366900  0.34194200  0.16331500  1
  C  1519  1  0.61266200  0.33299700  0.15254400  1
  C  1520  1  0.59646700  0.31842800  0.16323200  1
  C  1521  1  0.60237100  0.19916000  0.18512700  1
  C  1522  1  0.62576100  0.19384300  0.19419000  1
  C  1523  1  0.59593100  0.19012900  0.16476800  1
  C  1524  1  0.61257400  0.17625600  0.15370400  1
  C  1525  1  0.63627700  0.17112700  0.16252700  1
  C  1526  1  0.64236000  0.18008500  0.18308500  1
  C  1553  1  0.47693800  0.35211600  0.31534400  1
  C  1554  1  0.65083900  0.35567300  0.15309000  1
  C  1555  1  0.65398000  0.15854300  0.15158200  1
  C  1556  1  0.47965400  0.15096500  0.31005300  1
  C  1561  1  0.29236800  0.51237800  0.40509600  1
  C  1562  1  0.31025000  0.49622700  0.40494800  1
  C  1563  1  0.31617000  0.49098000  0.42644300  1
  C  1565  1  0.28705300  0.51759600  0.42668300  1
  C  1566  1  0.26919900  0.53331400  0.43345400  1
  C  1567  1  0.26393500  0.53855900  0.45548500  1
  C  1569  1  0.26437800  0.53879000  0.49197600  1
  C  1570  1  0.24619400  0.55345200  0.48498700  1
  C  1571  1  0.24598400  0.55336700  0.46258100  1
  C  1572  1  0.27012900  0.53369900  0.51396600  1
  C  1573  1  0.28789200  0.51773300  0.52043200  1
  C  1575  1  0.31673700  0.49091900  0.52018800  1
  C  1576  1  0.31112400  0.49591800  0.54178100  1
  C  1577  1  0.29355500  0.51232200  0.54192800  1
  C  1578  1  0.33375200  0.47450200  0.51341500  1
  C  1579  1  0.33919900  0.46938000  0.49139600  1
  C  1581  1  0.33906200  0.46938500  0.45489700  1
  C  1582  1  0.35470300  0.45265500  0.46192300  1
  C  1583  1  0.35486500  0.45270400  0.48433400  1
  C  1584  1  0.33340200  0.47455000  0.43290100  1
  C  1585  1  0.34448500  0.46125300  0.41640200  1
  C  1586  1  0.36996000  0.46317000  0.41085300  1
  C  1587  1  0.38091300  0.44903900  0.39553900  1
  C  1588  1  0.36674200  0.43256700  0.38520400  1
  C  1589  1  0.34121100  0.43084300  0.39082800  1
  C  1590  1  0.33031200  0.44480000  0.40623000  1
  C  1591  1  0.34485000  0.46104300  0.52970800  1
  C  1592  1  0.36917200  0.46504400  0.53758000  1
  C  1593  1  0.38037100  0.45080600  0.55268100  1
  C  1594  1  0.36763800  0.43210800  0.56027300  1
  C  1595  1  0.34324900  0.42830300  0.55226900  1
  C  1596  1  0.33205500  0.44245500  0.53719600  1
  C  1597  1  0.25561700  0.54419900  0.53043100  1
  C  1598  1  0.23519800  0.53323000  0.53984900  1
  C  1599  1  0.21930500  0.54392200  0.55453700  1
  C  1600  1  0.22302400  0.56601000  0.56025400  1
  C  1601  1  0.25969500  0.56616100  0.53618500  1
  C  1602  1  0.25403200  0.54350800  0.41726400  1
  C  1603  1  0.23079400  0.53428700  0.41171900  1
  C  1604  1  0.26031500  0.56400600  0.40847400  1
  C  1605  1  0.22005000  0.56611100  0.38927900  1
  C  1606  1  0.21414500  0.54540600  0.39798100  1
  C  1629  1  0.37777400  0.41776700  0.57547300  1
  C  1630  1  0.37664400  0.41847900  0.36963100  1
  C  1634  1  0.79224000  0.49819900  0.04226900  1
  C  1635  1  0.81010900  0.51437600  0.04245500  1
  C  1636  1  0.81605700  0.51961100  0.02097200  1
  C  1638  1  0.78694700  0.49296800  0.02067100  1
  C  1639  1  0.76908500  0.47724200  0.01386400  1
  C  1640  1  0.76384800  0.47203100  0.99181100  1
  C  1641  1  0.83902500  0.54123600  0.99257800  1
  C  1642  1  0.83330400  0.53603900  0.01454300  1
  C  1643  1  0.84432700  0.54935100  0.03106900  1
  C  1644  1  0.86975500  0.54737700  0.03678400  1
  C  1645  1  0.88066400  0.56151000  0.05214100  1
  C  1646  1  0.83014100  0.56584400  0.04110500  1
  C  1647  1  0.75391500  0.46700700  0.03001200  1
  C  1648  1  0.73061800  0.47613600  0.03544000  1
  C  1649  1  0.76028200  0.44658000  0.03891900  1
  C  1650  1  0.74361700  0.43548300  0.05276100  1
  C  1651  1  0.71998800  0.44435600  0.05798100  1
  C  1652  1  0.71399200  0.46498700  0.04915400  1
  C  1665  1  0.70225600  0.43336400  0.07050400  1
  C  1667  1  0.66423900  0.13497100  0.12195300  1
  C  1668  1  0.65295200  0.11858800  0.10928400  1
  C  1669  1  0.66730400  0.10498000  0.09579700  1
  C  1670  1  0.69351000  0.10734900  0.09446100  1
  C  1671  1  0.70485400  0.12405200  0.10680400  1
  C  1674  1  0.69036400  0.13769400  0.12023100  1
  C  1680  1  0.41415300  0.40311400  0.59299200  1
  C  1681  1  0.44034000  0.40255700  0.59081500  1
  C  1685  1  0.44316200  0.13523200  0.32668900  1
  C  1686  1  0.45380300  0.11999800  0.34124500  1
  C  1687  1  0.43870600  0.10649900  0.35422300  1
  C  1688  1  0.41249000  0.10789400  0.35335600  1
  C  1689  1  0.40165700  0.12278400  0.33845500  1
  C  1692  1  0.41691800  0.13637900  0.32560500  1
  C  1698  1  0.43746000  0.10954500  0.59223700  1
  C  1699  1  0.41120600  0.10946600  0.59385100  1
  C  1703  1  0.69198900  0.40363700  0.09396300  1
  C  1704  1  0.70327000  0.39096000  0.11034100  1
  C  1705  1  0.68890900  0.37742100  0.12391300  1
  C  1706  1  0.66270600  0.37605900  0.12151000  1
  C  1707  1  0.65137100  0.38840200  0.10480000  1
  C  1710  1  0.66586900  0.40188000  0.09119400  1
  C  1716  1  0.41308400  0.40203500  0.35363900  1
  C  1717  1  0.40238300  0.38751600  0.33840100  1
  C  1718  1  0.41742100  0.37460200  0.32481700  1
  C  1719  1  0.44364700  0.37549000  0.32611900  1
  C  1720  1  0.45453700  0.39035600  0.34100900  1
  C  1723  1  0.43933600  0.40314300  0.35468900  1
  C  1730  1  0.65224800  0.96915000  0.95467000  1
  C  1731  1  0.66788400  0.95236900  0.96156600  1
  C  1732  1  0.66807800  0.95227100  0.98397700  1
  C  1733  1  0.64661500  0.97448400  0.93270500  1
  C  1734  1  0.65819700  0.96171200  0.91602000  1
  C  1735  1  0.68386700  0.96382300  0.91123100  1
  C  1736  1  0.69521600  0.95076800  0.89521000  1
  C  1737  1  0.68116400  0.93533700  0.88334300  1
  C  1738  1  0.65549000  0.93327300  0.88816200  1
  C  1739  1  0.64424900  0.94606200  0.90439500  1
  C  1745  1  0.69135400  0.92334200  0.86639400  1
  C  1747  1  0.85579400  0.82319300  0.73097700  1
  C  1748  1  0.87362800  0.82341200  0.71479800  1
  C  1749  1  0.87957800  0.80194100  0.70953500  1
  C  1751  1  0.85051800  0.80158300  0.73618000  1
  C  1752  1  0.83275600  0.79475700  0.75196200  1
  C  1753  1  0.82761000  0.77268600  0.75715600  1
  C  1755  1  0.82822300  0.73619900  0.75724700  1
  C  1756  1  0.81013100  0.74304900  0.77204000  1
  C  1757  1  0.80976800  0.76545200  0.77199600  1
  C  1758  1  0.83400200  0.71425200  0.75203600  1
  C  1759  1  0.85167000  0.70783100  0.73600100  1
  C  1761  1  0.88038600  0.70818000  0.70909900  1
  C  1762  1  0.87457000  0.68657200  0.71387900  1
  C  1763  1  0.85709300  0.68635800  0.73035400  1
  C  1764  1  0.81959400  0.69774500  0.76256800  1
  C  1765  1  0.79871300  0.68873800  0.75189200  1
  C  1766  1  0.78273700  0.67425200  0.76279500  1
  C  1767  1  0.78689100  0.66833200  0.78477200  1
  C  1768  1  0.80804800  0.67727300  0.79531000  1
  C  1769  1  0.82414500  0.69173700  0.78438900  1
  C  1770  1  0.81762500  0.81090200  0.76224900  1
  C  1771  1  0.79472700  0.81697400  0.75272600  1
  C  1772  1  0.82374500  0.81945500  0.78288900  1
  C  1773  1  0.80728800  0.83365900  0.79375000  1
  C  1774  1  0.78412100  0.83966300  0.78441000  1
  C  1775  1  0.77833100  0.83108200  0.76361900  1
  C  1792  1  0.76671800  0.85293100  0.79493200  1
  C  1794  1  0.75514900  0.87436500  0.82583200  1
  C  1795  1  0.76617200  0.88790700  0.84165300  1
  C  1796  1  0.75146100  0.90110900  0.85528100  1
  C  1797  1  0.72520300  0.90122000  0.85363700  1
  C  1798  1  0.71396400  0.88702800  0.83827500  1
  C  1801  1  0.72881900  0.87403700  0.82452500  1
  C  1807  1  0.89736500  0.71503000  0.69268200  1
  C  1808  1  0.90282310  0.73710000  0.68772000  1
  C  1810  1  0.90258610  0.77359800  0.68790100  1
  C  1811  1  0.89685400  0.79554700  0.69314200  1
  C  1812  1  0.90792910  0.81211500  0.67993000  1
  C  1813  1  0.93335410  0.81780900  0.68202900  1
  C  1814  1  0.90833010  0.69885500  0.67900700  1
  C  1815  1  0.93233510  0.69041900  0.68324200  1
  C  1819  1  0.76977300  0.65478400  0.79525400  1
  C  1823  1  0.91833410  0.76671800  0.67120600  1
  C  1824  1  0.91858110  0.74430800  0.67117000  1
  C  1825  1  0.94429110  0.83328000  0.66804400  1
  C  1826  1  0.93012810  0.84361100  0.65157300  1
  C  1827  1  0.89377300  0.82227200  0.66345600  1
  C  1828  1  0.94385310  0.67608200  0.66844900  1
  C  1829  1  0.89610000  0.69250600  0.65970900  1
  C  1835  1  0.71707400  0.62068500  0.83815900  1
  C  1836  1  0.73179600  0.63396200  0.82468700  1
  C  1837  1  0.75805200  0.63438800  0.82676900  1
  C  1838  1  0.76909500  0.62125600  0.84303400  1
  C  1841  1  0.90465110  0.83783700  0.64965400  1
  C  1842  1  0.93184310  0.66984400  0.64888100  1
  C  1843  1  0.90764410  0.67823100  0.64497700  1
  C  1845  1  0.93995610  0.85942200  0.63774100  1
  C  1847  1  0.94281410  0.65620500  0.63342400  1
  C  1850  1  0.72799600  0.60754900  0.85448400  1
  C  1851  1  0.75419200  0.60808000  0.85663900  1
  C  1855  1  0.97602410  0.87527300  0.62063800  1
  C  1856  1  0.00221200  0.87316800  0.61983700  1
  C  1861  1  0.00296100  0.63966200  0.61771000  1
  C  1862  1  0.97747510  0.63529000  0.62136000  1
  C  1864  1  0.69163900  0.59297500  0.87207800  1
  C  1867  1  0.96490210  0.89141900  0.60741200  1
  C  1868  1  0.01692400  0.88679800  0.60651100  1
  C  1871  1  0.01733000  0.62640400  0.60387000  1
  C  1872  1  0.96675210  0.61690100  0.61106000  1
  C  1874  1  0.68149400  0.57861700  0.88725800  1
  C  1875  1  0.65712700  0.58243100  0.89525500  1
  C  1877  1  0.64696000  0.97379900  0.01326900  1
  C  1878  1  0.65240500  0.96888200  0.99118800  1
  C  1879  1  0.65785200  0.96000300  0.02940500  1
  C  1880  1  0.68174000  0.96426200  0.03809200  1
  C  1881  1  0.69336400  0.94921700  0.05213300  1
  C  1882  1  0.68157000  0.92938100  0.05779600  1
  C  1883  1  0.65747000  0.92546000  0.04919600  1
  C  1884  1  0.64580300  0.94046400  0.03524900  1
  C  1891  1  0.69295300  0.91345200  0.07062300  1
  C  1893  1  0.08224600  0.97735000  0.51350700  1
  C  1894  1  0.07698700  0.97232700  0.49142100  1
  C  1896  1  0.07757400  0.97239200  0.45493900  1
  C  1897  1  0.05933200  0.95768400  0.46173200  1
  C  1898  1  0.05901400  0.95760400  0.48413600  1
  C  1899  1  0.08340900  0.97765900  0.43301500  1
  C  1900  1  0.06888900  0.96730000  0.41644200  1
  C  1901  1  0.04822600  0.97820000  0.40733300  1
  C  1902  1  0.03214700  0.96749300  0.39276600  1
  C  1903  1  0.03596200  0.94548000  0.38685600  1
  C  1904  1  0.05693300  0.93472600  0.39586900  1
  C  1905  1  0.07312000  0.94544300  0.41043200  1
  C  1906  1  0.06719200  0.96692800  0.52960900  1
  C  1907  1  0.04424700  0.97630400  0.53569200  1
  C  1908  1  0.07346600  0.94631400  0.53812900  1
  C  1909  1  0.05714900  0.93536500  0.55239500  1
  C  1910  1  0.03397100  0.94458800  0.55846200  1
  C  1911  1  0.02798500  0.96532600  0.54986500  1
  C  1920  1  0.01879200  0.93521000  0.37315000  1
  C  1921  1  0.01685100  0.93408300  0.57200600  1
  C  1924  1  0.87773700  0.82382100  0.23118900  1
  C  1925  1  0.85985000  0.82406800  0.21502100  1
  C  1926  1  0.85374900  0.80260500  0.20982200  1
  C  1928  1  0.88290100  0.80220400  0.23643600  1
  C  1929  1  0.90071010  0.79533100  0.25218200  1
  C  1930  1  0.90585810  0.77326400  0.25739600  1
  C  1932  1  0.90535510  0.73677100  0.25744200  1
  C  1933  1  0.92342110  0.74365300  0.27228400  1
  C  1934  1  0.92366310  0.76605700  0.27231800  1
  C  1935  1  0.89965600  0.71481500  0.25216700  1
  C  1936  1  0.88196000  0.70842500  0.23609800  1
  C  1938  1  0.85321200  0.70881900  0.20916600  1
  C  1939  1  0.85907100  0.68720600  0.21386300  1
  C  1940  1  0.87657300  0.68696300  0.23035300  1
  C  1941  1  0.83624500  0.71570300  0.19273200  1
  C  1942  1  0.83060800  0.73777100  0.18790900  1
  C  1944  1  0.83065100  0.77427500  0.18821700  1
  C  1945  1  0.81484200  0.76737800  0.17153900  1
  C  1946  1  0.81473800  0.74497100  0.17140700  1
  C  1947  1  0.83642400  0.79623300  0.19342200  1
  C  1948  1  0.82538600  0.81279900  0.18015600  1
  C  1949  1  0.79996900  0.81850300  0.18216100  1
  C  1950  1  0.78903900  0.83385900  0.16803300  1
  C  1951  1  0.80318600  0.84407500  0.15148700  1
  C  1952  1  0.82866100  0.83831000  0.14968400  1
  C  1953  1  0.83953300  0.82285300  0.16363000  1
  C  1954  1  0.82541000  0.69957100  0.17890500  1
  C  1955  1  0.80151900  0.69087900  0.18308100  1
  C  1956  1  0.78992400  0.67688800  0.16797700  1
  C  1957  1  0.80175200  0.67128100  0.14816200  1
  C  1958  1  0.82585900  0.67987600  0.14432500  1
  C  1959  1  0.83749500  0.69378100  0.15938700  1
  C  1960  1  0.91427410  0.69830600  0.26251700  1
  C  1961  1  0.93495110  0.68930800  0.25158800  1
  C  1962  1  0.95105210  0.67472300  0.26223800  1
  C  1963  1  0.94725310  0.66868300  0.28422300  1
  C  1964  1  0.92629410  0.67761000  0.29501800  1
  C  1965  1  0.91007910  0.69218200  0.28435600  1
  C  1966  1  0.91595510  0.81144800  0.26240700  1
  C  1967  1  0.93929910  0.81679700  0.25330800  1
  C  1968  1  0.90952610  0.82051200  0.28273300  1
  C  1969  1  0.92617410  0.83444200  0.29375900  1
  C  1970  1  0.94984110  0.83960100  0.28491100  1
  C  1971  1  0.95589510  0.83062300  0.26437300  1
  C  1998  1  0.96752110  0.85227100  0.29581600  1
  C  1999  1  0.79329800  0.85967700  0.13741200  1
  C  2002  1  0.97774110  0.87581600  0.32545900  1
  C  2003  1  0.96641510  0.89218300  0.33807900  1
  C  2004  1  0.98075010  0.90584800  0.35155800  1
  C  2005  1  0.00695700  0.90352500  0.35293100  1
  C  2006  1  0.01833600  0.88682400  0.34065400  1
  C  2009  1  0.00386500  0.87313000  0.32723200  1
  C  2015  1  0.75683000  0.87548800  0.12079300  1
  C  2016  1  0.76749700  0.89070600  0.10624500  1
  C  2017  1  0.75242000  0.90424100  0.09327500  1
  C  2018  1  0.72620000  0.90290500  0.09416200  1
  C  2019  1  0.71534300  0.88802300  0.10904500  1
  C  2022  1  0.73058500  0.87438800  0.12188100  1
  C  2028  1  0.97942910  0.90491000  0.59398800  1
  C  2029  1  0.00569400  0.90296700  0.59338000  1
  C  2032  1  0.79039700  0.65850800  0.13217600  1
  C  2033  1  0.96443810  0.65494400  0.29442100  1
  C  2041  1  0.01693700  0.61965800  0.33713200  1
  C  2042  1  0.00254900  0.63320800  0.32358300  1
  C  2043  1  0.97634810  0.63451400  0.32596200  1
  C  2044  1  0.96503410  0.62209600  0.34261400  1
  C  2046  1  0.71585200  0.62307500  0.10916000  1
  C  2047  1  0.73092000  0.63598100  0.12276000  1
  C  2048  1  0.75714100  0.63505000  0.12149900  1
  C  2049  1  0.76800500  0.62018800  0.10662700  1
  C  2051  1  0.00687900  0.60798400  0.59367900  1
  C  2052  1  0.98137410  0.60351000  0.59748200  1
  C  2054  1  0.00567400  0.60689600  0.35344300  1
  C  2056  1  0.97955810  0.60859400  0.35618700  1
  C  2058  1  0.72652600  0.60855000  0.09394800  1
  C  2059  1  0.75277000  0.60741700  0.09292400  1
  C  2065  1  0.69006200  0.59210000  0.07794900  1
  C  2073  1  0.05738000  0.57687700  0.55085100  1
  C  2074  1  0.05732100  0.57509100  0.39464400  1
  C  2077  1  0.01983200  0.57614300  0.57427700  1
  C  2078  1  0.01600700  0.57707500  0.37674700  1
  C  2080  1  0.68019400  0.57802600  0.06234100  1
  C  2081  1  0.65470800  0.57980400  0.05655300  1
  C  2082  1  0.60606100  0.01299900  0.90528900  1
  C  2083  1  0.62388200  0.99680600  0.90498400  1
  C  2084  1  0.62944700  0.99103900  0.92641900  1
  C  2086  1  0.60042700  0.01773700  0.92692400  1
  C  2087  1  0.58260400  0.03342500  0.93383000  1
  C  2088  1  0.57735300  0.03850100  0.95589700  1
  C  2090  1  0.55970600  0.05322100  0.98551600  1
  C  2091  1  0.55941400  0.05325700  0.96311000  1
  C  2092  1  0.56755500  0.04382200  0.91769200  1
  C  2093  1  0.54466100  0.03436700  0.91150300  1
  C  2094  1  0.57379600  0.06446700  0.90923100  1
  C  2095  1  0.55747100  0.07538800  0.89493500  1
  C  2096  1  0.53433700  0.06609600  0.88876800  1
  C  2097  1  0.52839900  0.04531600  0.89729100  1
  C  2106  1  0.51721500  0.07657300  0.87519100  1
  C  2108  1  0.35577700  0.18741400  0.71643100  1
  C  2109  1  0.37365700  0.18720500  0.73260400  1
  C  2110  1  0.37961300  0.20868000  0.73787600  1
  C  2112  1  0.35049200  0.20902200  0.71123900  1
  C  2114  1  0.35163600  0.30276600  0.71135600  1
  C  2116  1  0.38036400  0.30243100  0.73828800  1
  C  2117  1  0.37455900  0.32403600  0.73350400  1
  C  2118  1  0.35706800  0.32424200  0.71700700  1
  C  2119  1  0.39734800  0.29558500  0.75472200  1
  C  2120  1  0.40282800  0.27353100  0.75970700  1
  C  2122  1  0.40264200  0.23704100  0.75952600  1
  C  2123  1  0.41843700  0.24394500  0.77621100  1
  C  2124  1  0.41863900  0.26635300  0.77626200  1
  C  2125  1  0.39690200  0.21508900  0.75428700  1
  C  2126  1  0.40800900  0.19853200  0.76749300  1
  C  2127  1  0.43341900  0.19284900  0.76537400  1
  C  2128  1  0.44438600  0.17737400  0.77934300  1
  C  2129  1  0.43026300  0.16703300  0.79581200  1
  C  2130  1  0.40479900  0.17279900  0.79775400  1
  C  2131  1  0.39389400  0.18836900  0.78396900  1
  C  2132  1  0.40831500  0.31176300  0.76840300  1
  C  2133  1  0.43226200  0.32028200  0.76412600  1
  C  2134  1  0.44378300  0.33465500  0.77891000  1
  C  2135  1  0.43183000  0.34081100  0.79850300  1
  C  2136  1  0.40768100  0.33233600  0.80244300  1
  C  2137  1  0.39612000  0.31804600  0.78771000  1
  C  2156  1  0.44283000  0.35445400  0.81395100  1
  C  2157  1  0.44012000  0.15122000  0.80962700  1
  C  2161  1  0.57803900  0.47189300  0.95532700  1
  C  2162  1  0.55988500  0.45716100  0.96223300  1
  C  2163  1  0.55962900  0.45720900  0.98463700  1
  C  2164  1  0.58380700  0.47704600  0.93336600  1
  C  2165  1  0.60160600  0.49299300  0.92693300  1
  C  2167  1  0.63051800  0.51977700  0.92723500  1
  C  2168  1  0.62487300  0.51480900  0.90563100  1
  C  2169  1  0.60726400  0.49842100  0.90544600  1
  C  2170  1  0.64757300  0.53617600  0.93404700  1
  C  2171  1  0.65299000  0.54127200  0.95608600  1
  C  2173  1  0.66840200  0.55798600  0.98563000  1
  C  2174  1  0.66865500  0.55793900  0.96322000  1
  C  2175  1  0.65868300  0.54966100  0.91778700  1
  C  2176  1  0.68298400  0.54565600  0.90992600  1
  C  2177  1  0.69419300  0.55990300  0.89484800  1
  C  2178  1  0.64592800  0.56827100  0.91030900  1
  C  2179  1  0.56930900  0.46656900  0.91686200  1
  C  2180  1  0.54884900  0.47752700  0.90748600  1
  C  2181  1  0.53295700  0.46684500  0.89275400  1
  C  2182  1  0.53674300  0.44479500  0.88695500  1
  C  2183  1  0.55743300  0.43394600  0.89632400  1
  C  2184  1  0.57346800  0.44465200  0.91102100  1
  C  2196  1  0.51987600  0.43467200  0.87287100  1
  C  2198  1  0.50687100  0.40277500  0.85361000  1
  C  2199  1  0.51732700  0.38436200  0.84345600  1
  C  2200  1  0.50294800  0.37108400  0.82960700  1
  C  2201  1  0.47747000  0.37546000  0.82591000  1
  C  2202  1  0.46673900  0.39383500  0.83618200  1
  C  2205  1  0.48136900  0.40724100  0.84977300  1
  C  2211  1  0.47623100  0.13541500  0.82672100  1
  C  2212  1  0.46514600  0.11923900  0.83992300  1
  C  2213  1  0.47971100  0.10575600  0.85333700  1
  C  2214  1  0.50597700  0.10773000  0.85393600  1
  C  2215  1  0.51717000  0.12393600  0.84083600  1
  C  2218  1  0.50242100  0.13755800  0.82752300  1
  C  2224  1  0.33269600  0.21584800  0.69546000  1
  C  2225  1  0.32752800  0.23790000  0.69024200  1
  C  2226  1  0.32814500  0.27437800  0.69011000  1
  C  2227  1  0.30997600  0.26750500  0.67535600  1
  C  2228  1  0.30963500  0.24510200  0.67540200  1
  C  2229  1  0.33395100  0.29632800  0.69530500  1
  C  2230  1  0.31949900  0.31281800  0.68479800  1
  C  2231  1  0.29866100  0.32180900  0.69548600  1
  C  2232  1  0.28269200  0.33632900  0.68461400  1
  C  2233  1  0.31752600  0.19969200  0.68521300  1
  C  2234  1  0.29469300  0.19357600  0.69479200  1
  C  2235  1  0.27827300  0.17942000  0.68394000  1
  C  2238  1  0.28680500  0.34227800  0.66264500  1
  C  2239  1  0.30791000  0.33333333  0.65209000  1
  C  2240  1  0.32399000  0.31883600  0.66297700  1
  C  2241  1  0.32356200  0.19116700  0.66456300  1
  C  2242  1  0.30706800  0.17694600  0.65373000  1
  C  2243  1  0.28397700  0.17087200  0.66313500  1
  C  2248  1  0.26970600  0.35587000  0.65219200  1
  C  2249  1  0.26657000  0.15755700  0.65264700  1
  C  2257  1  0.23169000  0.37669800  0.62278200  1
  C  2258  1  0.25793600  0.37624500  0.62067700  1
  C  2260  1  0.25491600  0.13627600  0.62168200  1
  C  2261  1  0.22859000  0.13665300  0.62294200  1
  C  2262  1  0.21696000  0.38998900  0.60932100  1
  C  2263  1  0.26896400  0.38936200  0.60440700  1
  C  2266  1  0.26591300  0.12273800  0.60587900  1
  C  2267  1  0.21370100  0.12367500  0.60917300  1
  C  2270  1  0.57791900  0.03852700  0.99238500  1
  C  2271  1  0.58373300  0.03330800  0.01433700  1
  C  2272  1  0.60148200  0.01727300  0.02066900  1
  C  2274  1  0.63015100  0.99031000  0.02019600  1
  C  2275  1  0.62448600  0.99507600  0.04182600  1
  C  2276  1  0.60702800  0.01157500  0.04211600  1
  C  2277  1  0.56921200  0.04368800  0.03087900  1
  C  2278  1  0.54858800  0.03276200  0.04001400  1
  C  2279  1  0.53250700  0.04346300  0.05454900  1
  C  2280  1  0.53626300  0.06550400  0.06041400  1
  C  2281  1  0.55717600  0.07629400  0.05136400  1
  C  2282  1  0.57336500  0.06558300  0.03683200  1
  C  2290  1  0.51906200  0.07576000  0.07407400  1
  C  2292  1  0.10581200  0.99770000  0.54209000  1
  C  2293  1  0.12365500  0.01389200  0.54242300  1
  C  2294  1  0.12914500  0.01971800  0.52099900  1
  C  2296  1  0.10012400  0.99300500  0.52044400  1
  C  2297  1  0.10121600  0.99365400  0.42670700  1
  C  2299  1  0.12996400  0.02057300  0.42722800  1
  C  2300  1  0.12426200  0.01583400  0.40558800  1
  C  2301  1  0.10677900  0.99933800  0.40526700  1
  C  2302  1  0.14682900  0.03705500  0.43418500  1
  C  2303  1  0.15218300  0.04199800  0.45628700  1
  C  2305  1  0.15191300  0.04171000  0.49279900  1
  C  2306  1  0.16759500  0.05849500  0.48597800  1
  C  2307  1  0.16786100  0.05860100  0.46356700  1
  C  2308  1  0.14626600  0.03631800  0.51473600  1
  C  2309  1  0.15785500  0.04905700  0.53145100  1
  C  2310  1  0.18349600  0.04684400  0.53634500  1
  C  2311  1  0.19486200  0.05985700  0.55241300  1
  C  2312  1  0.18085100  0.07533200  0.56420800  1
  C  2313  1  0.15520100  0.07748100  0.55930000  1
  C  2314  1  0.14394100  0.06473600  0.54301600  1
  C  2315  1  0.15775100  0.05086700  0.41808200  1
  C  2316  1  0.18158100  0.04654600  0.40935900  1
  C  2317  1  0.19323000  0.06157000  0.39531900  1
  C  2318  1  0.18153300  0.08145900  0.38970000  1
  C  2319  1  0.15748700  0.08543900  0.39833100  1
  C  2320  1  0.14579900  0.07046100  0.41228400  1
  C  2339  1  0.19293800  0.09736400  0.37685700  1
  C  2340  1  0.19107500  0.08728700  0.58117200  1
  C  2343  1  0.37781700  0.18678500  0.21629300  1
  C  2344  1  0.35994300  0.18653700  0.23244100  1
  C  2345  1  0.35392700  0.20799800  0.23768600  1
  C  2347  1  0.38304100  0.20840100  0.21107900  1
  C  2348  1  0.40086700  0.21527300  0.19536900  1
  C  2349  1  0.40601600  0.23735500  0.19019400  1
  C  2351  1  0.40552600  0.27385900  0.19017700  1
  C  2352  1  0.42357500  0.26699500  0.17535500  1
  C  2353  1  0.42382500  0.24458900  0.17531700  1
  C  2354  1  0.39984400  0.29581400  0.19544700  1
  C  2355  1  0.38215800  0.30219900  0.21149100  1
  C  2357  1  0.35341500  0.30180100  0.23838500  1
  C  2358  1  0.35930200  0.32341500  0.23369800  1
  C  2359  1  0.37677400  0.32365900  0.21721600  1
  C  2360  1  0.33642500  0.29492200  0.25478300  1
  C  2361  1  0.33087200  0.27283900  0.25963800  1
  C  2363  1  0.33095200  0.23632400  0.25933800  1
  C  2364  1  0.31516600  0.24320500  0.27600200  1
  C  2365  1  0.31503600  0.26561300  0.27612800  1
  C  2366  1  0.33666700  0.21436600  0.25410300  1
  C  2367  1  0.32559400  0.19779000  0.26733700  1
  C  2368  1  0.30015300  0.19212700  0.26530000  1
  C  2369  1  0.28917900  0.17679100  0.27941800  1
  C  2370  1  0.30329700  0.16654900  0.29598300  1
  C  2371  1  0.32880200  0.17226000  0.29780700  1
  C  2372  1  0.33972300  0.18769000  0.28386700  1
  C  2373  1  0.32560400  0.31105100  0.26861400  1
  C  2374  1  0.30171000  0.31974300  0.26442300  1
  C  2375  1  0.29013600  0.33373200  0.27951800  1
  C  2376  1  0.30196900  0.33933500  0.29935900  1
  C  2377  1  0.32607700  0.33074100  0.30321200  1
  C  2378  1  0.33768700  0.31683300  0.28816600  1
  C  2379  1  0.41443400  0.31233400  0.18507900  1
  C  2380  1  0.43514200  0.32137000  0.19599000  1
  C  2381  1  0.45122400  0.33594500  0.18531500  1
  C  2382  1  0.44737900  0.34194200  0.16331500  1
  C  2383  1  0.42637200  0.33299700  0.15254400  1
  C  2384  1  0.41017700  0.31842800  0.16323200  1
  C  2385  1  0.41608100  0.19916000  0.18512700  1
  C  2386  1  0.43947100  0.19384300  0.19419000  1
  C  2387  1  0.40964100  0.19012900  0.16476800  1
  C  2388  1  0.42628400  0.17625600  0.15370400  1
  C  2389  1  0.44998700  0.17112700  0.16252700  1
  C  2390  1  0.45607000  0.18008500  0.18308500  1
  C  2417  1  0.29064800  0.35211600  0.31534400  1
  C  2418  1  0.46454900  0.35567300  0.15309000  1
  C  2419  1  0.46769000  0.15854300  0.15158200  1
  C  2420  1  0.29336400  0.15096500  0.31005300  1
  C  2425  1  0.10607800  0.51237800  0.40509600  1
  C  2426  1  0.12396000  0.49622700  0.40494800  1
  C  2427  1  0.12988000  0.49098000  0.42644300  1
  C  2429  1  0.10076300  0.51759600  0.42668300  1
  C  2430  1  0.08290900  0.53331400  0.43345400  1
  C  2431  1  0.07764500  0.53855900  0.45548500  1
  C  2433  1  0.07808800  0.53879000  0.49197600  1
  C  2434  1  0.05990400  0.55345200  0.48498700  1
  C  2435  1  0.05969400  0.55336700  0.46258100  1
  C  2436  1  0.08383900  0.53369900  0.51396600  1
  C  2437  1  0.10160200  0.51773300  0.52043200  1
  C  2439  1  0.13044700  0.49091900  0.52018800  1
  C  2440  1  0.12483400  0.49591800  0.54178100  1
  C  2441  1  0.10726500  0.51232200  0.54192800  1
  C  2442  1  0.14746200  0.47450200  0.51341500  1
  C  2443  1  0.15290900  0.46938000  0.49139600  1
  C  2445  1  0.15277200  0.46938500  0.45489700  1
  C  2446  1  0.16841300  0.45265500  0.46192300  1
  C  2447  1  0.16857500  0.45270400  0.48433400  1
  C  2448  1  0.14711200  0.47455000  0.43290100  1
  C  2449  1  0.15819500  0.46125300  0.41640200  1
  C  2450  1  0.18367000  0.46317000  0.41085300  1
  C  2451  1  0.19462300  0.44903900  0.39553900  1
  C  2452  1  0.18045200  0.43256700  0.38520400  1
  C  2453  1  0.15492100  0.43084300  0.39082800  1
  C  2454  1  0.14402200  0.44480000  0.40623000  1
  C  2455  1  0.15856000  0.46104300  0.52970800  1
  C  2456  1  0.18288200  0.46504400  0.53758000  1
  C  2457  1  0.19408100  0.45080600  0.55268100  1
  C  2458  1  0.18134800  0.43210800  0.56027300  1
  C  2459  1  0.15695900  0.42830300  0.55226900  1
  C  2460  1  0.14576500  0.44245500  0.53719600  1
  C  2461  1  0.06932700  0.54419900  0.53043100  1
  C  2462  1  0.04890800  0.53323000  0.53984900  1
  C  2463  1  0.03301500  0.54392200  0.55453700  1
  C  2464  1  0.03673400  0.56601000  0.56025400  1
  C  2465  1  0.07340500  0.56616100  0.53618500  1
  C  2466  1  0.06774200  0.54350800  0.41726400  1
  C  2467  1  0.04450400  0.53428700  0.41171900  1
  C  2468  1  0.07402500  0.56400600  0.40847400  1
  C  2469  1  0.03376000  0.56611100  0.38927900  1
  C  2470  1  0.02785500  0.54540600  0.39798100  1
  C  2493  1  0.19148400  0.41776700  0.57547300  1
  C  2494  1  0.19035400  0.41847900  0.36963100  1
  C  2498  1  0.60595000  0.49819900  0.04226900  1
  C  2499  1  0.62381900  0.51437600  0.04245500  1
  C  2500  1  0.62976700  0.51961100  0.02097200  1
  C  2502  1  0.60065700  0.49296800  0.02067100  1
  C  2503  1  0.58279500  0.47724200  0.01386400  1
  C  2504  1  0.57755800  0.47203100  0.99181100  1
  C  2505  1  0.65273500  0.54123600  0.99257800  1
  C  2506  1  0.64701400  0.53603900  0.01454300  1
  C  2507  1  0.65803700  0.54935100  0.03106900  1
  C  2508  1  0.68346500  0.54737700  0.03678400  1
  C  2509  1  0.69437400  0.56151000  0.05214100  1
  C  2510  1  0.64385100  0.56584400  0.04110500  1
  C  2511  1  0.56762500  0.46700700  0.03001200  1
  C  2512  1  0.54432800  0.47613600  0.03544000  1
  C  2513  1  0.57399200  0.44658000  0.03891900  1
  C  2514  1  0.55732700  0.43548300  0.05276100  1
  C  2515  1  0.53369800  0.44435600  0.05798100  1
  C  2516  1  0.52770200  0.46498700  0.04915400  1
  C  2529  1  0.51596600  0.43336400  0.07050400  1
  C  2531  1  0.47794900  0.13497100  0.12195300  1
  C  2532  1  0.46666200  0.11858800  0.10928400  1
  C  2533  1  0.48101400  0.10498000  0.09579700  1
  C  2534  1  0.50722000  0.10734900  0.09446100  1
  C  2535  1  0.51856400  0.12405200  0.10680400  1
  C  2538  1  0.50407400  0.13769400  0.12023100  1
  C  2544  1  0.22786300  0.40311400  0.59299200  1
  C  2545  1  0.25405000  0.40255700  0.59081500  1
  C  2549  1  0.25687200  0.13523200  0.32668900  1
  C  2550  1  0.26751300  0.11999800  0.34124500  1
  C  2551  1  0.25241600  0.10649900  0.35422300  1
  C  2552  1  0.22620000  0.10789400  0.35335600  1
  C  2553  1  0.21536700  0.12278400  0.33845500  1
  C  2556  1  0.23062800  0.13637900  0.32560500  1
  C  2562  1  0.25117000  0.10954500  0.59223700  1
  C  2563  1  0.22491600  0.10946600  0.59385100  1
  C  2567  1  0.50569900  0.40363700  0.09396300  1
  C  2568  1  0.51698000  0.39096000  0.11034100  1
  C  2569  1  0.50261900  0.37742100  0.12391300  1
  C  2570  1  0.47641600  0.37605900  0.12151000  1
  C  2571  1  0.46508100  0.38840200  0.10480000  1
  C  2574  1  0.47957900  0.40188000  0.09119400  1
  C  2580  1  0.22679400  0.40203500  0.35363900  1
  C  2581  1  0.21609300  0.38751600  0.33840100  1
  C  2582  1  0.23113100  0.37460200  0.32481700  1
  C  2583  1  0.25735700  0.37549000  0.32611900  1
  C  2584  1  0.26824700  0.39035600  0.34100900  1
  C  2587  1  0.25304600  0.40314300  0.35468900  1
  C  2594  1  0.46595900  0.96915000  0.95467000  1
  C  2595  1  0.48159500  0.95236900  0.96156600  1
  C  2596  1  0.48178900  0.95227100  0.98397700  1
  C  2597  1  0.46032600  0.97448400  0.93270500  1
  C  2598  1  0.47190800  0.96171200  0.91602000  1
  C  2599  1  0.49757800  0.96382300  0.91123100  1
  C  2600  1  0.50892700  0.95076800  0.89521000  1
  C  2601  1  0.49487500  0.93533700  0.88334300  1
  C  2602  1  0.46920100  0.93327300  0.88816200  1
  C  2603  1  0.45796000  0.94606200  0.90439500  1
  C  2609  1  0.50506500  0.92334200  0.86639400  1
  C  2611  1  0.66950500  0.82319300  0.73097700  1
  C  2612  1  0.68733900  0.82341200  0.71479800  1
  C  2613  1  0.69328900  0.80194100  0.70953500  1
  C  2615  1  0.66422900  0.80158300  0.73618000  1
  C  2616  1  0.64646700  0.79475700  0.75196200  1
  C  2617  1  0.64132100  0.77268600  0.75715600  1
  C  2619  1  0.64193400  0.73619900  0.75724700  1
  C  2620  1  0.62384200  0.74304900  0.77204000  1
  C  2621  1  0.62347900  0.76545200  0.77199600  1
  C  2622  1  0.64771300  0.71425200  0.75203600  1
  C  2623  1  0.66538100  0.70783100  0.73600100  1
  C  2625  1  0.69409700  0.70818000  0.70909900  1
  C  2626  1  0.68828100  0.68657200  0.71387900  1
  C  2627  1  0.67080400  0.68635800  0.73035400  1
  C  2628  1  0.63330500  0.69774500  0.76256800  1
  C  2629  1  0.61242400  0.68873800  0.75189200  1
  C  2630  1  0.59644800  0.67425200  0.76279500  1
  C  2631  1  0.60060200  0.66833200  0.78477200  1
  C  2632  1  0.62175900  0.67727300  0.79531000  1
  C  2633  1  0.63785600  0.69173700  0.78438900  1
  C  2634  1  0.63133600  0.81090200  0.76224900  1
  C  2635  1  0.60843800  0.81697400  0.75272600  1
  C  2636  1  0.63745600  0.81945500  0.78288900  1
  C  2637  1  0.62099900  0.83365900  0.79375000  1
  C  2638  1  0.59783200  0.83966300  0.78441000  1
  C  2639  1  0.59204200  0.83108200  0.76361900  1
  C  2656  1  0.58042900  0.85293100  0.79493200  1
  C  2658  1  0.56886000  0.87436500  0.82583200  1
  C  2659  1  0.57988300  0.88790700  0.84165300  1
  C  2660  1  0.56517200  0.90110900  0.85528100  1
  C  2661  1  0.53891400  0.90122000  0.85363700  1
  C  2662  1  0.52767500  0.88702800  0.83827500  1
  C  2665  1  0.54253000  0.87403700  0.82452500  1
  C  2671  1  0.71107600  0.71503000  0.69268200  1
  C  2672  1  0.71653400  0.73710000  0.68772000  1
  C  2674  1  0.71629700  0.77359800  0.68790100  1
  C  2675  1  0.71056500  0.79554700  0.69314200  1
  C  2676  1  0.72164000  0.81211500  0.67993000  1
  C  2677  1  0.74706500  0.81780900  0.68202900  1
  C  2678  1  0.72204100  0.69885500  0.67900700  1
  C  2679  1  0.74604600  0.69041900  0.68324200  1
  C  2683  1  0.58348400  0.65478400  0.79525400  1
  C  2687  1  0.73204500  0.76671800  0.67120600  1
  C  2688  1  0.73229200  0.74430800  0.67117000  1
  C  2689  1  0.75800200  0.83328000  0.66804400  1
  C  2690  1  0.74383900  0.84361100  0.65157300  1
  C  2691  1  0.70748400  0.82227200  0.66345600  1
  C  2692  1  0.75756400  0.67608200  0.66844900  1
  C  2693  1  0.70981100  0.69250600  0.65970900  1
  C  2699  1  0.53078500  0.62068500  0.83815900  1
  C  2700  1  0.54550700  0.63396200  0.82468700  1
  C  2701  1  0.57176300  0.63438800  0.82676900  1
  C  2702  1  0.58280600  0.62125600  0.84303400  1
  C  2705  1  0.71836200  0.83783700  0.64965400  1
  C  2706  1  0.74555400  0.66984400  0.64888100  1
  C  2707  1  0.72135500  0.67823100  0.64497700  1
  C  2709  1  0.75366700  0.85942200  0.63774100  1
  C  2711  1  0.75652500  0.65620500  0.63342400  1
  C  2714  1  0.54170700  0.60754900  0.85448400  1
  C  2715  1  0.56790300  0.60808000  0.85663900  1
  C  2719  1  0.78973500  0.87527300  0.62063800  1
  C  2720  1  0.81592300  0.87316800  0.61983700  1
  C  2725  1  0.81667200  0.63966200  0.61771000  1
  C  2726  1  0.79118600  0.63529000  0.62136000  1
  C  2728  1  0.50535000  0.59297500  0.87207800  1
  C  2731  1  0.77861300  0.89141900  0.60741200  1
  C  2732  1  0.83063500  0.88679800  0.60651100  1
  C  2735  1  0.83104100  0.62640400  0.60387000  1
  C  2736  1  0.78046300  0.61690100  0.61106000  1
  C  2738  1  0.49520500  0.57861700  0.88725800  1
  C  2739  1  0.47083800  0.58243100  0.89525500  1
  C  2741  1  0.46067100  0.97379900  0.01326900  1
  C  2742  1  0.46611600  0.96888200  0.99118800  1
  C  2743  1  0.47156300  0.96000300  0.02940500  1
  C  2744  1  0.49545100  0.96426200  0.03809200  1
  C  2745  1  0.50707500  0.94921700  0.05213300  1
  C  2746  1  0.49528100  0.92938100  0.05779600  1
  C  2747  1  0.47118100  0.92546000  0.04919600  1
  C  2748  1  0.45951400  0.94046400  0.03524900  1
  C  2755  1  0.50666400  0.91345200  0.07062300  1
  C  2757  1  0.89595700  0.97735000  0.51350700  1
  C  2758  1  0.89069800  0.97232700  0.49142100  1
  C  2760  1  0.89128500  0.97239200  0.45493900  1
  C  2761  1  0.87304300  0.95768400  0.46173200  1
  C  2762  1  0.87272500  0.95760400  0.48413600  1
  C  2763  1  0.89712000  0.97765900  0.43301500  1
  C  2764  1  0.88260000  0.96730000  0.41644200  1
  C  2765  1  0.86193700  0.97820000  0.40733300  1
  C  2766  1  0.84585800  0.96749300  0.39276600  1
  C  2767  1  0.84967300  0.94548000  0.38685600  1
  C  2768  1  0.87064400  0.93472600  0.39586900  1
  C  2769  1  0.88683100  0.94544300  0.41043200  1
  C  2770  1  0.88090300  0.96692800  0.52960900  1
  C  2771  1  0.85795800  0.97630400  0.53569200  1
  C  2772  1  0.88717700  0.94631400  0.53812900  1
  C  2773  1  0.87086000  0.93536500  0.55239500  1
  C  2774  1  0.84768200  0.94458800  0.55846200  1
  C  2775  1  0.84169600  0.96532600  0.54986500  1
  C  2784  1  0.83250300  0.93521000  0.37315000  1
  C  2785  1  0.83056200  0.93408300  0.57200600  1
  C  2788  1  0.69144800  0.82382100  0.23118900  1
  C  2789  1  0.67356100  0.82406800  0.21502100  1
  C  2790  1  0.66746000  0.80260500  0.20982200  1
  C  2792  1  0.69661200  0.80220400  0.23643600  1
  C  2793  1  0.71442100  0.79533100  0.25218200  1
  C  2794  1  0.71956900  0.77326400  0.25739600  1
  C  2796  1  0.71906600  0.73677100  0.25744200  1
  C  2797  1  0.73713200  0.74365300  0.27228400  1
  C  2798  1  0.73737400  0.76605700  0.27231800  1
  C  2799  1  0.71336700  0.71481500  0.25216700  1
  C  2800  1  0.69567100  0.70842500  0.23609800  1
  C  2802  1  0.66692300  0.70881900  0.20916600  1
  C  2803  1  0.67278200  0.68720600  0.21386300  1
  C  2804  1  0.69028400  0.68696300  0.23035300  1
  C  2805  1  0.64995600  0.71570300  0.19273200  1
  C  2806  1  0.64431900  0.73777100  0.18790900  1
  C  2808  1  0.64436200  0.77427500  0.18821700  1
  C  2809  1  0.62855300  0.76737800  0.17153900  1
  C  2810  1  0.62844900  0.74497100  0.17140700  1
  C  2811  1  0.65013500  0.79623300  0.19342200  1
  C  2812  1  0.63909700  0.81279900  0.18015600  1
  C  2813  1  0.61368000  0.81850300  0.18216100  1
  C  2814  1  0.60275000  0.83385900  0.16803300  1
  C  2815  1  0.61689700  0.84407500  0.15148700  1
  C  2816  1  0.64237200  0.83831000  0.14968400  1
  C  2817  1  0.65324400  0.82285300  0.16363000  1
  C  2818  1  0.63912100  0.69957100  0.17890500  1
  C  2819  1  0.61523000  0.69087900  0.18308100  1
  C  2820  1  0.60363500  0.67688800  0.16797700  1
  C  2821  1  0.61546300  0.67128100  0.14816200  1
  C  2822  1  0.63957000  0.67987600  0.14432500  1
  C  2823  1  0.65120600  0.69378100  0.15938700  1
  C  2824  1  0.72798500  0.69830600  0.26251700  1
  C  2825  1  0.74866200  0.68930800  0.25158800  1
  C  2826  1  0.76476300  0.67472300  0.26223800  1
  C  2827  1  0.76096400  0.66868300  0.28422300  1
  C  2828  1  0.74000500  0.67761000  0.29501800  1
  C  2829  1  0.72379000  0.69218200  0.28435600  1
  C  2830  1  0.72966600  0.81144800  0.26240700  1
  C  2831  1  0.75301000  0.81679700  0.25330800  1
  C  2832  1  0.72323700  0.82051200  0.28273300  1
  C  2833  1  0.73988500  0.83444200  0.29375900  1
  C  2834  1  0.76355200  0.83960100  0.28491100  1
  C  2835  1  0.76960600  0.83062300  0.26437300  1
  C  2862  1  0.78123200  0.85227100  0.29581600  1
  C  2863  1  0.60700900  0.85967700  0.13741200  1
  C  2866  1  0.79145200  0.87581600  0.32545900  1
  C  2867  1  0.78012600  0.89218300  0.33807900  1
  C  2868  1  0.79446100  0.90584800  0.35155800  1
  C  2869  1  0.82066800  0.90352500  0.35293100  1
  C  2870  1  0.83204700  0.88682400  0.34065400  1
  C  2873  1  0.81757600  0.87313000  0.32723200  1
  C  2879  1  0.57054100  0.87548800  0.12079300  1
  C  2880  1  0.58120800  0.89070600  0.10624500  1
  C  2881  1  0.56613100  0.90424100  0.09327500  1
  C  2882  1  0.53991100  0.90290500  0.09416200  1
  C  2883  1  0.52905400  0.88802300  0.10904500  1
  C  2886  1  0.54429600  0.87438800  0.12188100  1
  C  2892  1  0.79314000  0.90491000  0.59398800  1
  C  2893  1  0.81940500  0.90296700  0.59338000  1
  C  2896  1  0.60410800  0.65850800  0.13217600  1
  C  2897  1  0.77814900  0.65494400  0.29442100  1
  C  2905  1  0.83064800  0.61965800  0.33713200  1
  C  2906  1  0.81626000  0.63320800  0.32358300  1
  C  2907  1  0.79005900  0.63451400  0.32596200  1
  C  2908  1  0.77874500  0.62209600  0.34261400  1
  C  2910  1  0.52956300  0.62307500  0.10916000  1
  C  2911  1  0.54463100  0.63598100  0.12276000  1
  C  2912  1  0.57085200  0.63505000  0.12149900  1
  C  2913  1  0.58171600  0.62018800  0.10662700  1
  C  2915  1  0.82059000  0.60798400  0.59367900  1
  C  2916  1  0.79508500  0.60351000  0.59748200  1
  C  2918  1  0.81938500  0.60689600  0.35344300  1
  C  2920  1  0.79326900  0.60859400  0.35618700  1
  C  2922  1  0.54023700  0.60855000  0.09394800  1
  C  2923  1  0.56648100  0.60741700  0.09292400  1
  C  2929  1  0.50377300  0.59210000  0.07794900  1
  C  2937  1  0.87109100  0.57687700  0.55085100  1
  C  2938  1  0.87103200  0.57509100  0.39464400  1
  C  2941  1  0.83354300  0.57614300  0.57427700  1
  C  2942  1  0.82971800  0.57707500  0.37674700  1
  C  2944  1  0.49390500  0.57802600  0.06234100  1
  C  2945  1  0.46841900  0.57980400  0.05655300  1
  C  2946  1  0.41977200  0.01299900  0.90528900  1
  C  2947  1  0.43759300  0.99680600  0.90498400  1
  C  2948  1  0.44315800  0.99103900  0.92641900  1
  C  2950  1  0.41413800  0.01773700  0.92692400  1
  C  2951  1  0.39631500  0.03342500  0.93383000  1
  C  2952  1  0.39106400  0.03850100  0.95589700  1
  C  2954  1  0.37341700  0.05322100  0.98551600  1
  C  2955  1  0.37312500  0.05325700  0.96311000  1
  C  2956  1  0.38126600  0.04382200  0.91769200  1
  C  2957  1  0.35837200  0.03436700  0.91150300  1
  C  2958  1  0.38750700  0.06446700  0.90923100  1
  C  2959  1  0.37118200  0.07538800  0.89493500  1
  C  2960  1  0.34804800  0.06609600  0.88876800  1
  C  2961  1  0.34211000  0.04531600  0.89729100  1
  C  2970  1  0.33092600  0.07657300  0.87519100  1
  C  2972  1  0.16948800  0.18741400  0.71643100  1
  C  2973  1  0.18736800  0.18720500  0.73260400  1
  C  2974  1  0.19332400  0.20868000  0.73787600  1
  C  2976  1  0.16420300  0.20902200  0.71123900  1
  C  2978  1  0.16534700  0.30276600  0.71135600  1
  C  2980  1  0.19407500  0.30243100  0.73828800  1
  C  2981  1  0.18827000  0.32403600  0.73350400  1
  C  2982  1  0.17077900  0.32424200  0.71700700  1
  C  2983  1  0.21105900  0.29558500  0.75472200  1
  C  2984  1  0.21653900  0.27353100  0.75970700  1
  C  2986  1  0.21635300  0.23704100  0.75952600  1
  C  2987  1  0.23214800  0.24394500  0.77621100  1
  C  2988  1  0.23235000  0.26635300  0.77626200  1
  C  2989  1  0.21061300  0.21508900  0.75428700  1
  C  2990  1  0.22172000  0.19853200  0.76749300  1
  C  2991  1  0.24713000  0.19284900  0.76537400  1
  C  2992  1  0.25809700  0.17737400  0.77934300  1
  C  2993  1  0.24397400  0.16703300  0.79581200  1
  C  2994  1  0.21851000  0.17279900  0.79775400  1
  C  2995  1  0.20760500  0.18836900  0.78396900  1
  C  2996  1  0.22202600  0.31176300  0.76840300  1
  C  2997  1  0.24597300  0.32028200  0.76412600  1
  C  2998  1  0.25749400  0.33465500  0.77891000  1
  C  2999  1  0.24554100  0.34081100  0.79850300  1
  C  3000  1  0.22139200  0.33233600  0.80244300  1
  C  3001  1  0.20983100  0.31804600  0.78771000  1
  C  3020  1  0.25654100  0.35445400  0.81395100  1
  C  3021  1  0.25383100  0.15122000  0.80962700  1
  C  3025  1  0.39175000  0.47189300  0.95532700  1
  C  3026  1  0.37359600  0.45716100  0.96223300  1
  C  3027  1  0.37334000  0.45720900  0.98463700  1
  C  3028  1  0.39751800  0.47704600  0.93336600  1
  C  3029  1  0.41531700  0.49299300  0.92693300  1
  C  3031  1  0.44422900  0.51977700  0.92723500  1
  C  3032  1  0.43858400  0.51480900  0.90563100  1
  C  3033  1  0.42097500  0.49842100  0.90544600  1
  C  3034  1  0.46128400  0.53617600  0.93404700  1
  C  3035  1  0.46670100  0.54127200  0.95608600  1
  C  3037  1  0.48211300  0.55798600  0.98563000  1
  C  3038  1  0.48236600  0.55793900  0.96322000  1
  C  3039  1  0.47239400  0.54966100  0.91778700  1
  C  3040  1  0.49669500  0.54565600  0.90992600  1
  C  3041  1  0.50790400  0.55990300  0.89484800  1
  C  3042  1  0.45963900  0.56827100  0.91030900  1
  C  3043  1  0.38302000  0.46656900  0.91686200  1
  C  3044  1  0.36256000  0.47752700  0.90748600  1
  C  3045  1  0.34666800  0.46684500  0.89275400  1
  C  3046  1  0.35045400  0.44479500  0.88695500  1
  C  3047  1  0.37114400  0.43394600  0.89632400  1
  C  3048  1  0.38717900  0.44465200  0.91102100  1
  C  3060  1  0.33358700  0.43467200  0.87287100  1
  C  3062  1  0.32058200  0.40277500  0.85361000  1
  C  3063  1  0.33103800  0.38436200  0.84345600  1
  C  3064  1  0.31665900  0.37108400  0.82960700  1
  C  3065  1  0.29118100  0.37546000  0.82591000  1
  C  3066  1  0.28045000  0.39383500  0.83618200  1
  C  3069  1  0.29508000  0.40724100  0.84977300  1
  C  3075  1  0.28994200  0.13541500  0.82672100  1
  C  3076  1  0.27885700  0.11923900  0.83992300  1
  C  3077  1  0.29342200  0.10575600  0.85333700  1
  C  3078  1  0.31968800  0.10773000  0.85393600  1
  C  3079  1  0.33088100  0.12393600  0.84083600  1
  C  3082  1  0.31613200  0.13755800  0.82752300  1
  C  3088  1  0.14640700  0.21584800  0.69546000  1
  C  3089  1  0.14123900  0.23790000  0.69024200  1
  C  3090  1  0.14185600  0.27437800  0.69011000  1
  C  3091  1  0.12368700  0.26750500  0.67535600  1
  C  3092  1  0.12334600  0.24510200  0.67540200  1
  C  3093  1  0.14766200  0.29632800  0.69530500  1
  C  3094  1  0.13321000  0.31281800  0.68479800  1
  C  3095  1  0.11237200  0.32180900  0.69548600  1
  C  3096  1  0.09640300  0.33632900  0.68461400  1
  C  3097  1  0.13123700  0.19969200  0.68521300  1
  C  3098  1  0.10840400  0.19357600  0.69479200  1
  C  3099  1  0.09198400  0.17942000  0.68394000  1
  C  3102  1  0.10051600  0.34227800  0.66264500  1
  C  3103  1  0.12162100  0.33333333  0.65209000  1
  C  3104  1  0.13770100  0.31883600  0.66297700  1
  C  3105  1  0.13727300  0.19116700  0.66456300  1
  C  3106  1  0.12077900  0.17694600  0.65373000  1
  C  3107  1  0.09768800  0.17087200  0.66313500  1
  C  3112  1  0.08341700  0.35587000  0.65219200  1
  C  3113  1  0.08028100  0.15755700  0.65264700  1
  C  3121  1  0.04540100  0.37669800  0.62278200  1
  C  3122  1  0.07164700  0.37624500  0.62067700  1
  C  3124  1  0.06862700  0.13627600  0.62168200  1
  C  3125  1  0.04230100  0.13665300  0.62294200  1
  C  3126  1  0.03067100  0.38998900  0.60932100  1
  C  3127  1  0.08267500  0.38936200  0.60440700  1
  C  3130  1  0.07962400  0.12273800  0.60587900  1
  C  3131  1  0.02741200  0.12367500  0.60917300  1
  C  3134  1  0.39163000  0.03852700  0.99238500  1
  C  3135  1  0.39744400  0.03330800  0.01433700  1
  C  3136  1  0.41519300  0.01727300  0.02066900  1
  C  3138  1  0.44386200  0.99031000  0.02019600  1
  C  3139  1  0.43819700  0.99507600  0.04182600  1
  C  3140  1  0.42073900  0.01157500  0.04211600  1
  C  3141  1  0.38292300  0.04368800  0.03087900  1
  C  3142  1  0.36229900  0.03276200  0.04001400  1
  C  3143  1  0.34621800  0.04346300  0.05454900  1
  C  3144  1  0.34997400  0.06550400  0.06041400  1
  C  3145  1  0.37088700  0.07629400  0.05136400  1
  C  3146  1  0.38707600  0.06558300  0.03683200  1
  C  3154  1  0.33277300  0.07576000  0.07407400  1
  C  3156  1  0.91952260  0.99770000  0.54209000  1
  C  3157  1  0.93736560  0.01389200  0.54242300  1
  C  3158  1  0.94285560  0.01971800  0.52099900  1
  C  3160  1  0.91383460  0.99300500  0.52044400  1
  C  3161  1  0.91492660  0.99365400  0.42670700  1
  C  3163  1  0.94367460  0.02057300  0.42722800  1
  C  3164  1  0.93797260  0.01583400  0.40558800  1
  C  3165  1  0.92048960  0.99933800  0.40526700  1
  C  3166  1  0.96053960  0.03705500  0.43418500  1
  C  3167  1  0.96589360  0.04199800  0.45628700  1
  C  3169  1  0.96562360  0.04171000  0.49279900  1
  C  3170  1  0.98130560  0.05849500  0.48597800  1
  C  3171  1  0.98157160  0.05860100  0.46356700  1
  C  3172  1  0.95997660  0.03631800  0.51473600  1
  C  3173  1  0.97156560  0.04905700  0.53145100  1
  C  3174  1  0.99720660  0.04684400  0.53634500  1
  C  3175  1  0.00857300  0.05985700  0.55241300  1
  C  3176  1  0.99456160  0.07533200  0.56420800  1
  C  3177  1  0.96891160  0.07748100  0.55930000  1
  C  3178  1  0.95765160  0.06473600  0.54301600  1
  C  3179  1  0.97146160  0.05086700  0.41808200  1
  C  3180  1  0.99529160  0.04654600  0.40935900  1
  C  3181  1  0.00694100  0.06157000  0.39531900  1
  C  3182  1  0.99524360  0.08145900  0.38970000  1
  C  3183  1  0.97119760  0.08543900  0.39833100  1
  C  3184  1  0.95950960  0.07046100  0.41228400  1
  C  3203  1  0.00664900  0.09736400  0.37685700  1
  C  3204  1  0.00478600  0.08728700  0.58117200  1
  C  3207  1  0.19152800  0.18678500  0.21629300  1
  C  3208  1  0.17365400  0.18653700  0.23244100  1
  C  3209  1  0.16763800  0.20799800  0.23768600  1
  C  3211  1  0.19675200  0.20840100  0.21107900  1
  C  3212  1  0.21457800  0.21527300  0.19536900  1
  C  3213  1  0.21972700  0.23735500  0.19019400  1
  C  3215  1  0.21923700  0.27385900  0.19017700  1
  C  3216  1  0.23728600  0.26699500  0.17535500  1
  C  3217  1  0.23753600  0.24458900  0.17531700  1
  C  3218  1  0.21355500  0.29581400  0.19544700  1
  C  3219  1  0.19586900  0.30219900  0.21149100  1
  C  3221  1  0.16712600  0.30180100  0.23838500  1
  C  3222  1  0.17301300  0.32341500  0.23369800  1
  C  3223  1  0.19048500  0.32365900  0.21721600  1
  C  3224  1  0.15013600  0.29492200  0.25478300  1
  C  3225  1  0.14458300  0.27283900  0.25963800  1
  C  3227  1  0.14466300  0.23632400  0.25933800  1
  C  3228  1  0.12887700  0.24320500  0.27600200  1
  C  3229  1  0.12874700  0.26561300  0.27612800  1
  C  3230  1  0.15037800  0.21436600  0.25410300  1
  C  3231  1  0.13930500  0.19779000  0.26733700  1
  C  3232  1  0.11386400  0.19212700  0.26530000  1
  C  3233  1  0.10289000  0.17679100  0.27941800  1
  C  3234  1  0.11700800  0.16654900  0.29598300  1
  C  3235  1  0.14251300  0.17226000  0.29780700  1
  C  3236  1  0.15343400  0.18769000  0.28386700  1
  C  3237  1  0.13931500  0.31105100  0.26861400  1
  C  3238  1  0.11542100  0.31974300  0.26442300  1
  C  3239  1  0.10384700  0.33373200  0.27951800  1
  C  3240  1  0.11568000  0.33933500  0.29935900  1
  C  3241  1  0.13978800  0.33074100  0.30321200  1
  C  3242  1  0.15139800  0.31683300  0.28816600  1
  C  3243  1  0.22814500  0.31233400  0.18507900  1
  C  3244  1  0.24885300  0.32137000  0.19599000  1
  C  3245  1  0.26493500  0.33594500  0.18531500  1
  C  3246  1  0.26109000  0.34194200  0.16331500  1
  C  3247  1  0.24008300  0.33299700  0.15254400  1
  C  3248  1  0.22388800  0.31842800  0.16323200  1
  C  3249  1  0.22979200  0.19916000  0.18512700  1
  C  3250  1  0.25318200  0.19384300  0.19419000  1
  C  3251  1  0.22335200  0.19012900  0.16476800  1
  C  3252  1  0.23999500  0.17625600  0.15370400  1
  C  3253  1  0.26369800  0.17112700  0.16252700  1
  C  3254  1  0.26978100  0.18008500  0.18308500  1
  C  3281  1  0.10435900  0.35211600  0.31534400  1
  C  3282  1  0.27826000  0.35567300  0.15309000  1
  C  3283  1  0.28140100  0.15854300  0.15158200  1
  C  3284  1  0.10707500  0.15096500  0.31005300  1
  C  3289  1  0.91978860  0.51237800  0.40509600  1
  C  3290  1  0.93767060  0.49622700  0.40494800  1
  C  3291  1  0.94359060  0.49098000  0.42644300  1
  C  3293  1  0.91447360  0.51759600  0.42668300  1
  C  3294  1  0.89662000  0.53331400  0.43345400  1
  C  3295  1  0.89135600  0.53855900  0.45548500  1
  C  3297  1  0.89179900  0.53879000  0.49197600  1
  C  3298  1  0.87361500  0.55345200  0.48498700  1
  C  3299  1  0.87340500  0.55336700  0.46258100  1
  C  3300  1  0.89755000  0.53369900  0.51396600  1
  C  3301  1  0.91531260  0.51773300  0.52043200  1
  C  3303  1  0.94415760  0.49091900  0.52018800  1
  C  3304  1  0.93854460  0.49591800  0.54178100  1
  C  3305  1  0.92097560  0.51232200  0.54192800  1
  C  3306  1  0.96117260  0.47450200  0.51341500  1
  C  3307  1  0.96661960  0.46938000  0.49139600  1
  C  3309  1  0.96648260  0.46938500  0.45489700  1
  C  3310  1  0.98212360  0.45265500  0.46192300  1
  C  3311  1  0.98228560  0.45270400  0.48433400  1
  C  3312  1  0.96082260  0.47455000  0.43290100  1
  C  3313  1  0.97190560  0.46125300  0.41640200  1
  C  3314  1  0.99738060  0.46317000  0.41085300  1
  C  3315  1  0.00833400  0.44903900  0.39553900  1
  C  3316  1  0.99416260  0.43256700  0.38520400  1
  C  3317  1  0.96863160  0.43084300  0.39082800  1
  C  3318  1  0.95773260  0.44480000  0.40623000  1
  C  3319  1  0.97227060  0.46104300  0.52970800  1
  C  3320  1  0.99659260  0.46504400  0.53758000  1
  C  3321  1  0.00779200  0.45080600  0.55268100  1
  C  3322  1  0.99505860  0.43210800  0.56027300  1
  C  3323  1  0.97066960  0.42830300  0.55226900  1
  C  3324  1  0.95947560  0.44245500  0.53719600  1
  C  3325  1  0.88303800  0.54419900  0.53043100  1
  C  3326  1  0.86261900  0.53323000  0.53984900  1
  C  3327  1  0.84672600  0.54392200  0.55453700  1
  C  3328  1  0.85044500  0.56601000  0.56025400  1
  C  3329  1  0.88711600  0.56616100  0.53618500  1
  C  3330  1  0.88145300  0.54350800  0.41726400  1
  C  3331  1  0.85821500  0.53428700  0.41171900  1
  C  3332  1  0.88773600  0.56400600  0.40847400  1
  C  3333  1  0.84747100  0.56611100  0.38927900  1
  C  3334  1  0.84156600  0.54540600  0.39798100  1
  C  3357  1  0.00519500  0.41776700  0.57547300  1
  C  3358  1  0.00406500  0.41847900  0.36963100  1
  C  3362  1  0.41966100  0.49819900  0.04226900  1
  C  3363  1  0.43753000  0.51437600  0.04245500  1
  C  3364  1  0.44347800  0.51961100  0.02097200  1
  C  3366  1  0.41436800  0.49296800  0.02067100  1
  C  3367  1  0.39650600  0.47724200  0.01386400  1
  C  3368  1  0.39126900  0.47203100  0.99181100  1
  C  3369  1  0.46644600  0.54123600  0.99257800  1
  C  3370  1  0.46072500  0.53603900  0.01454300  1
  C  3371  1  0.47174800  0.54935100  0.03106900  1
  C  3372  1  0.49717600  0.54737700  0.03678400  1
  C  3373  1  0.50808500  0.56151000  0.05214100  1
  C  3374  1  0.45756200  0.56584400  0.04110500  1
  C  3375  1  0.38133600  0.46700700  0.03001200  1
  C  3376  1  0.35803900  0.47613600  0.03544000  1
  C  3377  1  0.38770300  0.44658000  0.03891900  1
  C  3378  1  0.37103800  0.43548300  0.05276100  1
  C  3379  1  0.34740900  0.44435600  0.05798100  1
  C  3380  1  0.34141300  0.46498700  0.04915400  1
  C  3393  1  0.32967700  0.43336400  0.07050400  1
  C  3395  1  0.29166000  0.13497100  0.12195300  1
  C  3396  1  0.28037300  0.11858800  0.10928400  1
  C  3397  1  0.29472500  0.10498000  0.09579700  1
  C  3398  1  0.32093100  0.10734900  0.09446100  1
  C  3399  1  0.33227500  0.12405200  0.10680400  1
  C  3402  1  0.31778500  0.13769400  0.12023100  1
  C  3408  1  0.04157400  0.40311400  0.59299200  1
  C  3409  1  0.06776100  0.40255700  0.59081500  1
  C  3413  1  0.07058300  0.13523200  0.32668900  1
  C  3414  1  0.08122400  0.11999800  0.34124500  1
  C  3415  1  0.06612700  0.10649900  0.35422300  1
  C  3416  1  0.03991100  0.10789400  0.35335600  1
  C  3417  1  0.02907800  0.12278400  0.33845500  1
  C  3420  1  0.04433900  0.13637900  0.32560500  1
  C  3426  1  0.06488100  0.10954500  0.59223700  1
  C  3427  1  0.03862700  0.10946600  0.59385100  1
  C  3431  1  0.31941000  0.40363700  0.09396300  1
  C  3432  1  0.33069100  0.39096000  0.11034100  1
  C  3433  1  0.31633000  0.37742100  0.12391300  1
  C  3434  1  0.29012700  0.37605900  0.12151000  1
  C  3435  1  0.27879200  0.38840200  0.10480000  1
  C  3438  1  0.29329000  0.40188000  0.09119400  1
  C  3444  1  0.04050500  0.40203500  0.35363900  1
  C  3445  1  0.02980400  0.38751600  0.33840100  1
  C  3446  1  0.04484200  0.37460200  0.32481700  1
  C  3447  1  0.07106800  0.37549000  0.32611900  1
  C  3448  1  0.08195800  0.39035600  0.34100900  1
  C  3451  1  0.06675700  0.40314300  0.35468900  1
  C  3458  1  0.27966900  0.96915000  0.95467000  1
  C  3459  1  0.29530500  0.95236900  0.96156600  1
  C  3460  1  0.29549900  0.95227100  0.98397700  1
  C  3461  1  0.27403600  0.97448400  0.93270500  1
  C  3462  1  0.28561800  0.96171200  0.91602000  1
  C  3463  1  0.31128800  0.96382300  0.91123100  1
  C  3464  1  0.32263700  0.95076800  0.89521000  1
  C  3465  1  0.30858500  0.93533700  0.88334300  1
  C  3466  1  0.28291100  0.93327300  0.88816200  1
  C  3467  1  0.27167000  0.94606200  0.90439500  1
  C  3473  1  0.31877500  0.92334200  0.86639400  1
  C  3475  1  0.48321500  0.82319300  0.73097700  1
  C  3476  1  0.50104900  0.82341200  0.71479800  1
  C  3477  1  0.50699900  0.80194100  0.70953500  1
  C  3479  1  0.47793900  0.80158300  0.73618000  1
  C  3480  1  0.46017700  0.79475700  0.75196200  1
  C  3481  1  0.45503100  0.77268600  0.75715600  1
  C  3483  1  0.45564400  0.73619900  0.75724700  1
  C  3484  1  0.43755200  0.74304900  0.77204000  1
  C  3485  1  0.43718900  0.76545200  0.77199600  1
  C  3486  1  0.46142300  0.71425200  0.75203600  1
  C  3487  1  0.47909100  0.70783100  0.73600100  1
  C  3489  1  0.50780700  0.70818000  0.70909900  1
  C  3490  1  0.50199100  0.68657200  0.71387900  1
  C  3491  1  0.48451400  0.68635800  0.73035400  1
  C  3492  1  0.44701500  0.69774500  0.76256800  1
  C  3493  1  0.42613400  0.68873800  0.75189200  1
  C  3494  1  0.41015800  0.67425200  0.76279500  1
  C  3495  1  0.41431200  0.66833200  0.78477200  1
  C  3496  1  0.43546900  0.67727300  0.79531000  1
  C  3497  1  0.45156600  0.69173700  0.78438900  1
  C  3498  1  0.44504600  0.81090200  0.76224900  1
  C  3499  1  0.42214800  0.81697400  0.75272600  1
  C  3500  1  0.45116600  0.81945500  0.78288900  1
  C  3501  1  0.43470900  0.83365900  0.79375000  1
  C  3502  1  0.41154200  0.83966300  0.78441000  1
  C  3503  1  0.40575200  0.83108200  0.76361900  1
  C  3520  1  0.39413900  0.85293100  0.79493200  1
  C  3522  1  0.38257000  0.87436500  0.82583200  1
  C  3523  1  0.39359300  0.88790700  0.84165300  1
  C  3524  1  0.37888200  0.90110900  0.85528100  1
  C  3525  1  0.35262400  0.90122000  0.85363700  1
  C  3526  1  0.34138500  0.88702800  0.83827500  1
  C  3529  1  0.35624000  0.87403700  0.82452500  1
  C  3535  1  0.52478600  0.71503000  0.69268200  1
  C  3536  1  0.53024400  0.73710000  0.68772000  1
  C  3538  1  0.53000700  0.77359800  0.68790100  1
  C  3539  1  0.52427500  0.79554700  0.69314200  1
  C  3540  1  0.53535000  0.81211500  0.67993000  1
  C  3541  1  0.56077500  0.81780900  0.68202900  1
  C  3542  1  0.53575100  0.69885500  0.67900700  1
  C  3543  1  0.55975600  0.69041900  0.68324200  1
  C  3547  1  0.39719400  0.65478400  0.79525400  1
  C  3551  1  0.54575500  0.76671800  0.67120600  1
  C  3552  1  0.54600200  0.74430800  0.67117000  1
  C  3553  1  0.57171200  0.83328000  0.66804400  1
  C  3554  1  0.55754900  0.84361100  0.65157300  1
  C  3555  1  0.52119400  0.82227200  0.66345600  1
  C  3556  1  0.57127400  0.67608200  0.66844900  1
  C  3557  1  0.52352100  0.69250600  0.65970900  1
  C  3563  1  0.34449500  0.62068500  0.83815900  1
  C  3564  1  0.35921700  0.63396200  0.82468700  1
  C  3565  1  0.38547300  0.63438800  0.82676900  1
  C  3566  1  0.39651600  0.62125600  0.84303400  1
  C  3569  1  0.53207200  0.83783700  0.64965400  1
  C  3570  1  0.55926400  0.66984400  0.64888100  1
  C  3571  1  0.53506500  0.67823100  0.64497700  1
  C  3573  1  0.56737700  0.85942200  0.63774100  1
  C  3575  1  0.57023500  0.65620500  0.63342400  1
  C  3578  1  0.35541700  0.60754900  0.85448400  1
  C  3579  1  0.38161300  0.60808000  0.85663900  1
  C  3583  1  0.60344500  0.87527300  0.62063800  1
  C  3584  1  0.62963300  0.87316800  0.61983700  1
  C  3589  1  0.63038200  0.63966200  0.61771000  1
  C  3590  1  0.60489600  0.63529000  0.62136000  1
  C  3592  1  0.31906000  0.59297500  0.87207800  1
  C  3595  1  0.59232300  0.89141900  0.60741200  1
  C  3596  1  0.64434500  0.88679800  0.60651100  1
  C  3599  1  0.64475100  0.62640400  0.60387000  1
  C  3600  1  0.59417300  0.61690100  0.61106000  1
  C  3602  1  0.30891500  0.57861700  0.88725800  1
  C  3603  1  0.28454800  0.58243100  0.89525500  1
  C  3605  1  0.27438100  0.97379900  0.01326900  1
  C  3606  1  0.27982600  0.96888200  0.99118800  1
  C  3607  1  0.28527300  0.96000300  0.02940500  1
  C  3608  1  0.30916100  0.96426200  0.03809200  1
  C  3609  1  0.32078500  0.94921700  0.05213300  1
  C  3610  1  0.30899100  0.92938100  0.05779600  1
  C  3611  1  0.28489100  0.92546000  0.04919600  1
  C  3612  1  0.27322400  0.94046400  0.03524900  1
  C  3619  1  0.32037400  0.91345200  0.07062300  1
  C  3621  1  0.70966700  0.97735000  0.51350700  1
  C  3622  1  0.70440800  0.97232700  0.49142100  1
  C  3624  1  0.70499500  0.97239200  0.45493900  1
  C  3625  1  0.68675300  0.95768400  0.46173200  1
  C  3626  1  0.68643500  0.95760400  0.48413600  1
  C  3627  1  0.71083000  0.97765900  0.43301500  1
  C  3628  1  0.69631000  0.96730000  0.41644200  1
  C  3629  1  0.67564700  0.97820000  0.40733300  1
  C  3630  1  0.65956800  0.96749300  0.39276600  1
  C  3631  1  0.66338300  0.94548000  0.38685600  1
  C  3632  1  0.68435400  0.93472600  0.39586900  1
  C  3633  1  0.70054100  0.94544300  0.41043200  1
  C  3634  1  0.69461300  0.96692800  0.52960900  1
  C  3635  1  0.67166800  0.97630400  0.53569200  1
  C  3636  1  0.70088700  0.94631400  0.53812900  1
  C  3637  1  0.68457000  0.93536500  0.55239500  1
  C  3638  1  0.66139200  0.94458800  0.55846200  1
  C  3639  1  0.65540600  0.96532600  0.54986500  1
  C  3648  1  0.64621300  0.93521000  0.37315000  1
  C  3649  1  0.64427200  0.93408300  0.57200600  1
  C  3652  1  0.50515800  0.82382100  0.23118900  1
  C  3653  1  0.48727100  0.82406800  0.21502100  1
  C  3654  1  0.48117000  0.80260500  0.20982200  1
  C  3656  1  0.51032200  0.80220400  0.23643600  1
  C  3657  1  0.52813100  0.79533100  0.25218200  1
  C  3658  1  0.53327900  0.77326400  0.25739600  1
  C  3660  1  0.53277600  0.73677100  0.25744200  1
  C  3661  1  0.55084200  0.74365300  0.27228400  1
  C  3662  1  0.55108400  0.76605700  0.27231800  1
  C  3663  1  0.52707700  0.71481500  0.25216700  1
  C  3664  1  0.50938100  0.70842500  0.23609800  1
  C  3666  1  0.48063300  0.70881900  0.20916600  1
  C  3667  1  0.48649200  0.68720600  0.21386300  1
  C  3668  1  0.50399400  0.68696300  0.23035300  1
  C  3669  1  0.46366600  0.71570300  0.19273200  1
  C  3670  1  0.45802900  0.73777100  0.18790900  1
  C  3672  1  0.45807200  0.77427500  0.18821700  1
  C  3673  1  0.44226300  0.76737800  0.17153900  1
  C  3674  1  0.44215900  0.74497100  0.17140700  1
  C  3675  1  0.46384500  0.79623300  0.19342200  1
  C  3676  1  0.45280700  0.81279900  0.18015600  1
  C  3677  1  0.42739000  0.81850300  0.18216100  1
  C  3678  1  0.41646000  0.83385900  0.16803300  1
  C  3679  1  0.43060700  0.84407500  0.15148700  1
  C  3680  1  0.45608200  0.83831000  0.14968400  1
  C  3681  1  0.46695400  0.82285300  0.16363000  1
  C  3682  1  0.45283100  0.69957100  0.17890500  1
  C  3683  1  0.42894000  0.69087900  0.18308100  1
  C  3684  1  0.41734500  0.67688800  0.16797700  1
  C  3685  1  0.42917300  0.67128100  0.14816200  1
  C  3686  1  0.45328000  0.67987600  0.14432500  1
  C  3687  1  0.46491600  0.69378100  0.15938700  1
  C  3688  1  0.54169500  0.69830600  0.26251700  1
  C  3689  1  0.56237200  0.68930800  0.25158800  1
  C  3690  1  0.57847300  0.67472300  0.26223800  1
  C  3691  1  0.57467400  0.66868300  0.28422300  1
  C  3692  1  0.55371500  0.67761000  0.29501800  1
  C  3693  1  0.53750000  0.69218200  0.28435600  1
  C  3694  1  0.54337600  0.81144800  0.26240700  1
  C  3695  1  0.56672000  0.81679700  0.25330800  1
  C  3696  1  0.53694700  0.82051200  0.28273300  1
  C  3697  1  0.55359500  0.83444200  0.29375900  1
  C  3698  1  0.57726200  0.83960100  0.28491100  1
  C  3699  1  0.58331600  0.83062300  0.26437300  1
  C  3726  1  0.59494200  0.85227100  0.29581600  1
  C  3727  1  0.42071900  0.85967700  0.13741200  1
  C  3730  1  0.60516200  0.87581600  0.32545900  1
  C  3731  1  0.59383600  0.89218300  0.33807900  1
  C  3732  1  0.60817100  0.90584800  0.35155800  1
  C  3733  1  0.63437800  0.90352500  0.35293100  1
  C  3734  1  0.64575700  0.88682400  0.34065400  1
  C  3737  1  0.63128600  0.87313000  0.32723200  1
  C  3743  1  0.38425100  0.87548800  0.12079300  1
  C  3744  1  0.39491800  0.89070600  0.10624500  1
  C  3745  1  0.37984100  0.90424100  0.09327500  1
  C  3746  1  0.35362100  0.90290500  0.09416200  1
  C  3747  1  0.34276400  0.88802300  0.10904500  1
  C  3750  1  0.35800600  0.87438800  0.12188100  1
  C  3756  1  0.60685000  0.90491000  0.59398800  1
  C  3757  1  0.63311500  0.90296700  0.59338000  1
  C  3760  1  0.41781800  0.65850800  0.13217600  1
  C  3761  1  0.59185900  0.65494400  0.29442100  1
  C  3769  1  0.64435800  0.61965800  0.33713200  1
  C  3770  1  0.62997000  0.63320800  0.32358300  1
  C  3771  1  0.60376900  0.63451400  0.32596200  1
  C  3772  1  0.59245500  0.62209600  0.34261400  1
  C  3774  1  0.34327300  0.62307500  0.10916000  1
  C  3775  1  0.35834100  0.63598100  0.12276000  1
  C  3776  1  0.38456200  0.63505000  0.12149900  1
  C  3777  1  0.39542600  0.62018800  0.10662700  1
  C  3779  1  0.63430000  0.60798400  0.59367900  1
  C  3780  1  0.60879500  0.60351000  0.59748200  1
  C  3782  1  0.63309500  0.60689600  0.35344300  1
  C  3784  1  0.60697900  0.60859400  0.35618700  1
  C  3786  1  0.35394700  0.60855000  0.09394800  1
  C  3787  1  0.38019100  0.60741700  0.09292400  1
  C  3793  1  0.31748300  0.59210000  0.07794900  1
  C  3801  1  0.68480100  0.57687700  0.55085100  1
  C  3802  1  0.68474200  0.57509100  0.39464400  1
  C  3805  1  0.64725300  0.57614300  0.57427700  1
  C  3806  1  0.64342800  0.57707500  0.37674700  1
  C  3808  1  0.30761500  0.57802600  0.06234100  1
  C  3809  1  0.28212900  0.57980400  0.05655300  1
  C  3810  1  0.23348200  0.01299900  0.90528900  1
  C  3811  1  0.25130300  0.99680600  0.90498400  1
  C  3812  1  0.25686800  0.99103900  0.92641900  1
  C  3814  1  0.22784800  0.01773700  0.92692400  1
  C  3815  1  0.21002500  0.03342500  0.93383000  1
  C  3816  1  0.20477400  0.03850100  0.95589700  1
  C  3818  1  0.18712700  0.05322100  0.98551600  1
  C  3819  1  0.18683500  0.05325700  0.96311000  1
  C  3820  1  0.19497600  0.04382200  0.91769200  1
  C  3821  1  0.17208200  0.03436700  0.91150300  1
  C  3822  1  0.20121700  0.06446700  0.90923100  1
  C  3823  1  0.18489200  0.07538800  0.89493500  1
  C  3824  1  0.16175800  0.06609600  0.88876800  1
  C  3825  1  0.15582000  0.04531600  0.89729100  1
  C  3834  1  0.14463600  0.07657300  0.87519100  1
  C  3836  1  0.98319810  0.18741400  0.71643100  1
  C  3837  1  0.00107800  0.18720500  0.73260400  1
  C  3838  1  0.00703400  0.20868000  0.73787600  1
  C  3840  1  0.97791310  0.20902200  0.71123900  1
  C  3842  1  0.97905710  0.30276600  0.71135600  1
  C  3844  1  0.00778500  0.30243100  0.73828800  1
  C  3845  1  0.00198000  0.32403600  0.73350400  1
  C  3846  1  0.98448910  0.32424200  0.71700700  1
  C  3847  1  0.02476900  0.29558500  0.75472200  1
  C  3848  1  0.03024900  0.27353100  0.75970700  1
  C  3850  1  0.03006300  0.23704100  0.75952600  1
  C  3851  1  0.04585800  0.24394500  0.77621100  1
  C  3852  1  0.04606000  0.26635300  0.77626200  1
  C  3853  1  0.02432300  0.21508900  0.75428700  1
  C  3854  1  0.03543000  0.19853200  0.76749300  1
  C  3855  1  0.06084000  0.19284900  0.76537400  1
  C  3856  1  0.07180700  0.17737400  0.77934300  1
  C  3857  1  0.05768400  0.16703300  0.79581200  1
  C  3858  1  0.03222000  0.17279900  0.79775400  1
  C  3859  1  0.02131500  0.18836900  0.78396900  1
  C  3860  1  0.03573600  0.31176300  0.76840300  1
  C  3861  1  0.05968300  0.32028200  0.76412600  1
  C  3862  1  0.07120400  0.33465500  0.77891000  1
  C  3863  1  0.05925100  0.34081100  0.79850300  1
  C  3864  1  0.03510200  0.33233600  0.80244300  1
  C  3865  1  0.02354100  0.31804600  0.78771000  1
  C  3884  1  0.07025100  0.35445400  0.81395100  1
  C  3885  1  0.06754100  0.15122000  0.80962700  1
  C  3889  1  0.20546000  0.47189300  0.95532700  1
  C  3890  1  0.18730600  0.45716100  0.96223300  1
  C  3891  1  0.18705000  0.45720900  0.98463700  1
  C  3892  1  0.21122800  0.47704600  0.93336600  1
  C  3893  1  0.22902700  0.49299300  0.92693300  1
  C  3895  1  0.25793900  0.51977700  0.92723500  1
  C  3896  1  0.25229400  0.51480900  0.90563100  1
  C  3897  1  0.23468500  0.49842100  0.90544600  1
  C  3898  1  0.27499400  0.53617600  0.93404700  1
  C  3899  1  0.28041100  0.54127200  0.95608600  1
  C  3901  1  0.29582300  0.55798600  0.98563000  1
  C  3902  1  0.29607600  0.55793900  0.96322000  1
  C  3903  1  0.28610400  0.54966100  0.91778700  1
  C  3904  1  0.31040500  0.54565600  0.90992600  1
  C  3905  1  0.32161400  0.55990300  0.89484800  1
  C  3906  1  0.27334900  0.56827100  0.91030900  1
  C  3907  1  0.19673000  0.46656900  0.91686200  1
  C  3908  1  0.17627000  0.47752700  0.90748600  1
  C  3909  1  0.16037800  0.46684500  0.89275400  1
  C  3910  1  0.16416400  0.44479500  0.88695500  1
  C  3911  1  0.18485400  0.43394600  0.89632400  1
  C  3912  1  0.20088900  0.44465200  0.91102100  1
  C  3924  1  0.14729700  0.43467200  0.87287100  1
  C  3926  1  0.13429200  0.40277500  0.85361000  1
  C  3927  1  0.14474800  0.38436200  0.84345600  1
  C  3928  1  0.13036900  0.37108400  0.82960700  1
  C  3929  1  0.10489100  0.37546000  0.82591000  1
  C  3930  1  0.09416000  0.39383500  0.83618200  1
  C  3933  1  0.10879000  0.40724100  0.84977300  1
  C  3939  1  0.10365200  0.13541500  0.82672100  1
  C  3940  1  0.09256700  0.11923900  0.83992300  1
  C  3941  1  0.10713200  0.10575600  0.85333700  1
  C  3942  1  0.13339800  0.10773000  0.85393600  1
  C  3943  1  0.14459100  0.12393600  0.84083600  1
  C  3946  1  0.12984200  0.13755800  0.82752300  1
  C  3952  1  0.96011710  0.21584800  0.69546000  1
  C  3953  1  0.95494910  0.23790000  0.69024200  1
  C  3954  1  0.95556610  0.27437800  0.69011000  1
  C  3955  1  0.93739710  0.26750500  0.67535600  1
  C  3956  1  0.93705610  0.24510200  0.67540200  1
  C  3957  1  0.96137210  0.29632800  0.69530500  1
  C  3958  1  0.94692010  0.31281800  0.68479800  1
  C  3959  1  0.92608210  0.32180900  0.69548600  1
  C  3960  1  0.91011310  0.33632900  0.68461400  1
  C  3961  1  0.94494710  0.19969200  0.68521300  1
  C  3962  1  0.92211410  0.19357600  0.69479200  1
  C  3963  1  0.90569410  0.17942000  0.68394000  1
  C  3966  1  0.91422610  0.34227800  0.66264500  1
  C  3967  1  0.93533110  0.33333333  0.65209000  1
  C  3968  1  0.95141110  0.31883600  0.66297700  1
  C  3969  1  0.95098310  0.19116700  0.66456300  1
  C  3970  1  0.93448910  0.17694600  0.65373000  1
  C  3971  1  0.91139810  0.17087200  0.66313500  1
  C  3976  1  0.89712700  0.35587000  0.65219200  1
  C  3977  1  0.89399100  0.15755700  0.65264700  1
  C  3985  1  0.85911100  0.37669800  0.62278200  1
  C  3986  1  0.88535700  0.37624500  0.62067700  1
  C  3988  1  0.88233700  0.13627600  0.62168200  1
  C  3989  1  0.85601100  0.13665300  0.62294200  1
  C  3990  1  0.84438100  0.38998900  0.60932100  1
  C  3991  1  0.89638500  0.38936200  0.60440700  1
  C  3994  1  0.89333400  0.12273800  0.60587900  1
  C  3995  1  0.84112200  0.12367500  0.60917300  1
  C  3998  1  0.20534000  0.03852700  0.99238500  1
  C  3999  1  0.21115400  0.03330800  0.01433700  1
  C  4000  1  0.22890300  0.01727300  0.02066900  1
  C  4002  1  0.25757200  0.99031000  0.02019600  1
  C  4003  1  0.25190700  0.99507600  0.04182600  1
  C  4004  1  0.23444900  0.01157500  0.04211600  1
  C  4005  1  0.19663300  0.04368800  0.03087900  1
  C  4006  1  0.17600900  0.03276200  0.04001400  1
  C  4007  1  0.15992800  0.04346300  0.05454900  1
  C  4008  1  0.16368400  0.06550400  0.06041400  1
  C  4009  1  0.18459700  0.07629400  0.05136400  1
  C  4010  1  0.20078600  0.06558300  0.03683200  1
  C  4018  1  0.14648300  0.07576000  0.07407400  1
  C  4020  1  0.73323300  0.99770000  0.54209000  1
  C  4021  1  0.75107600  0.01389200  0.54242300  1
  C  4022  1  0.75656600  0.01971800  0.52099900  1
  C  4024  1  0.72754500  0.99300500  0.52044400  1
  C  4025  1  0.72863700  0.99365400  0.42670700  1
  C  4027  1  0.75738500  0.02057300  0.42722800  1
  C  4028  1  0.75168300  0.01583400  0.40558800  1
  C  4029  1  0.73420000  0.99933800  0.40526700  1
  C  4030  1  0.77425000  0.03705500  0.43418500  1
  C  4031  1  0.77960400  0.04199800  0.45628700  1
  C  4033  1  0.77933400  0.04171000  0.49279900  1
  C  4034  1  0.79501600  0.05849500  0.48597800  1
  C  4035  1  0.79528200  0.05860100  0.46356700  1
  C  4036  1  0.77368700  0.03631800  0.51473600  1
  C  4037  1  0.78527600  0.04905700  0.53145100  1
  C  4038  1  0.81091700  0.04684400  0.53634500  1
  C  4039  1  0.82228300  0.05985700  0.55241300  1
  C  4040  1  0.80827200  0.07533200  0.56420800  1
  C  4041  1  0.78262200  0.07748100  0.55930000  1
  C  4042  1  0.77136200  0.06473600  0.54301600  1
  C  4043  1  0.78517200  0.05086700  0.41808200  1
  C  4044  1  0.80900200  0.04654600  0.40935900  1
  C  4045  1  0.82065100  0.06157000  0.39531900  1
  C  4046  1  0.80895400  0.08145900  0.38970000  1
  C  4047  1  0.78490800  0.08543900  0.39833100  1
  C  4048  1  0.77322000  0.07046100  0.41228400  1
  C  4067  1  0.82035900  0.09736400  0.37685700  1
  C  4068  1  0.81849600  0.08728700  0.58117200  1
  C  4071  1  0.00523800  0.18678500  0.21629300  1
  C  4072  1  0.98736410  0.18653700  0.23244100  1
  C  4073  1  0.98134810  0.20799800  0.23768600  1
  C  4075  1  0.01046200  0.20840100  0.21107900  1
  C  4076  1  0.02828800  0.21527300  0.19536900  1
  C  4077  1  0.03343700  0.23735500  0.19019400  1
  C  4079  1  0.03294700  0.27385900  0.19017700  1
  C  4080  1  0.05099600  0.26699500  0.17535500  1
  C  4081  1  0.05124600  0.24458900  0.17531700  1
  C  4082  1  0.02726500  0.29581400  0.19544700  1
  C  4083  1  0.00957900  0.30219900  0.21149100  1
  C  4085  1  0.98083610  0.30180100  0.23838500  1
  C  4086  1  0.98672310  0.32341500  0.23369800  1
  C  4087  1  0.00419500  0.32365900  0.21721600  1
  C  4088  1  0.96384610  0.29492200  0.25478300  1
  C  4089  1  0.95829310  0.27283900  0.25963800  1
  C  4091  1  0.95837310  0.23632400  0.25933800  1
  C  4092  1  0.94258710  0.24320500  0.27600200  1
  C  4093  1  0.94245710  0.26561300  0.27612800  1
  C  4094  1  0.96408810  0.21436600  0.25410300  1
  C  4095  1  0.95301510  0.19779000  0.26733700  1
  C  4096  1  0.92757410  0.19212700  0.26530000  1
  C  4097  1  0.91660010  0.17679100  0.27941800  1
  C  4098  1  0.93071810  0.16654900  0.29598300  1
  C  4099  1  0.95622310  0.17226000  0.29780700  1
  C  4100  1  0.96714410  0.18769000  0.28386700  1
  C  4101  1  0.95302510  0.31105100  0.26861400  1
  C  4102  1  0.92913110  0.31974300  0.26442300  1
  C  4103  1  0.91755710  0.33373200  0.27951800  1
  C  4104  1  0.92939010  0.33933500  0.29935900  1
  C  4105  1  0.95349810  0.33074100  0.30321200  1
  C  4106  1  0.96510810  0.31683300  0.28816600  1
  C  4107  1  0.04185500  0.31233400  0.18507900  1
  C  4108  1  0.06256300  0.32137000  0.19599000  1
  C  4109  1  0.07864500  0.33594500  0.18531500  1
  C  4110  1  0.07480000  0.34194200  0.16331500  1
  C  4111  1  0.05379300  0.33299700  0.15254400  1
  C  4112  1  0.03759800  0.31842800  0.16323200  1
  C  4113  1  0.04350200  0.19916000  0.18512700  1
  C  4114  1  0.06689200  0.19384300  0.19419000  1
  C  4115  1  0.03706200  0.19012900  0.16476800  1
  C  4116  1  0.05370500  0.17625600  0.15370400  1
  C  4117  1  0.07740800  0.17112700  0.16252700  1
  C  4118  1  0.08349100  0.18008500  0.18308500  1
  C  4145  1  0.91806910  0.35211600  0.31534400  1
  C  4146  1  0.09197000  0.35567300  0.15309000  1
  C  4147  1  0.09511100  0.15854300  0.15158200  1
  C  4148  1  0.92078510  0.15096500  0.31005300  1
  C  4153  1  0.73349900  0.51237800  0.40509600  1
  C  4154  1  0.75138100  0.49622700  0.40494800  1
  C  4155  1  0.75730100  0.49098000  0.42644300  1
  C  4157  1  0.72818400  0.51759600  0.42668300  1
  C  4158  1  0.71033000  0.53331400  0.43345400  1
  C  4159  1  0.70506600  0.53855900  0.45548500  1
  C  4161  1  0.70550900  0.53879000  0.49197600  1
  C  4162  1  0.68732500  0.55345200  0.48498700  1
  C  4163  1  0.68711500  0.55336700  0.46258100  1
  C  4164  1  0.71126000  0.53369900  0.51396600  1
  C  4165  1  0.72902300  0.51773300  0.52043200  1
  C  4167  1  0.75786800  0.49091900  0.52018800  1
  C  4168  1  0.75225500  0.49591800  0.54178100  1
  C  4169  1  0.73468600  0.51232200  0.54192800  1
  C  4170  1  0.77488300  0.47450200  0.51341500  1
  C  4171  1  0.78033000  0.46938000  0.49139600  1
  C  4173  1  0.78019300  0.46938500  0.45489700  1
  C  4174  1  0.79583400  0.45265500  0.46192300  1
  C  4175  1  0.79599600  0.45270400  0.48433400  1
  C  4176  1  0.77453300  0.47455000  0.43290100  1
  C  4177  1  0.78561600  0.46125300  0.41640200  1
  C  4178  1  0.81109100  0.46317000  0.41085300  1
  C  4179  1  0.82204400  0.44903900  0.39553900  1
  C  4180  1  0.80787300  0.43256700  0.38520400  1
  C  4181  1  0.78234200  0.43084300  0.39082800  1
  C  4182  1  0.77144300  0.44480000  0.40623000  1
  C  4183  1  0.78598100  0.46104300  0.52970800  1
  C  4184  1  0.81030300  0.46504400  0.53758000  1
  C  4185  1  0.82150200  0.45080600  0.55268100  1
  C  4186  1  0.80876900  0.43210800  0.56027300  1
  C  4187  1  0.78438000  0.42830300  0.55226900  1
  C  4188  1  0.77318600  0.44245500  0.53719600  1
  C  4189  1  0.69674800  0.54419900  0.53043100  1
  C  4190  1  0.67632900  0.53323000  0.53984900  1
  C  4191  1  0.66043600  0.54392200  0.55453700  1
  C  4192  1  0.66415500  0.56601000  0.56025400  1
  C  4193  1  0.70082600  0.56616100  0.53618500  1
  C  4194  1  0.69516300  0.54350800  0.41726400  1
  C  4195  1  0.67192500  0.53428700  0.41171900  1
  C  4196  1  0.70144600  0.56400600  0.40847400  1
  C  4197  1  0.66118100  0.56611100  0.38927900  1
  C  4198  1  0.65527600  0.54540600  0.39798100  1
  C  4221  1  0.81890500  0.41776700  0.57547300  1
  C  4222  1  0.81777500  0.41847900  0.36963100  1
  C  4226  1  0.23337100  0.49819900  0.04226900  1
  C  4227  1  0.25124000  0.51437600  0.04245500  1
  C  4228  1  0.25718800  0.51961100  0.02097200  1
  C  4230  1  0.22807800  0.49296800  0.02067100  1
  C  4231  1  0.21021600  0.47724200  0.01386400  1
  C  4232  1  0.20497900  0.47203100  0.99181100  1
  C  4233  1  0.28015600  0.54123600  0.99257800  1
  C  4234  1  0.27443500  0.53603900  0.01454300  1
  C  4235  1  0.28545800  0.54935100  0.03106900  1
  C  4236  1  0.31088600  0.54737700  0.03678400  1
  C  4237  1  0.32179500  0.56151000  0.05214100  1
  C  4238  1  0.27127200  0.56584400  0.04110500  1
  C  4239  1  0.19504600  0.46700700  0.03001200  1
  C  4240  1  0.17174900  0.47613600  0.03544000  1
  C  4241  1  0.20141300  0.44658000  0.03891900  1
  C  4242  1  0.18474800  0.43548300  0.05276100  1
  C  4243  1  0.16111900  0.44435600  0.05798100  1
  C  4244  1  0.15512300  0.46498700  0.04915400  1
  C  4257  1  0.14338700  0.43336400  0.07050400  1
  C  4259  1  0.10537000  0.13497100  0.12195300  1
  C  4260  1  0.09408300  0.11858800  0.10928400  1
  C  4261  1  0.10843500  0.10498000  0.09579700  1
  C  4262  1  0.13464100  0.10734900  0.09446100  1
  C  4263  1  0.14598500  0.12405200  0.10680400  1
  C  4266  1  0.13149500  0.13769400  0.12023100  1
  C  4272  1  0.85528400  0.40311400  0.59299200  1
  C  4273  1  0.88147100  0.40255700  0.59081500  1
  C  4277  1  0.88429300  0.13523200  0.32668900  1
  C  4278  1  0.89493400  0.11999800  0.34124500  1
  C  4279  1  0.87983700  0.10649900  0.35422300  1
  C  4280  1  0.85362100  0.10789400  0.35335600  1
  C  4281  1  0.84278800  0.12278400  0.33845500  1
  C  4284  1  0.85804900  0.13637900  0.32560500  1
  C  4290  1  0.87859100  0.10954500  0.59223700  1
  C  4291  1  0.85233700  0.10946600  0.59385100  1
  C  4295  1  0.13312000  0.40363700  0.09396300  1
  C  4296  1  0.14440100  0.39096000  0.11034100  1
  C  4297  1  0.13004000  0.37742100  0.12391300  1
  C  4298  1  0.10383700  0.37605900  0.12151000  1
  C  4299  1  0.09250200  0.38840200  0.10480000  1
  C  4302  1  0.10700000  0.40188000  0.09119400  1
  C  4308  1  0.85421500  0.40203500  0.35363900  1
  C  4309  1  0.84351400  0.38751600  0.33840100  1
  C  4310  1  0.85855200  0.37460200  0.32481700  1
  C  4311  1  0.88477800  0.37549000  0.32611900  1
  C  4312  1  0.89566800  0.39035600  0.34100900  1
  C  4315  1  0.88046700  0.40314300  0.35468900  1
  N  1  1  0.01606300  0.97855100  0.97302300  1
  N  22  1  0.23801400  0.78957600  0.72302400  1
  N  26  1  0.21077600  0.75456200  0.74882900  1
  N  32  1  0.23894100  0.72018900  0.72296600  1
  N  77  1  0.14264600  0.86177900  0.81370900  1
  N  78  1  0.08523600  0.91377500  0.86767000  1
  N  81  1  0.26638200  0.75524800  0.69730600  1
  N  94  1  0.14529000  0.64714400  0.81460000  1
  N  118  1  0.33593700  0.86157300  0.63352000  1
  N  120  1  0.33760200  0.64837200  0.63492700  1
  N  138  1  0.08770800  0.59469900  0.86804800  1
  N  167  1  0.46023300  0.98066300  0.47333100  1
  N  199  1  0.24042400  0.79022100  0.22334900  1
  N  203  1  0.26790400  0.75511700  0.24902800  1
  N  209  1  0.23975500  0.72080200  0.22313800  1
  N  215  1  0.21214900  0.75593000  0.19754800  1
  N  285  1  0.33557900  0.86321600  0.31321900  1
  N  286  1  0.39396800  0.91572400  0.36584200  1
  N  298  1  0.14240200  0.86199800  0.13362700  1
  N  299  1  0.08581700  0.91643900  0.08143100  1
  N  303  1  0.39280000  0.91514000  0.58048200  1
  N  309  1  0.33445200  0.64749000  0.31386600  1
  N  311  1  0.14267100  0.64772600  0.13508900  1
  N  340  1  0.39409100  0.59604200  0.58069000  1
  N  342  1  0.39304600  0.59457700  0.36591400  1
  N  344  1  0.08612100  0.59576200  0.08041500  1
  N  357  1  0.98766100  0.00427300  0.93886200  1
  N  361  1  0.96057400  0.03020900  0.97403300  1
  N  383  1  0.73802600  0.22103900  0.72438400  1
  N  385  1  0.71072600  0.25603700  0.69854400  1
  N  387  1  0.73891900  0.29041100  0.72439800  1
  N  393  1  0.76638700  0.25537000  0.75011900  1
  N  432  1  0.96070800  0.48030200  0.97365000  1
  N  438  1  0.98884400  0.50609400  0.93927500  1
  N  444  1  0.01658200  0.53171200  0.97426900  1
  N  481  1  0.89406900  0.41472800  0.86661500  1
  N  482  1  0.83757600  0.36236500  0.81236400  1
  N  494  1  0.83611000  0.14911000  0.81385600  1
  N  495  1  0.89310600  0.09557500  0.86683600  1
  N  528  1  0.64242300  0.14886700  0.63380100  1
  N  531  1  0.64516800  0.36346700  0.63282900  1
  N  545  1  0.98871900  0.00427500  0.00824900  1
  N  567  1  0.48735300  0.00648600  0.50852800  1
  N  570  1  0.48849500  0.00662500  0.43915300  1
  N  576  1  0.51577000  0.03231800  0.47441000  1
  N  618  1  0.74060300  0.22038200  0.22417000  1
  N  622  1  0.76808100  0.25549400  0.19856500  1
  N  628  1  0.73995600  0.28982100  0.22444000  1
  N  634  1  0.71241300  0.25468600  0.25001100  1
  N  700  1  0.48829200  0.50449200  0.43874900  1
  N  704  1  0.46078100  0.53035000  0.47369500  1
  N  710  1  0.48880200  0.50460600  0.50811900  1
  N  716  1  0.51657100  0.47892100  0.47316500  1
  N  773  1  0.98819300  0.50608400  0.00863500  1
  N  814  1  0.83575700  0.14751100  0.13421400  1
  N  815  1  0.89426200  0.09519100  0.08154800  1
  N  820  1  0.58756800  0.41597400  0.57943800  1
  N  832  1  0.64246900  0.14869600  0.31384800  1
  N  833  1  0.58579800  0.09437300  0.36608600  1
  N  838  1  0.58491300  0.09692000  0.57982400  1
  N  850  1  0.89305100  0.41595600  0.08147600  1
  N  851  1  0.83453500  0.36309600  0.13363200  1
  N  863  1  0.58641300  0.41484100  0.36716200  1
  N  864  1  0.64285500  0.36282200  0.31250400  1
  N  865  1  0.82977400  0.97855100  0.97302300  1
  N  886  1  0.05172500  0.78957600  0.72302400  1
  N  890  1  0.02448700  0.75456200  0.74882900  1
  N  896  1  0.05265200  0.72018900  0.72296600  1
  N  941  1  0.95635650  0.86177900  0.81370900  1
  N  942  1  0.89894700  0.91377500  0.86767000  1
  N  945  1  0.08009300  0.75524800  0.69730600  1
  N  958  1  0.95900050  0.64714400  0.81460000  1
  N  982  1  0.14964800  0.86157300  0.63352000  1
  N  984  1  0.15131300  0.64837200  0.63492700  1
  N  1002  1  0.90141850  0.59469900  0.86804800  1
  N  1031  1  0.27394400  0.98066300  0.47333100  1
  N  1063  1  0.05413500  0.79022100  0.22334900  1
  N  1067  1  0.08161500  0.75511700  0.24902800  1
  N  1073  1  0.05346600  0.72080200  0.22313800  1
  N  1079  1  0.02586000  0.75593000  0.19754800  1
  N  1149  1  0.14929000  0.86321600  0.31321900  1
  N  1150  1  0.20767900  0.91572400  0.36584200  1
  N  1162  1  0.95611250  0.86199800  0.13362700  1
  N  1163  1  0.89952800  0.91643900  0.08143100  1
  N  1167  1  0.20651100  0.91514000  0.58048200  1
  N  1173  1  0.14816300  0.64749000  0.31386600  1
  N  1175  1  0.95638150  0.64772600  0.13508900  1
  N  1204  1  0.20780200  0.59604200  0.58069000  1
  N  1206  1  0.20675700  0.59457700  0.36591400  1
  N  1208  1  0.89983200  0.59576200  0.08041500  1
  N  1221  1  0.80137200  0.00427300  0.93886200  1
  N  1225  1  0.77428500  0.03020900  0.97403300  1
  N  1247  1  0.55173700  0.22103900  0.72438400  1
  N  1249  1  0.52443700  0.25603700  0.69854400  1
  N  1251  1  0.55263000  0.29041100  0.72439800  1
  N  1257  1  0.58009800  0.25537000  0.75011900  1
  N  1296  1  0.77441900  0.48030200  0.97365000  1
  N  1302  1  0.80255500  0.50609400  0.93927500  1
  N  1308  1  0.83029300  0.53171200  0.97426900  1
  N  1345  1  0.70778000  0.41472800  0.86661500  1
  N  1346  1  0.65128700  0.36236500  0.81236400  1
  N  1358  1  0.64982100  0.14911000  0.81385600  1
  N  1359  1  0.70681700  0.09557500  0.86683600  1
  N  1392  1  0.45613400  0.14886700  0.63380100  1
  N  1395  1  0.45887900  0.36346700  0.63282900  1
  N  1409  1  0.80243000  0.00427500  0.00824900  1
  N  1431  1  0.30106400  0.00648600  0.50852800  1
  N  1434  1  0.30220600  0.00662500  0.43915300  1
  N  1440  1  0.32948100  0.03231800  0.47441000  1
  N  1482  1  0.55431400  0.22038200  0.22417000  1
  N  1486  1  0.58179200  0.25549400  0.19856500  1
  N  1492  1  0.55366700  0.28982100  0.22444000  1
  N  1498  1  0.52612400  0.25468600  0.25001100  1
  N  1564  1  0.30200300  0.50449200  0.43874900  1
  N  1568  1  0.27449200  0.53035000  0.47369500  1
  N  1574  1  0.30251300  0.50460600  0.50811900  1
  N  1580  1  0.33028200  0.47892100  0.47316500  1
  N  1637  1  0.80190400  0.50608400  0.00863500  1
  N  1678  1  0.64946800  0.14751100  0.13421400  1
  N  1679  1  0.70797300  0.09519100  0.08154800  1
  N  1684  1  0.40127900  0.41597400  0.57943800  1
  N  1696  1  0.45618000  0.14869600  0.31384800  1
  N  1697  1  0.39950900  0.09437300  0.36608600  1
  N  1702  1  0.39862400  0.09692000  0.57982400  1
  N  1714  1  0.70676200  0.41595600  0.08147600  1
  N  1715  1  0.64824600  0.36309600  0.13363200  1
  N  1727  1  0.40012400  0.41484100  0.36716200  1
  N  1728  1  0.45656600  0.36282200  0.31250400  1
  N  1729  1  0.64348400  0.97855100  0.97302300  1
  N  1750  1  0.86543500  0.78957600  0.72302400  1
  N  1754  1  0.83819700  0.75456200  0.74882900  1
  N  1760  1  0.86636200  0.72018900  0.72296600  1
  N  1805  1  0.77006700  0.86177900  0.81370900  1
  N  1806  1  0.71265700  0.91377500  0.86767000  1
  N  1809  1  0.89380300  0.75524800  0.69730600  1
  N  1822  1  0.77271100  0.64714400  0.81460000  1
  N  1846  1  0.96335810  0.86157300  0.63352000  1
  N  1848  1  0.96502310  0.64837200  0.63492700  1
  N  1866  1  0.71512900  0.59469900  0.86804800  1
  N  1895  1  0.08765400  0.98066300  0.47333100  1
  N  1927  1  0.86784500  0.79022100  0.22334900  1
  N  1931  1  0.89532500  0.75511700  0.24902800  1
  N  1937  1  0.86717600  0.72080200  0.22313800  1
  N  1943  1  0.83957000  0.75593000  0.19754800  1
  N  2013  1  0.96300010  0.86321600  0.31321900  1
  N  2014  1  0.02138900  0.91572400  0.36584200  1
  N  2026  1  0.76982300  0.86199800  0.13362700  1
  N  2027  1  0.71323800  0.91643900  0.08143100  1
  N  2031  1  0.02022100  0.91514000  0.58048200  1
  N  2037  1  0.96187310  0.64749000  0.31386600  1
  N  2039  1  0.77009200  0.64772600  0.13508900  1
  N  2068  1  0.02151200  0.59604200  0.58069000  1
  N  2070  1  0.02046700  0.59457700  0.36591400  1
  N  2072  1  0.71354200  0.59576200  0.08041500  1
  N  2085  1  0.61508200  0.00427300  0.93886200  1
  N  2089  1  0.58799500  0.03020900  0.97403300  1
  N  2111  1  0.36544700  0.22103900  0.72438400  1
  N  2113  1  0.33814700  0.25603700  0.69854400  1
  N  2115  1  0.36634000  0.29041100  0.72439800  1
  N  2121  1  0.39380800  0.25537000  0.75011900  1
  N  2160  1  0.58812900  0.48030200  0.97365000  1
  N  2166  1  0.61626500  0.50609400  0.93927500  1
  N  2172  1  0.64400300  0.53171200  0.97426900  1
  N  2209  1  0.52149000  0.41472800  0.86661500  1
  N  2210  1  0.46499700  0.36236500  0.81236400  1
  N  2222  1  0.46353100  0.14911000  0.81385600  1
  N  2223  1  0.52052700  0.09557500  0.86683600  1
  N  2256  1  0.26984400  0.14886700  0.63380100  1
  N  2259  1  0.27258900  0.36346700  0.63282900  1
  N  2273  1  0.61614000  0.00427500  0.00824900  1
  N  2295  1  0.11477400  0.00648600  0.50852800  1
  N  2298  1  0.11591600  0.00662500  0.43915300  1
  N  2304  1  0.14319100  0.03231800  0.47441000  1
  N  2346  1  0.36802400  0.22038200  0.22417000  1
  N  2350  1  0.39550200  0.25549400  0.19856500  1
  N  2356  1  0.36737700  0.28982100  0.22444000  1
  N  2362  1  0.33983400  0.25468600  0.25001100  1
  N  2428  1  0.11571300  0.50449200  0.43874900  1
  N  2432  1  0.08820200  0.53035000  0.47369500  1
  N  2438  1  0.11622300  0.50460600  0.50811900  1
  N  2444  1  0.14399200  0.47892100  0.47316500  1
  N  2501  1  0.61561400  0.50608400  0.00863500  1
  N  2542  1  0.46317800  0.14751100  0.13421400  1
  N  2543  1  0.52168300  0.09519100  0.08154800  1
  N  2548  1  0.21498900  0.41597400  0.57943800  1
  N  2560  1  0.26989000  0.14869600  0.31384800  1
  N  2561  1  0.21321900  0.09437300  0.36608600  1
  N  2566  1  0.21233400  0.09692000  0.57982400  1
  N  2578  1  0.52047200  0.41595600  0.08147600  1
  N  2579  1  0.46195600  0.36309600  0.13363200  1
  N  2591  1  0.21383400  0.41484100  0.36716200  1
  N  2592  1  0.27027600  0.36282200  0.31250400  1
  N  2593  1  0.45719500  0.97855100  0.97302300  1
  N  2614  1  0.67914600  0.78957600  0.72302400  1
  N  2618  1  0.65190800  0.75456200  0.74882900  1
  N  2624  1  0.68007300  0.72018900  0.72296600  1
  N  2669  1  0.58377800  0.86177900  0.81370900  1
  N  2670  1  0.52636800  0.91377500  0.86767000  1
  N  2673  1  0.70751400  0.75524800  0.69730600  1
  N  2686  1  0.58642200  0.64714400  0.81460000  1
  N  2710  1  0.77706900  0.86157300  0.63352000  1
  N  2712  1  0.77873400  0.64837200  0.63492700  1
  N  2730  1  0.52884000  0.59469900  0.86804800  1
  N  2759  1  0.90136460  0.98066300  0.47333100  1
  N  2791  1  0.68155600  0.79022100  0.22334900  1
  N  2795  1  0.70903600  0.75511700  0.24902800  1
  N  2801  1  0.68088700  0.72080200  0.22313800  1
  N  2807  1  0.65328100  0.75593000  0.19754800  1
  N  2877  1  0.77671100  0.86321600  0.31321900  1
  N  2878  1  0.83510000  0.91572400  0.36584200  1
  N  2890  1  0.58353400  0.86199800  0.13362700  1
  N  2891  1  0.52694900  0.91643900  0.08143100  1
  N  2895  1  0.83393200  0.91514000  0.58048200  1
  N  2901  1  0.77558400  0.64749000  0.31386600  1
  N  2903  1  0.58380300  0.64772600  0.13508900  1
  N  2932  1  0.83522300  0.59604200  0.58069000  1
  N  2934  1  0.83417800  0.59457700  0.36591400  1
  N  2936  1  0.52725300  0.59576200  0.08041500  1
  N  2949  1  0.42879300  0.00427300  0.93886200  1
  N  2953  1  0.40170600  0.03020900  0.97403300  1
  N  2975  1  0.17915800  0.22103900  0.72438400  1
  N  2977  1  0.15185800  0.25603700  0.69854400  1
  N  2979  1  0.18005100  0.29041100  0.72439800  1
  N  2985  1  0.20751900  0.25537000  0.75011900  1
  N  3024  1  0.40184000  0.48030200  0.97365000  1
  N  3030  1  0.42997600  0.50609400  0.93927500  1
  N  3036  1  0.45771400  0.53171200  0.97426900  1
  N  3073  1  0.33520100  0.41472800  0.86661500  1
  N  3074  1  0.27870800  0.36236500  0.81236400  1
  N  3086  1  0.27724200  0.14911000  0.81385600  1
  N  3087  1  0.33423800  0.09557500  0.86683600  1
  N  3120  1  0.08355500  0.14886700  0.63380100  1
  N  3123  1  0.08630000  0.36346700  0.63282900  1
  N  3137  1  0.42985100  0.00427500  0.00824900  1
  N  3159  1  0.92848460  0.00648600  0.50852800  1
  N  3162  1  0.92962660  0.00662500  0.43915300  1
  N  3168  1  0.95690160  0.03231800  0.47441000  1
  N  3210  1  0.18173500  0.22038200  0.22417000  1
  N  3214  1  0.20921300  0.25549400  0.19856500  1
  N  3220  1  0.18108800  0.28982100  0.22444000  1
  N  3226  1  0.15354500  0.25468600  0.25001100  1
  N  3292  1  0.92942360  0.50449200  0.43874900  1
  N  3296  1  0.90191260  0.53035000  0.47369500  1
  N  3302  1  0.92993360  0.50460600  0.50811900  1
  N  3308  1  0.95770260  0.47892100  0.47316500  1
  N  3365  1  0.42932500  0.50608400  0.00863500  1
  N  3406  1  0.27688900  0.14751100  0.13421400  1
  N  3407  1  0.33539400  0.09519100  0.08154800  1
  N  3412  1  0.02870000  0.41597400  0.57943800  1
  N  3424  1  0.08360100  0.14869600  0.31384800  1
  N  3425  1  0.02693000  0.09437300  0.36608600  1
  N  3430  1  0.02604500  0.09692000  0.57982400  1
  N  3442  1  0.33418300  0.41595600  0.08147600  1
  N  3443  1  0.27566700  0.36309600  0.13363200  1
  N  3455  1  0.02754500  0.41484100  0.36716200  1
  N  3456  1  0.08398700  0.36282200  0.31250400  1
  N  3457  1  0.27090500  0.97855100  0.97302300  1
  N  3478  1  0.49285600  0.78957600  0.72302400  1
  N  3482  1  0.46561800  0.75456200  0.74882900  1
  N  3488  1  0.49378300  0.72018900  0.72296600  1
  N  3533  1  0.39748800  0.86177900  0.81370900  1
  N  3534  1  0.34007800  0.91377500  0.86767000  1
  N  3537  1  0.52122400  0.75524800  0.69730600  1
  N  3550  1  0.40013200  0.64714400  0.81460000  1
  N  3574  1  0.59077900  0.86157300  0.63352000  1
  N  3576  1  0.59244400  0.64837200  0.63492700  1
  N  3594  1  0.34255000  0.59469900  0.86804800  1
  N  3623  1  0.71507500  0.98066300  0.47333100  1
  N  3655  1  0.49526600  0.79022100  0.22334900  1
  N  3659  1  0.52274600  0.75511700  0.24902800  1
  N  3665  1  0.49459700  0.72080200  0.22313800  1
  N  3671  1  0.46699100  0.75593000  0.19754800  1
  N  3741  1  0.59042100  0.86321600  0.31321900  1
  N  3742  1  0.64881000  0.91572400  0.36584200  1
  N  3754  1  0.39724400  0.86199800  0.13362700  1
  N  3755  1  0.34065900  0.91643900  0.08143100  1
  N  3759  1  0.64764200  0.91514000  0.58048200  1
  N  3765  1  0.58929400  0.64749000  0.31386600  1
  N  3767  1  0.39751300  0.64772600  0.13508900  1
  N  3796  1  0.64893300  0.59604200  0.58069000  1
  N  3798  1  0.64788800  0.59457700  0.36591400  1
  N  3800  1  0.34096300  0.59576200  0.08041500  1
  N  3813  1  0.24250300  0.00427300  0.93886200  1
  N  3817  1  0.21541600  0.03020900  0.97403300  1
  N  3839  1  0.99286813  0.22103900  0.72438400  1
  N  3841  1  0.96556810  0.25603700  0.69854400  1
  N  3843  1  0.99376113  0.29041100  0.72439800  1
  N  3849  1  0.02122900  0.25537000  0.75011900  1
  N  3888  1  0.21555000  0.48030200  0.97365000  1
  N  3894  1  0.24368600  0.50609400  0.93927500  1
  N  3900  1  0.27142400  0.53171200  0.97426900  1
  N  3937  1  0.14891100  0.41472800  0.86661500  1
  N  3938  1  0.09241800  0.36236500  0.81236400  1
  N  3950  1  0.09095200  0.14911000  0.81385600  1
  N  3951  1  0.14794800  0.09557500  0.86683600  1
  N  3984  1  0.89726500  0.14886700  0.63380100  1
  N  3987  1  0.90001010  0.36346700  0.63282900  1
  N  4001  1  0.24356100  0.00427500  0.00824900  1
  N  4023  1  0.74219500  0.00648600  0.50852800  1
  N  4026  1  0.74333700  0.00662500  0.43915300  1
  N  4032  1  0.77061200  0.03231800  0.47441000  1
  N  4074  1  0.99544513  0.22038200  0.22417000  1
  N  4078  1  0.02292300  0.25549400  0.19856500  1
  N  4084  1  0.99479813  0.28982100  0.22444000  1
  N  4090  1  0.96725510  0.25468600  0.25001100  1
  N  4156  1  0.74313400  0.50449200  0.43874900  1
  N  4160  1  0.71562300  0.53035000  0.47369500  1
  N  4166  1  0.74364400  0.50460600  0.50811900  1
  N  4172  1  0.77141300  0.47892100  0.47316500  1
  N  4229  1  0.24303500  0.50608400  0.00863500  1
  N  4270  1  0.09059900  0.14751100  0.13421400  1
  N  4271  1  0.14910400  0.09519100  0.08154800  1
  N  4276  1  0.84241000  0.41597400  0.57943800  1
  N  4288  1  0.89731100  0.14869600  0.31384800  1
  N  4289  1  0.84064000  0.09437300  0.36608600  1
  N  4294  1  0.83975500  0.09692000  0.57982400  1
  N  4306  1  0.14789300  0.41595600  0.08147600  1
  N  4307  1  0.08937700  0.36309600  0.13363200  1
  N  4319  1  0.84125500  0.41484100  0.36716200  1
  N  4320  1  0.89769700  0.36282200  0.31250400  1
  O  75  1  0.06140000  0.88510200  0.83632300  1
  O  112  1  0.16676500  0.62143100  0.84623600  1
  O  142  1  0.41459200  0.88364200  0.60612100  1
  O  145  1  0.31533300  0.61101600  0.61515400  1
  O  283  1  0.41589200  0.88323200  0.34195200  1
  O  296  1  0.06280800  0.88630100  0.11142300  1
  O  317  1  0.31264900  0.62332300  0.34626300  1
  O  332  1  0.16569800  0.61777000  0.10498000  1
  O  479  1  0.81532200  0.39970100  0.83203700  1
  O  492  1  0.91483800  0.12712300  0.84123600  1
  O  541  1  0.56114100  0.12563300  0.61106000  1
  O  812  1  0.91611600  0.12769300  0.10556900  1
  O  819  1  0.66662300  0.38915700  0.60119100  1
  O  830  1  0.56283000  0.12455500  0.33607400  1
  O  848  1  0.81269100  0.38712400  0.10112100  1
  O  861  1  0.66594300  0.39277200  0.34269200  1
  O  939  1  0.87511100  0.88510200  0.83632300  1
  O  976  1  0.98047550  0.62143100  0.84623600  1
  O  1006  1  0.22830300  0.88364200  0.60612100  1
  O  1009  1  0.12904400  0.61101600  0.61515400  1
  O  1147  1  0.22960300  0.88323200  0.34195200  1
  O  1160  1  0.87651900  0.88630100  0.11142300  1
  O  1181  1  0.12636000  0.62332300  0.34626300  1
  O  1196  1  0.97940850  0.61777000  0.10498000  1
  O  1343  1  0.62903300  0.39970100  0.83203700  1
  O  1356  1  0.72854900  0.12712300  0.84123600  1
  O  1405  1  0.37485200  0.12563300  0.61106000  1
  O  1676  1  0.72982700  0.12769300  0.10556900  1
  O  1683  1  0.48033400  0.38915700  0.60119100  1
  O  1694  1  0.37654100  0.12455500  0.33607400  1
  O  1712  1  0.62640200  0.38712400  0.10112100  1
  O  1725  1  0.47965400  0.39277200  0.34269200  1
  O  1803  1  0.68882100  0.88510200  0.83632300  1
  O  1840  1  0.79418600  0.62143100  0.84623600  1
  O  1870  1  0.04201300  0.88364200  0.60612100  1
  O  1873  1  0.94275410  0.61101600  0.61515400  1
  O  2011  1  0.04331300  0.88323200  0.34195200  1
  O  2024  1  0.69022900  0.88630100  0.11142300  1
  O  2045  1  0.94007010  0.62332300  0.34626300  1
  O  2060  1  0.79311900  0.61777000  0.10498000  1
  O  2207  1  0.44274300  0.39970100  0.83203700  1
  O  2220  1  0.54225900  0.12712300  0.84123600  1
  O  2269  1  0.18856200  0.12563300  0.61106000  1
  O  2540  1  0.54353700  0.12769300  0.10556900  1
  O  2547  1  0.29404400  0.38915700  0.60119100  1
  O  2558  1  0.19025100  0.12455500  0.33607400  1
  O  2576  1  0.44011200  0.38712400  0.10112100  1
  O  2589  1  0.29336400  0.39277200  0.34269200  1
  O  2667  1  0.50253200  0.88510200  0.83632300  1
  O  2704  1  0.60789700  0.62143100  0.84623600  1
  O  2734  1  0.85572400  0.88364200  0.60612100  1
  O  2737  1  0.75646500  0.61101600  0.61515400  1
  O  2875  1  0.85702400  0.88323200  0.34195200  1
  O  2888  1  0.50394000  0.88630100  0.11142300  1
  O  2909  1  0.75378100  0.62332300  0.34626300  1
  O  2924  1  0.60683000  0.61777000  0.10498000  1
  O  3071  1  0.25645400  0.39970100  0.83203700  1
  O  3084  1  0.35597000  0.12712300  0.84123600  1
  O  3133  1  0.00227300  0.12563300  0.61106000  1
  O  3404  1  0.35724800  0.12769300  0.10556900  1
  O  3411  1  0.10775500  0.38915700  0.60119100  1
  O  3422  1  0.00396200  0.12455500  0.33607400  1
  O  3440  1  0.25382300  0.38712400  0.10112100  1
  O  3453  1  0.10707500  0.39277200  0.34269200  1
  O  3531  1  0.31624200  0.88510200  0.83632300  1
  O  3568  1  0.42160700  0.62143100  0.84623600  1
  O  3598  1  0.66943400  0.88364200  0.60612100  1
  O  3601  1  0.57017500  0.61101600  0.61515400  1
  O  3739  1  0.67073400  0.88323200  0.34195200  1
  O  3752  1  0.31765000  0.88630100  0.11142300  1
  O  3773  1  0.56749100  0.62332300  0.34626300  1
  O  3788  1  0.42054000  0.61777000  0.10498000  1
  O  3935  1  0.07016400  0.39970100  0.83203700  1
  O  3948  1  0.16968000  0.12712300  0.84123600  1
  O  3997  1  0.81598300  0.12563300  0.61106000  1
  O  4268  1  0.17095800  0.12769300  0.10556900  1
  O  4275  1  0.92146510  0.38915700  0.60119100  1
  O  4286  1  0.81767200  0.12455500  0.33607400  1
  O  4304  1  0.06753300  0.38712400  0.10112100  1
  O  4317  1  0.92078510  0.39277200  0.34269200  1
