# generated using pymatgen
data_H5C9N3O
_symmetry_space_group_name_H-M   'P 1'
_cell_length_a   58.93590000
_cell_length_b   58.93590000
_cell_length_c   58.93590000
_cell_angle_alpha   90.00010000
_cell_angle_beta   90.00020000
_cell_angle_gamma   90.00000000
_symmetry_Int_Tables_number   1
_chemical_formula_structural   H5C9N3O
_chemical_formula_sum   'H360 C648 N216 O72'
_cell_volume   204710.33069444
_cell_formula_units_Z   72
loop_
 _symmetry_equiv_pos_site_id
 _symmetry_equiv_pos_as_xyz
  1  'x, y, z'
loop_
 _atom_site_type_symbol
 _atom_site_label
 _atom_site_symmetry_multiplicity
 _atom_site_fract_x
 _atom_site_fract_y
 _atom_site_fract_z
 _atom_site_occupancy
  H  25  1  0.99479300  0.38648900  0.43502700  1
  H  26  1  0.03473100  0.38328000  0.42933400  1
  H  27  1  0.98854500  0.42176100  0.37319900  1
  H  28  1  0.02865200  0.41883700  0.36722300  1
  H  29  1  0.07805700  0.43794600  0.34538000  1
  H  30  1  0.09907800  0.46428100  0.32316100  1
  H  31  1  0.13952900  0.40902700  0.36866700  1
  H  32  1  0.16032800  0.43569300  0.34646300  1
  H  33  1  0.13751200  0.37487100  0.41308100  1
  H  34  1  0.15445800  0.35322200  0.44250600  1
  H  35  1  0.09197400  0.32062600  0.45487400  1
  H  36  1  0.07475400  0.34241200  0.42568300  1
  H  38  1  0.12184800  0.32412400  0.48327300  1
  H  40  1  0.15743000  0.46454600  0.31388000  1
  H  42  1  0.95811100  0.41974800  0.40628200  1
  H  67  1  0.92731300  0.68695600  0.40387300  1
  H  68  1  0.88694500  0.68849800  0.40190300  1
  H  69  1  0.92676600  0.62282700  0.37237600  1
  H  70  1  0.88612900  0.62408200  0.37012600  1
  H  71  1  0.83697400  0.61414400  0.33982500  1
  H  72  1  0.81536700  0.58693300  0.31921800  1
  H  73  1  0.77683500  0.63751200  0.37133200  1
  H  74  1  0.75551600  0.61001800  0.35078800  1
  H  75  1  0.77965400  0.67491700  0.41132300  1
  H  76  1  0.76323500  0.69516100  0.44211800  1
  H  77  1  0.82629000  0.72605600  0.45571100  1
  H  78  1  0.84293000  0.70594900  0.42509100  1
  H  80  1  0.79621300  0.72136100  0.48410800  1
  H  82  1  0.75599100  0.58267500  0.31753500  1
  H  84  1  0.96032600  0.65345200  0.37296000  1
  H  109  1  0.92274200  0.38716400  0.61184500  1
  H  110  1  0.88286500  0.38365900  0.61773400  1
  H  111  1  0.92916000  0.42168000  0.67407500  1
  H  112  1  0.88910100  0.41845600  0.68025600  1
  H  113  1  0.83909800  0.43549300  0.70411600  1
  H  114  1  0.81775900  0.46164000  0.72633500  1
  H  115  1  0.77803300  0.40943300  0.67680000  1
  H  116  1  0.75696600  0.43591600  0.69886000  1
  H  117  1  0.78035900  0.37418700  0.63405900  1
  H  118  1  0.76353900  0.35253000  0.60456700  1
  H  119  1  0.82626500  0.32053800  0.59192300  1
  H  120  1  0.84337500  0.34233900  0.62115700  1
  H  122  1  0.79628100  0.32371400  0.56366900  1
  H  124  1  0.75842900  0.46391700  0.73150500  1
  H  126  1  0.95940600  0.42027800  0.64078300  1
  H  151  1  0.98998300  0.68721100  0.64214500  1
  H  152  1  0.03036500  0.68876800  0.64394900  1
  H  153  1  0.99069800  0.62290400  0.67328300  1
  H  154  1  0.03133000  0.62416400  0.67535900  1
  H  155  1  0.07982200  0.61133700  0.70246500  1
  H  156  1  0.10127200  0.58381500  0.72273000  1
  H  157  1  0.14070400  0.63921300  0.67650600  1
  H  158  1  0.16193300  0.61138800  0.69681300  1
  H  159  1  0.13777200  0.67551800  0.63476100  1
  H  160  1  0.15415600  0.69591800  0.60406000  1
  H  161  1  0.09108700  0.72687900  0.59068600  1
  H  162  1  0.07448800  0.70662800  0.62121100  1
  H  164  1  0.12106700  0.72205200  0.56216900  1
  H  166  1  0.15978700  0.58253800  0.72962900  1
  H  168  1  0.95713400  0.65352700  0.67300600  1
  H  193  1  0.37079300  0.05942300  0.38711700  1
  H  194  1  0.36516300  0.09935800  0.38377600  1
  H  195  1  0.30878800  0.05334200  0.42211300  1
  H  196  1  0.30287500  0.09344600  0.41905700  1
  H  197  1  0.28090900  0.14285100  0.43782300  1
  H  198  1  0.25867400  0.16390400  0.46412000  1
  H  199  1  0.30459500  0.20429100  0.40916000  1
  H  200  1  0.28236600  0.22512200  0.43578600  1
  H  201  1  0.34910600  0.20215900  0.37505200  1
  H  202  1  0.37866700  0.21901200  0.35350100  1
  H  203  1  0.39118200  0.15639600  0.32121500  1
  H  204  1  0.36185700  0.13927600  0.34289300  1
  H  206  1  0.41954900  0.18628400  0.32465800  1
  H  208  1  0.24968100  0.22228600  0.46457400  1
  H  210  1  0.34180300  0.02284200  0.42030300  1
  H  235  1  0.33970000  0.99169300  0.68699200  1
  H  236  1  0.33751800  0.95132200  0.68832300  1
  H  237  1  0.30757900  0.99169100  0.62317100  1
  H  238  1  0.30511700  0.95106400  0.62421400  1
  H  239  1  0.27478000  0.90205600  0.61382000  1
  H  240  1  0.25398700  0.88057800  0.58662900  1
  H  241  1  0.30576000  0.84166700  0.63726200  1
  H  242  1  0.28505100  0.82049500  0.60980500  1
  H  243  1  0.34748500  0.84442700  0.67212900  1
  H  244  1  0.37847300  0.82766200  0.69164500  1
  H  245  1  0.39089300  0.88942900  0.72552600  1
  H  246  1  0.36009200  0.90648800  0.70596700  1
  H  248  1  0.41964700  0.85988300  0.72042200  1
  H  250  1  0.25186900  0.82121100  0.58242800  1
  H  252  1  0.30869400  0.02508900  0.65395800  1
  H  277  1  0.57819600  0.99194300  0.35918200  1
  H  278  1  0.58024400  0.95158700  0.35764300  1
  H  279  1  0.60936000  0.99144800  0.42347000  1
  H  280  1  0.61169700  0.95081200  0.42221800  1
  H  281  1  0.64225400  0.90164900  0.43214600  1
  H  282  1  0.66282500  0.88001200  0.45936700  1
  H  283  1  0.61089600  0.84151000  0.40857800  1
  H  284  1  0.63140000  0.82016300  0.43607700  1
  H  285  1  0.57110500  0.84434000  0.37101000  1
  H  286  1  0.54051900  0.82793300  0.35045000  1
  H  287  1  0.52764600  0.89083200  0.31895500  1
  H  288  1  0.55805200  0.90747300  0.33938200  1
  H  290  1  0.49899100  0.86096900  0.32367200  1
  H  292  1  0.66461900  0.82063300  0.46348000  1
  H  294  1  0.60897500  0.02496500  0.39281000  1
  H  319  1  0.54684800  0.05906600  0.65974100  1
  H  320  1  0.55234800  0.09903000  0.66307300  1
  H  321  1  0.60876700  0.05321100  0.62456900  1
  H  322  1  0.61454800  0.09333800  0.62761100  1
  H  323  1  0.63602200  0.14292500  0.60874500  1
  H  324  1  0.65803100  0.16409400  0.58237900  1
  H  325  1  0.61252900  0.20420600  0.63789000  1
  H  326  1  0.63454900  0.22517600  0.61118100  1
  H  327  1  0.56917500  0.20176600  0.67404100  1
  H  328  1  0.54004400  0.21816700  0.69661100  1
  H  329  1  0.52740300  0.15458900  0.72686600  1
  H  330  1  0.55632600  0.13799200  0.70436100  1
  H  332  1  0.49904800  0.18464800  0.72390200  1
  H  334  1  0.66725100  0.22235500  0.58220900  1
  H  336  1  0.57586500  0.02257100  0.62650600  1
  H  361  1  0.32248000  0.43458400  0.05907800  1
  H  362  1  0.31894400  0.42887000  0.09898200  1
  H  363  1  0.35763600  0.37267000  0.05305700  1
  H  364  1  0.35438200  0.36666800  0.09313500  1
  H  365  1  0.37277900  0.34448100  0.14270000  1
  H  366  1  0.39902600  0.32234700  0.16393600  1
  H  367  1  0.34375400  0.36820600  0.20395400  1
  H  368  1  0.37031700  0.34607500  0.22496100  1
  H  369  1  0.30983400  0.41262000  0.20171100  1
  H  370  1  0.28822800  0.44211700  0.21857700  1
  H  371  1  0.25611100  0.45479100  0.15590300  1
  H  372  1  0.27787700  0.42553700  0.13875900  1
  H  374  1  0.25942300  0.48306300  0.18587700  1
  H  376  1  0.39937400  0.31344800  0.22225700  1
  H  378  1  0.35594100  0.40580400  0.02262400  1
  H  403  1  0.59429200  0.43442100  0.98665400  1
  H  404  1  0.59824300  0.42871700  0.94678800  1
  H  405  1  0.56056500  0.37170400  0.99254500  1
  H  406  1  0.56424500  0.36570600  0.95248800  1
  H  407  1  0.54840800  0.34163400  0.90223700  1
  H  408  1  0.52226400  0.31963700  0.88067200  1
  H  409  1  0.57383500  0.37031400  0.84152700  1
  H  410  1  0.54735200  0.34843600  0.82022400  1
  H  411  1  0.61059900  0.41208000  0.84439700  1
  H  412  1  0.63248900  0.44179500  0.82814800  1
  H  413  1  0.66182600  0.45539300  0.89196400  1
  H  414  1  0.63997500  0.42586300  0.90843100  1
  H  416  1  0.65849200  0.48355800  0.86168900  1
  H  418  1  0.51934500  0.31558500  0.82137900  1
  H  420  1  0.56132400  0.40488400  0.02295700  1
  H  445  1  0.32225400  0.61139300  0.98730400  1
  H  446  1  0.31901300  0.61709100  0.94736000  1
  H  447  1  0.35756000  0.67320300  0.99351900  1
  H  448  1  0.35460900  0.67918400  0.95341900  1
  H  449  1  0.37377400  0.70093500  0.90389600  1
  H  450  1  0.40008000  0.72311600  0.88280000  1
  H  451  1  0.34469100  0.67764300  0.84251200  1
  H  452  1  0.37133000  0.69979600  0.82163400  1
  H  453  1  0.31021100  0.63345300  0.84462500  1
  H  454  1  0.28829800  0.60419000  0.82775400  1
  H  455  1  0.25588800  0.59199200  0.89035100  1
  H  456  1  0.27793600  0.62100500  0.90751200  1
  H  458  1  0.25903200  0.56361100  0.86045900  1
  H  460  1  0.40021400  0.73237700  0.82441300  1
  H  462  1  0.35556800  0.64012600  0.02394900  1
  H  487  1  0.62264500  0.64223000  0.05444600  1
  H  488  1  0.62438400  0.64424400  0.09479900  1
  H  489  1  0.55851200  0.67371500  0.05526900  1
  H  490  1  0.55996000  0.67599900  0.09589300  1
  H  491  1  0.54965700  0.70582700  0.14495400  1
  H  492  1  0.52233800  0.72621000  0.16662200  1
  H  493  1  0.57393300  0.67508300  0.20512800  1
  H  494  1  0.54631700  0.69539700  0.22651700  1
  H  495  1  0.61154300  0.63523800  0.20215200  1
  H  496  1  0.63205400  0.60458300  0.21847100  1
  H  497  1  0.66313300  0.59150900  0.15539700  1
  H  498  1  0.64274700  0.62199000  0.13885700  1
  H  500  1  0.65843000  0.56289200  0.18529300  1
  H  502  1  0.51861400  0.72839400  0.22598500  1
  H  504  1  0.58907100  0.67318300  0.02161100  1
  H  529  1  0.32208100  0.05932400  0.61140200  1
  H  530  1  0.31887100  0.09928800  0.61692100  1
  H  531  1  0.35746900  0.05337000  0.67319100  1
  H  532  1  0.35454900  0.09351300  0.67898500  1
  H  533  1  0.37307900  0.14309900  0.70095500  1
  H  534  1  0.39937900  0.16418700  0.72313900  1
  H  535  1  0.34489400  0.20447400  0.67657300  1
  H  536  1  0.37154200  0.22535500  0.69875100  1
  H  537  1  0.30849700  0.20207700  0.63344100  1
  H  538  1  0.28587900  0.21850000  0.60434500  1
  H  539  1  0.25521300  0.15504200  0.59207200  1
  H  540  1  0.27777700  0.13842100  0.62096300  1
  H  542  1  0.25819100  0.18497800  0.56359600  1
  H  544  1  0.40010900  0.22268600  0.73162900  1
  H  546  1  0.35544100  0.02279000  0.64020300  1
  H  571  1  0.62274400  0.99172000  0.64246600  1
  H  572  1  0.62420800  0.95134700  0.64465500  1
  H  573  1  0.55878600  0.99149100  0.67432300  1
  H  574  1  0.55996400  0.95087000  0.67679000  1
  H  575  1  0.54971000  0.90197700  0.70717000  1
  H  576  1  0.52248100  0.88049100  0.72790500  1
  H  577  1  0.57327500  0.84158200  0.67628100  1
  H  578  1  0.54578500  0.82040300  0.69694200  1
  H  579  1  0.60810900  0.84437000  0.63455800  1
  H  580  1  0.62751600  0.82761200  0.60349800  1
  H  581  1  0.66112700  0.88946600  0.59078500  1
  H  582  1  0.64167600  0.90651900  0.62166000  1
  H  584  1  0.65594500  0.85982000  0.56210200  1
  H  586  1  0.51831700  0.82114600  0.73006000  1
  H  588  1  0.58943600  0.02500000  0.67331000  1
  H  613  1  0.29504600  0.99184100  0.40406500  1
  H  614  1  0.29376600  0.95145900  0.40195600  1
  H  615  1  0.35926600  0.99180900  0.37273700  1
  H  616  1  0.35828600  0.95118700  0.37036000  1
  H  617  1  0.37140800  0.90273900  0.34280100  1
  H  618  1  0.39883500  0.88139600  0.32225700  1
  H  619  1  0.34371200  0.84169200  0.36856000  1
  H  620  1  0.37142400  0.82059300  0.34800900  1
  H  621  1  0.30982100  0.84453600  0.41201900  1
  H  622  1  0.28997900  0.82783300  0.44283600  1
  H  623  1  0.25594100  0.88959800  0.45476000  1
  H  624  1  0.27580600  0.90660100  0.42413700  1
  H  626  1  0.26095300  0.86014600  0.48369200  1
  H  628  1  0.40017800  0.82280500  0.31524400  1
  H  630  1  0.32845200  0.02519000  0.37343300  1
  H  655  1  0.59505300  0.05954500  0.43487600  1
  H  656  1  0.59865700  0.09944800  0.42920200  1
  H  657  1  0.56071400  0.05351600  0.37251300  1
  H  658  1  0.56403500  0.09360900  0.36655100  1
  H  659  1  0.54740300  0.14380300  0.34286600  1
  H  660  1  0.52119000  0.16523500  0.32083200  1
  H  661  1  0.57300200  0.20467700  0.37102200  1
  H  662  1  0.54643600  0.22585500  0.34912500  1
  H  663  1  0.61037700  0.20201000  0.41244000  1
  H  664  1  0.63267700  0.21835500  0.44181200  1
  H  665  1  0.66232500  0.15461300  0.45504500  1
  H  666  1  0.64007900  0.13807000  0.42588800  1
  H  668  1  0.65929600  0.18477500  0.48323700  1
  H  670  1  0.51855500  0.22456800  0.31629300  1
  H  672  1  0.56195600  0.02308300  0.40567300  1
  H  697  1  0.99064900  0.40406200  0.68723500  1
  H  698  1  0.03101300  0.40204700  0.68859900  1
  H  699  1  0.99088900  0.37287200  0.62295300  1
  H  700  1  0.03152900  0.37057500  0.62402600  1
  H  701  1  0.08057300  0.34049000  0.61351600  1
  H  702  1  0.10204400  0.31996700  0.58614200  1
  H  703  1  0.14087600  0.37162400  0.63696500  1
  H  704  1  0.16206400  0.35116200  0.60930000  1
  H  705  1  0.13815500  0.41140900  0.67471300  1
  H  706  1  0.15452900  0.44213600  0.69510100  1
  H  707  1  0.09172700  0.45480200  0.72689700  1
  H  708  1  0.07513800  0.42423000  0.70666000  1
  H  710  1  0.12143300  0.48364700  0.72171800  1
  H  712  1  0.16141700  0.31796000  0.58201700  1
  H  714  1  0.95749900  0.37328300  0.65374400  1
  H  739  1  0.92705100  0.40384100  0.35950300  1
  H  740  1  0.88666300  0.40176100  0.35826900  1
  H  741  1  0.92710100  0.37201900  0.42347900  1
  H  742  1  0.88647200  0.36966700  0.42253700  1
  H  743  1  0.83768000  0.33986200  0.43351900  1
  H  744  1  0.81635500  0.31916300  0.46087900  1
  H  745  1  0.77710000  0.37032000  0.40988100  1
  H  746  1  0.75607100  0.34970000  0.43752100  1
  H  747  1  0.77975200  0.41195000  0.37465500  1
  H  748  1  0.76296800  0.44288200  0.35505700  1
  H  749  1  0.82475000  0.45530400  0.32121200  1
  H  750  1  0.84182300  0.42455500  0.34083500  1
  H  752  1  0.79516400  0.48405900  0.32629500  1
  H  754  1  0.75699700  0.31662300  0.46496100  1
  H  756  1  0.96045500  0.37296200  0.39264900  1
  H  781  1  0.92261900  0.61136900  0.65941300  1
  H  782  1  0.88271600  0.61711800  0.66299500  1
  H  783  1  0.92868600  0.67342500  0.62451300  1
  H  784  1  0.88862400  0.67946200  0.62781300  1
  H  785  1  0.83896700  0.70156900  0.60931000  1
  H  786  1  0.81766500  0.72368100  0.58309800  1
  H  787  1  0.77778500  0.67792400  0.63855000  1
  H  788  1  0.75671100  0.70002800  0.61202600  1
  H  789  1  0.78009400  0.63340700  0.67238500  1
  H  790  1  0.76331500  0.60387100  0.69400200  1
  H  791  1  0.82603600  0.59132700  0.72605000  1
  H  792  1  0.84310700  0.62061000  0.70428800  1
  H  794  1  0.79613900  0.56301700  0.72279400  1
  H  796  1  0.75936600  0.73266700  0.58288900  1
  H  798  1  0.95908700  0.64032900  0.62607500  1
  H  823  1  0.99475000  0.61117700  0.38659000  1
  H  824  1  0.03467700  0.61681500  0.38306900  1
  H  825  1  0.98879700  0.67325300  0.42146300  1
  H  826  1  0.02889400  0.67917100  0.41823400  1
  H  827  1  0.07873500  0.70087400  0.43688000  1
  H  828  1  0.10009700  0.72283900  0.46314700  1
  H  829  1  0.13982200  0.67716400  0.40750700  1
  H  830  1  0.16097700  0.69913000  0.43410600  1
  H  831  1  0.13728100  0.63383700  0.37165800  1
  H  832  1  0.15368500  0.60466800  0.34915100  1
  H  833  1  0.09006600  0.59183200  0.31905500  1
  H  834  1  0.07346100  0.62078200  0.34152200  1
  H  836  1  0.12012800  0.56356600  0.32197500  1
  H  838  1  0.15836500  0.73182000  0.46323200  1
  H  840  1  0.95829400  0.64020200  0.41986800  1
  H  865  1  0.34016000  0.35930200  0.99112300  1
  H  866  1  0.33814000  0.35830300  0.95073200  1
  H  867  1  0.30823000  0.42322300  0.99149800  1
  H  868  1  0.30593800  0.42251500  0.95085700  1
  H  869  1  0.27602300  0.43354200  0.90190100  1
  H  870  1  0.25509000  0.46072600  0.88056900  1
  H  871  1  0.30678900  0.41026100  0.84134500  1
  H  872  1  0.28594800  0.43773100  0.82031400  1
  H  873  1  0.34840500  0.37498400  0.84393900  1
  H  874  1  0.37935400  0.35538600  0.82714700  1
  H  875  1  0.39180200  0.32156800  0.88894100  1
  H  876  1  0.36105000  0.34118100  0.90601000  1
  H  878  1  0.42054700  0.32663600  0.85936500  1
  H  880  1  0.25270800  0.46482500  0.82112800  1
  H  882  1  0.30913400  0.39218400  0.02464700  1
  H  907  1  0.33968600  0.68698900  0.05497800  1
  H  908  1  0.33761100  0.68833300  0.09536100  1
  H  909  1  0.30793200  0.62298100  0.05510900  1
  H  910  1  0.30558300  0.62403300  0.09573500  1
  H  911  1  0.27572900  0.61318000  0.14454900  1
  H  912  1  0.25511500  0.58580300  0.16593600  1
  H  913  1  0.30628600  0.63689400  0.20505000  1
  H  914  1  0.28574900  0.60923700  0.22614200  1
  H  915  1  0.34760900  0.67232400  0.20235600  1
  H  916  1  0.37855800  0.69189100  0.21911400  1
  H  917  1  0.39109700  0.72558000  0.15727000  1
  H  918  1  0.36032400  0.70597400  0.14021500  1
  H  920  1  0.41984900  0.72039500  0.18686800  1
  H  922  1  0.25265500  0.58177000  0.22527700  1
  H  924  1  0.30878000  0.65376800  0.02169600  1
  H  949  1  0.57792300  0.35879000  0.05443600  1
  H  950  1  0.57985300  0.35762600  0.09481600  1
  H  951  1  0.60855800  0.42334200  0.05446500  1
  H  952  1  0.61077100  0.42246800  0.09511300  1
  H  953  1  0.63857300  0.43532400  0.14373700  1
  H  954  1  0.65914800  0.46268600  0.16510800  1
  H  955  1  0.61251100  0.40777900  0.20471700  1
  H  956  1  0.63310100  0.43544700  0.22585900  1
  H  957  1  0.57042900  0.37176400  0.20196400  1
  H  958  1  0.53980300  0.35126900  0.21840700  1
  H  959  1  0.52698900  0.31957800  0.15559300  1
  H  960  1  0.55744000  0.33989700  0.13893200  1
  H  962  1  0.49828500  0.32451100  0.18540000  1
  H  964  1  0.66598600  0.46405100  0.22375800  1
  H  966  1  0.60847200  0.39244400  0.02120800  1
  H  991  1  0.54672500  0.65986500  0.98724400  1
  H  992  1  0.55231000  0.66340100  0.94730800  1
  H  993  1  0.60857800  0.62457000  0.99303700  1
  H  994  1  0.61443700  0.62780400  0.95293200  1
  H  995  1  0.63598600  0.60910400  0.90325500  1
  H  996  1  0.65788100  0.58269300  0.88201800  1
  H  997  1  0.61221200  0.63816300  0.84204400  1
  H  998  1  0.63412300  0.61141200  0.82100600  1
  H  999  1  0.56923900  0.67461300  0.84457700  1
  H  1000  1  0.54020400  0.69730200  0.82818700  1
  H  1001  1  0.52756800  0.72745700  0.89181300  1
  H  1002  1  0.55638400  0.70481200  0.90840400  1
  H  1004  1  0.49926300  0.72469600  0.86176900  1
  H  1006  1  0.66689600  0.58240400  0.82376500  1
  H  1008  1  0.57562400  0.62633200  0.02360300  1
  C  1  1  0.05934700  0.39706600  0.39331200  1
  C  3  1  0.09325800  0.37673900  0.40199800  1
  C  5  1  0.09401600  0.40640700  0.37449500  1
  C  7  1  0.10441800  0.36081300  0.41624200  1
  C  8  1  0.09181400  0.34430700  0.42832700  1
  C  9  1  0.10196200  0.33132200  0.44551500  1
  C  10  1  0.12509800  0.33418100  0.45110400  1
  C  11  1  0.13805000  0.34969600  0.43815100  1
  C  12  1  0.12792400  0.36264700  0.42082900  1
  C  13  1  0.03584400  0.40063300  0.39757600  1
  C  14  1  0.02542200  0.39178100  0.41739800  1
  C  15  1  0.00193800  0.39381900  0.42100200  1
  C  16  1  0.98814800  0.40454200  0.40474200  1
  C  17  1  0.99837800  0.41415900  0.38530900  1
  C  18  1  0.02195200  0.41239100  0.38188100  1
  C  19  1  0.10654400  0.42080500  0.35960600  1
  C  20  1  0.09538100  0.43695500  0.34573300  1
  C  21  1  0.10773300  0.45258700  0.33262400  1
  C  22  1  0.13170700  0.45280800  0.33308600  1
  C  23  1  0.14297800  0.43590700  0.34575700  1
  C  24  1  0.13060300  0.42025900  0.35889500  1
  C  43  1  0.85813900  0.65736600  0.38485600  1
  C  45  1  0.82379700  0.67367000  0.39895700  1
  C  47  1  0.82231400  0.64397300  0.37141400  1
  C  49  1  0.81301100  0.68832900  0.41485900  1
  C  50  1  0.82590400  0.70394400  0.42782600  1
  C  51  1  0.81611200  0.71595900  0.44590200  1
  C  52  1  0.79297000  0.71318300  0.45144700  1
  C  53  1  0.77969500  0.69856200  0.43783200  1
  C  54  1  0.78955800  0.68637900  0.41979700  1
  C  55  1  0.88227700  0.65642300  0.38577200  1
  C  56  1  0.89488900  0.67436600  0.39570600  1
  C  57  1  0.91868300  0.67359200  0.39691600  1
  C  58  1  0.93058400  0.65470000  0.38851600  1
  C  59  1  0.91832000  0.63658200  0.37874900  1
  C  60  1  0.89447700  0.63751600  0.37728300  1
  C  61  1  0.80926200  0.62860300  0.35799400  1
  C  62  1  0.81980100  0.61372200  0.34232300  1
  C  63  1  0.80710900  0.59757700  0.33016100  1
  C  64  1  0.78342400  0.59554800  0.33336700  1
  C  65  1  0.77263300  0.61107800  0.34806000  1
  C  66  1  0.78533600  0.62721100  0.36024900  1
  C  85  1  0.85836100  0.39682100  0.65407000  1
  C  87  1  0.82461400  0.37629300  0.64517100  1
  C  89  1  0.82361300  0.40568300  0.67296200  1
  C  91  1  0.81357100  0.36042700  0.63077000  1
  C  92  1  0.82628800  0.34408900  0.61858300  1
  C  93  1  0.81620600  0.33111200  0.60134700  1
  C  94  1  0.79302000  0.33375200  0.59583900  1
  C  95  1  0.77998400  0.34912500  0.60888200  1
  C  96  1  0.79004900  0.36210500  0.62621800  1
  C  97  1  0.88183000  0.40058900  0.64972800  1
  C  98  1  0.89219600  0.39203900  0.62974000  1
  C  99  1  0.91564500  0.39424500  0.62602300  1
  C  100  1  0.92947500  0.40484100  0.64232700  1
  C  101  1  0.91930000  0.41416800  0.66193500  1
  C  102  1  0.89574500  0.41224900  0.66547200  1
  C  103  1  0.81085700  0.41981200  0.68791200  1
  C  104  1  0.82178500  0.43506200  0.70293200  1
  C  105  1  0.80924100  0.45056000  0.71604600  1
  C  106  1  0.78533100  0.45160200  0.71438700  1
  C  107  1  0.77424200  0.43549300  0.70056300  1
  C  108  1  0.78679000  0.41994700  0.68747900  1
  C  127  1  0.05923500  0.65755700  0.66075000  1
  C  129  1  0.09361400  0.67407300  0.64701300  1
  C  131  1  0.09502700  0.64382000  0.67394100  1
  C  133  1  0.10442000  0.68896000  0.63133700  1
  C  134  1  0.09152800  0.70469600  0.61851100  1
  C  135  1  0.10129400  0.71678700  0.60047100  1
  C  136  1  0.12442300  0.71401400  0.59486500  1
  C  137  1  0.13770200  0.69930900  0.60838300  1
  C  138  1  0.12786200  0.68702900  0.62635900  1
  C  139  1  0.03510500  0.65660000  0.65987500  1
  C  140  1  0.02245300  0.67459500  0.65009100  1
  C  141  1  0.99865400  0.67381700  0.64898800  1
  C  142  1  0.98680700  0.65486900  0.65734200  1
  C  143  1  0.99911100  0.63669800  0.66694700  1
  C  144  1  0.02295200  0.63763700  0.66830800  1
  C  145  1  0.10794200  0.62810600  0.68708900  1
  C  146  1  0.09711400  0.61180300  0.70105900  1
  C  147  1  0.10971600  0.59543800  0.71299200  1
  C  148  1  0.13362000  0.59466800  0.71130500  1
  C  149  1  0.14463600  0.61151500  0.69834500  1
  C  150  1  0.13200200  0.62781200  0.68628300  1
  C  169  1  0.32910700  0.12405100  0.39733400  1
  C  171  1  0.33796400  0.15791600  0.37700000  1
  C  173  1  0.31028100  0.15876200  0.40649900  1
  C  175  1  0.35232700  0.16901200  0.36113700  1
  C  176  1  0.36450600  0.15633900  0.34475100  1
  C  177  1  0.38177700  0.16642700  0.33183200  1
  C  178  1  0.38735900  0.18957300  0.33463000  1
  C  179  1  0.37432800  0.20258900  0.35002600  1
  C  180  1  0.35692700  0.19252000  0.36291600  1
  C  181  1  0.33333333  0.10055300  0.40097800  1
  C  182  1  0.35317700  0.09008700  0.39225000  1
  C  183  1  0.35674300  0.06660500  0.39436900  1
  C  184  1  0.34041700  0.05286700  0.40505400  1
  C  185  1  0.32095000  0.06314100  0.41455100  1
  C  186  1  0.31755700  0.08671400  0.41269900  1
  C  187  1  0.29534100  0.17131900  0.42082000  1
  C  188  1  0.28133600  0.16017600  0.43687000  1
  C  189  1  0.26821000  0.17254600  0.45247500  1
  C  190  1  0.26878400  0.19651400  0.45276300  1
  C  191  1  0.28157400  0.20777600  0.43594300  1
  C  192  1  0.29473400  0.19538100  0.42032600  1
  C  211  1  0.32005400  0.92279900  0.65716000  1
  C  213  1  0.33430600  0.88827300  0.67287500  1
  C  215  1  0.30629800  0.88715200  0.64361000  1
  C  217  1  0.35040900  0.87719700  0.68706200  1
  C  218  1  0.36315300  0.88962100  0.70322000  1
  C  219  1  0.38132900  0.87957600  0.71488700  1
  C  220  1  0.38724900  0.85665600  0.71112900  1
  C  221  1  0.37392900  0.84387400  0.69580500  1
  C  222  1  0.35575000  0.85395500  0.68405500  1
  C  223  1  0.32105000  0.94693700  0.65638100  1
  C  224  1  0.33122200  0.95938600  0.67430400  1
  C  225  1  0.33255500  0.98317800  0.67365400  1
  C  226  1  0.32404400  0.99523400  0.65491000  1
  C  227  1  0.31402500  0.98313100  0.63682300  1
  C  228  1  0.31243700  0.95929300  0.63763400  1
  C  229  1  0.29269800  0.87420700  0.62831200  1
  C  230  1  0.27710200  0.88485900  0.61343800  1
  C  231  1  0.26483700  0.87224400  0.59730700  1
  C  232  1  0.26785400  0.84853000  0.59531100  1
  C  233  1  0.28244600  0.83763200  0.61085500  1
  C  234  1  0.29474300  0.85025700  0.62695900  1
  C  253  1  0.59727800  0.92279900  0.38880100  1
  C  255  1  0.58358100  0.88843900  0.37219100  1
  C  257  1  0.61080300  0.88699500  0.40217600  1
  C  259  1  0.56790700  0.87761900  0.35732100  1
  C  260  1  0.55525600  0.89046000  0.34141000  1
  C  261  1  0.53728700  0.88067000  0.32922700  1
  C  262  1  0.53158400  0.85757200  0.33208000  1
  C  263  1  0.54492600  0.84435400  0.34700600  1
  C  264  1  0.56286000  0.85420000  0.35934100  1
  C  265  1  0.59622400  0.94693300  0.38980000  1
  C  266  1  0.58634000  0.95953300  0.37181800  1
  C  267  1  0.58508000  0.98332400  0.37259000  1
  C  268  1  0.59337500  0.99524200  0.39151700  1
  C  269  1  0.60305200  0.98299100  0.40969100  1
  C  270  1  0.60457400  0.95914800  0.40875800  1
  C  271  1  0.62417500  0.87393900  0.41758300  1
  C  272  1  0.63977300  0.88447400  0.43253600  1
  C  273  1  0.65191700  0.87176200  0.44868300  1
  C  274  1  0.64875200  0.84806500  0.45063900  1
  C  275  1  0.63414000  0.83727900  0.43503200  1
  C  276  1  0.62196400  0.85000300  0.41890600  1
  C  295  1  0.58832300  0.12381400  0.64951800  1
  C  297  1  0.57983800  0.15742700  0.67045200  1
  C  299  1  0.60694000  0.15865100  0.64042300  1
  C  301  1  0.56585600  0.16820700  0.68689200  1
  C  302  1  0.55385900  0.15513600  0.70310700  1
  C  303  1  0.53682300  0.16491700  0.71655300  1
  C  304  1  0.53138300  0.18817500  0.71457000  1
  C  305  1  0.54434500  0.20161400  0.69948900  1
  C  306  1  0.56140800  0.19179600  0.68594200  1
  C  307  1  0.58412200  0.10033100  0.64577000  1
  C  308  1  0.56432900  0.08979800  0.65455200  1
  C  309  1  0.56085300  0.06630000  0.65246000  1
  C  310  1  0.57719900  0.05261500  0.64173500  1
  C  311  1  0.59657900  0.06297000  0.63214300  1
  C  312  1  0.59988500  0.08656100  0.63396200  1
  C  313  1  0.62170000  0.17130300  0.62599600  1
  C  314  1  0.63557800  0.16024500  0.60977600  1
  C  315  1  0.64857100  0.17268700  0.59412200  1
  C  316  1  0.64799100  0.19665500  0.59394400  1
  C  317  1  0.63533300  0.20783200  0.61092200  1
  C  318  1  0.62228700  0.19536100  0.62658100  1
  C  337  1  0.33243000  0.39279000  0.12368500  1
  C  339  1  0.31191600  0.40158800  0.15745600  1
  C  341  1  0.34137200  0.37386800  0.15840700  1
  C  343  1  0.29601900  0.41592700  0.16852800  1
  C  344  1  0.27967400  0.42813700  0.15583600  1
  C  345  1  0.26670100  0.44536100  0.16594000  1
  C  346  1  0.26942100  0.45087500  0.18911200  1
  C  347  1  0.28479300  0.43782200  0.20213300  1
  C  348  1  0.29772300  0.42045900  0.19205500  1
  C  349  1  0.33620000  0.39706200  0.10021100  1
  C  350  1  0.32748700  0.41691800  0.08973300  1
  C  351  1  0.32971600  0.42053300  0.06626800  1
  C  352  1  0.34050400  0.40425600  0.05254900  1
  C  353  1  0.34999100  0.38479100  0.06283900  1
  C  354  1  0.34802600  0.38134900  0.08639700  1
  C  355  1  0.35559200  0.35890900  0.17105500  1
  C  356  1  0.37171100  0.34490200  0.16001800  1
  C  357  1  0.38727200  0.33182400  0.17249300  1
  C  358  1  0.38743500  0.33245200  0.19646300  1
  C  359  1  0.37053200  0.34521600  0.20761900  1
  C  360  1  0.35495300  0.35831500  0.19511700  1
  C  379  1  0.58589400  0.39224800  0.92208400  1
  C  381  1  0.60696800  0.40132900  0.88870500  1
  C  383  1  0.57770200  0.37342900  0.88714700  1
  C  385  1  0.62305300  0.41581300  0.87807500  1
  C  386  1  0.63876200  0.42831600  0.89128200  1
  C  387  1  0.65181800  0.44570000  0.88158700  1
  C  388  1  0.64989600  0.45101200  0.85829900  1
  C  389  1  0.63533900  0.43759600  0.84473200  1
  C  390  1  0.62220100  0.42017200  0.85446400  1
  C  391  1  0.58176600  0.39649700  0.94550200  1
  C  392  1  0.58993100  0.41657300  0.95600400  1
  C  393  1  0.58745700  0.42017900  0.97944300  1
  C  394  1  0.57696600  0.40367800  0.99311700  1
  C  395  1  0.56799000  0.38398500  0.98279400  1
  C  396  1  0.57019300  0.38054400  0.95924900  1
  C  397  1  0.56375100  0.35850000  0.87419100  1
  C  398  1  0.54873900  0.34311500  0.88494500  1
  C  399  1  0.53326100  0.33011100  0.87227000  1
  C  400  1  0.53200800  0.33226100  0.84841400  1
  C  401  1  0.54791900  0.34641900  0.83746100  1
  C  402  1  0.56346600  0.35937700  0.85014100  1
  C  421  1  0.33278700  0.65311300  0.92273900  1
  C  423  1  0.31231000  0.64453100  0.88888500  1
  C  425  1  0.34214100  0.67186200  0.88803500  1
  C  427  1  0.29627400  0.63036800  0.87778000  1
  C  428  1  0.27972200  0.61840100  0.89043400  1
  C  429  1  0.26659600  0.60129600  0.88032100  1
  C  430  1  0.26929100  0.59571200  0.85716000  1
  C  431  1  0.28485500  0.60857500  0.84417000  1
  C  432  1  0.29798800  0.62577700  0.85426900  1
  C  433  1  0.33637900  0.64884100  0.94623900  1
  C  434  1  0.32751200  0.62903100  0.95666900  1
  C  435  1  0.32955800  0.62542900  0.98015300  1
  C  436  1  0.34030400  0.64168100  0.99393500  1
  C  437  1  0.34994100  0.66109800  0.98369500  1
  C  438  1  0.34818000  0.66451700  0.96011600  1
  C  439  1  0.35655700  0.68670400  0.87546200  1
  C  440  1  0.37275100  0.70056500  0.88657400  1
  C  441  1  0.38837400  0.71364200  0.87417400  1
  C  442  1  0.38853900  0.71318000  0.85019900  1
  C  443  1  0.37158100  0.70053200  0.83898100  1
  C  444  1  0.35597300  0.68738800  0.85140300  1
  C  463  1  0.59341200  0.66137300  0.12374200  1
  C  465  1  0.61011100  0.64763800  0.15804100  1
  C  467  1  0.58006000  0.67478800  0.15960000  1
  C  469  1  0.62502400  0.63195800  0.16880300  1
  C  470  1  0.64081400  0.61922600  0.15588600  1
  C  471  1  0.65298800  0.60122200  0.16562200  1
  C  472  1  0.65023300  0.59554400  0.18873700  1
  C  473  1  0.63544700  0.60896200  0.20203300  1
  C  474  1  0.62310000  0.62691200  0.19223100  1
  C  475  1  0.59232200  0.66036700  0.09961200  1
  C  476  1  0.61020100  0.65040900  0.08692400  1
  C  477  1  0.60931200  0.64917500  0.06313500  1
  C  478  1  0.59036600  0.65756900  0.05131600  1
  C  479  1  0.57230000  0.66733200  0.06365600  1
  C  480  1  0.57335100  0.66882200  0.08749200  1
  C  481  1  0.56458400  0.68806000  0.17267800  1
  C  482  1  0.54939100  0.70342900  0.16214300  1
  C  483  1  0.53318200  0.71546400  0.17487700  1
  C  484  1  0.53138200  0.71240500  0.19859900  1
  C  485  1  0.54720900  0.69802000  0.20937500  1
  C  486  1  0.56340600  0.68595600  0.19662900  1
  C  505  1  0.33266200  0.12406800  0.65281800  1
  C  507  1  0.31187500  0.15776300  0.64426800  1
  C  509  1  0.34189100  0.15890200  0.67138900  1
  C  511  1  0.29545900  0.16857400  0.63028200  1
  C  512  1  0.27914500  0.15553900  0.61838200  1
  C  513  1  0.26566700  0.16533200  0.60138100  1
  C  514  1  0.26776400  0.18855300  0.59584300  1
  C  515  1  0.28297100  0.20196300  0.60869000  1
  C  516  1  0.29648200  0.19215600  0.62579000  1
  C  517  1  0.33629200  0.10055600  0.64863400  1
  C  518  1  0.32739900  0.09003500  0.62888200  1
  C  519  1  0.32943100  0.06653300  0.62538500  1
  C  520  1  0.34018400  0.05281500  0.64168700  1
  C  521  1  0.34983800  0.06314300  0.66105100  1
  C  522  1  0.34808200  0.08674000  0.66437000  1
  C  523  1  0.35631300  0.17153000  0.68618000  1
  C  524  1  0.37225500  0.16042500  0.70033900  1
  C  525  1  0.38786300  0.17282000  0.71344000  1
  C  526  1  0.38829900  0.19678300  0.71267500  1
  C  527  1  0.37160800  0.20801500  0.69968600  1
  C  528  1  0.35596400  0.19559700  0.68657000  1
  C  547  1  0.59305500  0.92273300  0.66196700  1
  C  549  1  0.60877600  0.88823900  0.64765300  1
  C  551  1  0.57956100  0.88707000  0.67571100  1
  C  553  1  0.62292000  0.87718300  0.63149800  1
  C  554  1  0.63897000  0.88963800  0.61864700  1
  C  555  1  0.65057000  0.87959800  0.60042400  1
  C  556  1  0.64685900  0.85665400  0.59456800  1
  C  557  1  0.63164600  0.84384700  0.60799000  1
  C  558  1  0.61995700  0.85392200  0.62621300  1
  C  559  1  0.59221400  0.94686300  0.66099100  1
  C  560  1  0.61014000  0.95936800  0.65089700  1
  C  561  1  0.60941000  0.98315600  0.64956200  1
  C  562  1  0.59058300  0.99514000  0.65799500  1
  C  563  1  0.57249900  0.98297800  0.66794100  1
  C  564  1  0.57338800  0.95914700  0.66953500  1
  C  565  1  0.56426800  0.87412200  0.68930500  1
  C  566  1  0.54935400  0.88477600  0.70486300  1
  C  567  1  0.53320100  0.87215900  0.71709500  1
  C  568  1  0.53123400  0.84844700  0.71407800  1
  C  569  1  0.54682100  0.83754200  0.69953700  1
  C  570  1  0.56294300  0.85016900  0.68727100  1
  C  589  1  0.32517700  0.92294300  0.38492700  1
  C  591  1  0.30926600  0.88837100  0.39883000  1
  C  593  1  0.33911900  0.88734000  0.37145100  1
  C  595  1  0.29482900  0.87729700  0.41470800  1
  C  596  1  0.27848700  0.88972700  0.42721500  1
  C  597  1  0.26666600  0.87972300  0.44531500  1
  C  598  1  0.27037900  0.85682400  0.45133600  1
  C  599  1  0.28587500  0.84403700  0.43821900  1
  C  600  1  0.29778600  0.85406600  0.42011800  1
  C  601  1  0.32591700  0.94707400  0.38589900  1
  C  602  1  0.30785100  0.95952300  0.39580800  1
  C  603  1  0.30847100  0.98331700  0.39709800  1
  C  604  1  0.32731600  0.99535700  0.38878900  1
  C  605  1  0.34553600  0.98325400  0.37902200  1
  C  606  1  0.34476200  0.95942000  0.37748500  1
  C  607  1  0.35473600  0.87452600  0.35809100  1
  C  608  1  0.37094300  0.88543800  0.34408100  1
  C  609  1  0.38725300  0.87290000  0.33199800  1
  C  610  1  0.38803800  0.84898300  0.33354700  1
  C  611  1  0.37125700  0.83789300  0.34652900  1
  C  612  1  0.35503300  0.85045900  0.35874900  1
  C  631  1  0.58570200  0.12414900  0.39294100  1
  C  633  1  0.60666400  0.15766400  0.40180800  1
  C  635  1  0.57701800  0.15907200  0.37429500  1
  C  637  1  0.62294600  0.16837000  0.41603200  1
  C  638  1  0.63890400  0.15522800  0.42829100  1
  C  639  1  0.65219700  0.16497800  0.44546700  1
  C  640  1  0.65031300  0.18827000  0.45080400  1
  C  641  1  0.63548900  0.20176600  0.43761000  1
  C  642  1  0.62209600  0.19198100  0.42040400  1
  C  643  1  0.58181300  0.10068100  0.39717400  1
  C  644  1  0.59027400  0.09019700  0.41713600  1
  C  645  1  0.58802000  0.06672900  0.42071800  1
  C  646  1  0.57744900  0.05299800  0.40431100  1
  C  647  1  0.56819000  0.06330200  0.38473900  1
  C  648  1  0.57016500  0.08687300  0.38132800  1
  C  649  1  0.56284500  0.17194000  0.35948400  1
  C  650  1  0.54770500  0.16110100  0.34428600  1
  C  651  1  0.53218300  0.17370100  0.33125500  1
  C  652  1  0.53096300  0.19757800  0.33322000  1
  C  653  1  0.54695200  0.20859900  0.34724400  1
  C  654  1  0.56254700  0.19599300  0.36022400  1
  C  673  1  0.05967200  0.38507100  0.65728900  1
  C  675  1  0.09409500  0.39880800  0.67372600  1
  C  677  1  0.09542500  0.37172200  0.64361500  1
  C  679  1  0.10493900  0.41449400  0.68856700  1
  C  680  1  0.09211900  0.42713200  0.70451200  1
  C  681  1  0.10187800  0.44517700  0.71659900  1
  C  682  1  0.12491700  0.45099800  0.71356000  1
  C  683  1  0.13814100  0.43767200  0.69863100  1
  C  684  1  0.12832900  0.41963200  0.68642100  1
  C  685  1  0.03553500  0.38606700  0.65642200  1
  C  686  1  0.02301100  0.39594500  0.67445900  1
  C  687  1  0.99921600  0.39717900  0.67379500  1
  C  688  1  0.98723000  0.38887300  0.65491500  1
  C  689  1  0.99940300  0.37918800  0.63669700  1
  C  690  1  0.02324700  0.37769500  0.63752000  1
  C  691  1  0.10838200  0.35846000  0.62803300  1
  C  692  1  0.09774600  0.34296400  0.61304100  1
  C  693  1  0.11036000  0.33085600  0.59679400  1
  C  694  1  0.13405600  0.33396200  0.59476000  1
  C  695  1  0.14493400  0.34852200  0.61035700  1
  C  696  1  0.13231000  0.36065100  0.62659800  1
  C  715  1  0.85818200  0.38454900  0.38960500  1
  C  717  1  0.82362000  0.39881700  0.37398100  1
  C  719  1  0.82257000  0.37100200  0.40343700  1
  C  721  1  0.81253200  0.41487500  0.35974700  1
  C  722  1  0.82494900  0.42759900  0.34356500  1
  C  723  1  0.81489700  0.44574800  0.33185900  1
  C  724  1  0.79196900  0.45165400  0.33558500  1
  C  725  1  0.77918900  0.43834700  0.35092200  1
  C  726  1  0.78928100  0.42020300  0.36272300  1
  C  727  1  0.88231800  0.38545700  0.39029900  1
  C  728  1  0.89474800  0.39550000  0.37229300  1
  C  729  1  0.91854400  0.39676900  0.37288500  1
  C  730  1  0.93061100  0.38831600  0.39164800  1
  C  731  1  0.91852900  0.37841000  0.40980800  1
  C  732  1  0.89468900  0.37689000  0.40905800  1
  C  733  1  0.80971700  0.35751600  0.41891000  1
  C  734  1  0.82047500  0.34211700  0.43391400  1
  C  735  1  0.80794900  0.32992000  0.45016600  1
  C  736  1  0.78422200  0.33281000  0.45215200  1
  C  737  1  0.77322700  0.34722100  0.43650500  1
  C  738  1  0.78576200  0.35945900  0.42028600  1
  C  757  1  0.85806200  0.65329900  0.64968400  1
  C  759  1  0.82433400  0.64453400  0.67028100  1
  C  761  1  0.82333100  0.67222500  0.64079800  1
  C  763  1  0.81329800  0.63017400  0.68617800  1
  C  764  1  0.82602600  0.61801200  0.70253000  1
  C  765  1  0.81596700  0.60074600  0.71547900  1
  C  766  1  0.79280000  0.59518900  0.71279800  1
  C  767  1  0.77974300  0.60822200  0.69743400  1
  C  768  1  0.78978500  0.62558800  0.68448100  1
  C  769  1  0.88152100  0.64900000  0.64587300  1
  C  770  1  0.89198000  0.62910200  0.65451000  1
  C  771  1  0.91544000  0.62546900  0.65225800  1
  C  772  1  0.92916800  0.64177300  0.64152800  1
  C  773  1  0.91889400  0.66128100  0.63210900  1
  C  774  1  0.89533800  0.66473400  0.63407900  1
  C  775  1  0.81065400  0.68718700  0.62660500  1
  C  776  1  0.82165100  0.70116800  0.61043600  1
  C  777  1  0.80913600  0.71422300  0.59488900  1
  C  778  1  0.78516400  0.71362400  0.59480600  1
  C  779  1  0.77405200  0.70090900  0.61177300  1
  C  780  1  0.78659400  0.68779600  0.62731200  1
  C  799  1  0.05939500  0.65294300  0.39634800  1
  C  801  1  0.09293500  0.64443700  0.37530100  1
  C  803  1  0.09424400  0.67165800  0.40521800  1
  C  805  1  0.10369800  0.63042000  0.35888800  1
  C  806  1  0.09061200  0.61835100  0.34274200  1
  C  807  1  0.10040100  0.60130000  0.32931900  1
  C  808  1  0.12367400  0.59590300  0.33127200  1
  C  809  1  0.13712000  0.60893200  0.34628700  1
  C  810  1  0.12729900  0.62601700  0.35980100  1
  C  811  1  0.03593300  0.64868400  0.40020100  1
  C  812  1  0.02543400  0.62881100  0.39155900  1
  C  813  1  0.00195600  0.62525500  0.39376000  1
  C  814  1  0.98824500  0.64160000  0.40445500  1
  C  815  1  0.99857000  0.66107000  0.41390100  1
  C  816  1  0.02214400  0.66445300  0.41197800  1
  C  817  1  0.10699400  0.68645400  0.41952500  1
  C  818  1  0.09604900  0.70039300  0.43576700  1
  C  819  1  0.10860400  0.71337800  0.45134100  1
  C  820  1  0.13257300  0.71270800  0.45142500  1
  C  821  1  0.14363700  0.70000400  0.43441300  1
  C  822  1  0.13105300  0.68698000  0.41882500  1
  C  841  1  0.32092200  0.38977300  0.92239600  1
  C  843  1  0.33527800  0.37429500  0.88780600  1
  C  845  1  0.30739700  0.40368900  0.88680100  1
  C  847  1  0.35135600  0.36008300  0.87671600  1
  C  848  1  0.36409000  0.34391100  0.88913600  1
  C  849  1  0.38224900  0.33221900  0.87908800  1
  C  850  1  0.38815400  0.33595100  0.85616300  1
  C  851  1  0.37486500  0.35131000  0.84339500  1
  C  852  1  0.35667500  0.36305900  0.85346200  1
  C  853  1  0.32179400  0.39033600  0.94653900  1
  C  854  1  0.33185900  0.37227900  0.95888300  1
  C  855  1  0.33309100  0.37273100  0.98268500  1
  C  856  1  0.32459200  0.39141000  0.99484900  1
  C  857  1  0.31466700  0.40961800  0.98285600  1
  C  858  1  0.31317900  0.40900700  0.95900800  1
  C  859  1  0.29385100  0.41912300  0.87395500  1
  C  860  1  0.27831900  0.43399700  0.88470200  1
  C  861  1  0.26597900  0.45013800  0.87217000  1
  C  862  1  0.26886800  0.45217600  0.84844400  1
  C  863  1  0.28345000  0.43667300  0.83746600  1
  C  864  1  0.29581100  0.42054500  0.85000400  1
  C  883  1  0.32040100  0.65707500  0.12393500  1
  C  885  1  0.33456600  0.67286400  0.15846400  1
  C  887  1  0.30685300  0.64331500  0.15957400  1
  C  889  1  0.35058800  0.68714900  0.16954100  1
  C  890  1  0.36334000  0.70329000  0.15710100  1
  C  891  1  0.38150200  0.71498800  0.16714300  1
  C  892  1  0.38739100  0.71128900  0.19007900  1
  C  893  1  0.37403600  0.69601600  0.20288700  1
  C  894  1  0.35587900  0.68422900  0.19280800  1
  C  895  1  0.32133900  0.65629800  0.09980000  1
  C  896  1  0.33137100  0.67427500  0.08731800  1
  C  897  1  0.33264000  0.67361900  0.06352300  1
  C  898  1  0.32419800  0.65481500  0.05150800  1
  C  899  1  0.31432000  0.63667700  0.06364300  1
  C  900  1  0.31280100  0.63749100  0.08748000  1
  C  901  1  0.29342100  0.62783000  0.17246700  1
  C  902  1  0.27802300  0.61279700  0.16175000  1
  C  903  1  0.26587800  0.59653700  0.17431100  1
  C  904  1  0.26881700  0.59457000  0.19803400  1
  C  905  1  0.28323200  0.61024200  0.20899000  1
  C  906  1  0.29541800  0.62647100  0.19641900  1
  C  925  1  0.59652000  0.38919800  0.12336000  1
  C  927  1  0.58290000  0.37282200  0.15785500  1
  C  929  1  0.60984000  0.40307100  0.15905600  1
  C  931  1  0.56726500  0.35795400  0.16873400  1
  C  932  1  0.55463100  0.34199100  0.15593500  1
  C  933  1  0.53662800  0.32987600  0.16573200  1
  C  934  1  0.53089300  0.33283300  0.18880400  1
  C  935  1  0.54423300  0.34777700  0.20200100  1
  C  936  1  0.56219100  0.36006500  0.19213900  1
  C  937  1  0.59554900  0.38995600  0.09922300  1
  C  938  1  0.58586600  0.37177400  0.08676000  1
  C  939  1  0.58468100  0.37232300  0.06296000  1
  C  940  1  0.59285500  0.39121900  0.05091100  1
  C  941  1  0.60235000  0.40957900  0.06302400  1
  C  942  1  0.60379600  0.40887200  0.08687400  1
  C  943  1  0.62311200  0.41873800  0.17191100  1
  C  944  1  0.63720000  0.43490300  0.16103300  1
  C  945  1  0.64930800  0.45117900  0.17359000  1
  C  946  1  0.64769800  0.45199800  0.19750300  1
  C  947  1  0.63461100  0.43527300  0.20856100  1
  C  948  1  0.62236900  0.41907600  0.19597400  1
  C  967  1  0.58827500  0.64985700  0.92249800  1
  C  969  1  0.57983300  0.67088300  0.88892400  1
  C  971  1  0.60683900  0.64076600  0.88762600  1
  C  973  1  0.56591000  0.68738800  0.87816500  1
  C  974  1  0.55394200  0.70361000  0.89125300  1
  C  975  1  0.53697300  0.71714200  0.88147200  1
  C  976  1  0.53155200  0.71523100  0.85820100  1
  C  977  1  0.54449000  0.70013900  0.84475000  1
  C  978  1  0.56149300  0.68651400  0.85456400  1
  C  979  1  0.58405700  0.64605100  0.94597200  1
  C  980  1  0.56426700  0.65482400  0.95652100  1
  C  981  1  0.56074200  0.65261300  0.98000200  1
  C  982  1  0.57703600  0.64178200  0.99366800  1
  C  983  1  0.59642800  0.63222800  0.98329800  1
  C  984  1  0.59977700  0.63415900  0.95971900  1
  C  985  1  0.62153500  0.62631600  0.87492000  1
  C  986  1  0.63545300  0.61010000  0.88593600  1
  C  987  1  0.64838900  0.59443100  0.87345400  1
  C  988  1  0.64769700  0.59421700  0.84948800  1
  C  989  1  0.63499300  0.61118100  0.83834700  1
  C  990  1  0.62201000  0.62686400  0.85085900  1
  C  1009  1  0.15488600  0.31629900  0.53788600  1
  C  1011  1  0.16129800  0.31299500  0.49814700  1
  C  1013  1  0.18635900  0.29537100  0.52410000  1
  C  1015  1  0.15450700  0.31820300  0.47575400  1
  C  1016  1  0.20452100  0.28106700  0.52809400  1
  C  1017  1  0.14100800  0.32493900  0.55548000  1
  C  1021  1  0.76355700  0.73124200  0.53821600  1
  C  1023  1  0.75781400  0.73597400  0.49853000  1
  C  1025  1  0.73582500  0.75712200  0.52467700  1
  C  1027  1  0.76428500  0.73024000  0.47617000  1
  C  1028  1  0.72064100  0.77453300  0.52891200  1
  C  1029  1  0.77637500  0.72080100  0.55561100  1
  C  1033  1  0.76339600  0.31535200  0.50909600  1
  C  1035  1  0.75688900  0.31227600  0.54884100  1
  C  1037  1  0.73175800  0.29469700  0.52291600  1
  C  1039  1  0.76366400  0.31760000  0.57121700  1
  C  1040  1  0.71347200  0.28055700  0.51890600  1
  C  1041  1  0.77732100  0.32387200  0.49148300  1
  C  1045  1  0.15398500  0.73097000  0.50792200  1
  C  1047  1  0.15953300  0.73629400  0.54755600  1
  C  1049  1  0.18159800  0.75709800  0.52121600  1
  C  1051  1  0.15304600  0.73086100  0.56997700  1
  C  1052  1  0.19674800  0.77449900  0.51685300  1
  C  1053  1  0.14128900  0.72024500  0.49060400  1
  C  1057  1  0.47414000  0.21906700  0.31603000  1
  C  1059  1  0.43438200  0.22561700  0.31307800  1
  C  1061  1  0.46026400  0.25050200  0.29509000  1
  C  1063  1  0.41201700  0.21890000  0.31850000  1
  C  1064  1  0.46411600  0.26873000  0.28081700  1
  C  1065  1  0.49168100  0.20513700  0.32470400  1
  C  1069  1  0.47414000  0.82733300  0.73043800  1
  C  1071  1  0.43438000  0.82055600  0.73249100  1
  C  1073  1  0.46001400  0.79567800  0.75085500  1
  C  1075  1  0.41208600  0.82726100  0.72673900  1
  C  1076  1  0.46382500  0.77754100  0.76524400  1
  C  1077  1  0.49186300  0.84139000  0.72238500  1
  C  1081  1  0.44467400  0.82807000  0.31514800  1
  C  1083  1  0.48428800  0.82236600  0.30990100  1
  C  1085  1  0.45790700  0.80007500  0.28937000  1
  C  1087  1  0.50671500  0.82885200  0.31532100  1
  C  1088  1  0.45345700  0.78478700  0.27210300  1
  C  1089  1  0.42733200  0.84090100  0.32567300  1
  C  1093  1  0.44471500  0.21773100  0.73174800  1
  C  1095  1  0.48432600  0.22327100  0.73732000  1
  C  1097  1  0.45787000  0.24567900  0.75759000  1
  C  1099  1  0.50677000  0.21678900  0.73197900  1
  C  1100  1  0.45342800  0.26113800  0.77469100  1
  C  1101  1  0.42744700  0.20500400  0.72097000  1
  C  1105  1  0.25135900  0.53762900  0.21886800  1
  C  1107  1  0.24814200  0.49788700  0.22530400  1
  C  1109  1  0.23055800  0.52382200  0.25041100  1
  C  1111  1  0.25335900  0.47550200  0.21850200  1
  C  1112  1  0.21628700  0.52782000  0.26859000  1
  C  1113  1  0.25993200  0.55523600  0.20497200  1
  C  1117  1  0.66666667  0.53775400  0.82852100  1
  C  1119  1  0.67247800  0.49815800  0.82322200  1
  C  1121  1  0.69311000  0.52462600  0.80119300  1
  C  1123  1  0.66723300  0.47571000  0.82973900  1
  C  1124  1  0.71055100  0.52911000  0.78615100  1
  C  1125  1  0.65561000  0.55502800  0.84103300  1
  C  1129  1  0.25105900  0.50897200  0.82751100  1
  C  1131  1  0.24791000  0.54871100  0.82099900  1
  C  1133  1  0.23057200  0.52274900  0.79571600  1
  C  1135  1  0.25317000  0.57109800  0.82778400  1
  C  1136  1  0.21665300  0.51875200  0.77723000  1
  C  1137  1  0.25961100  0.49140300  0.84148900  1
  C  1141  1  0.66666667  0.50852100  0.21829700  1
  C  1143  1  0.67224700  0.54811500  0.22386700  1
  C  1145  1  0.69254700  0.52163000  0.24625100  1
  C  1147  1  0.66699700  0.57057600  0.21736000  1
  C  1148  1  0.70977600  0.51713500  0.26157800  1
  C  1149  1  0.65599000  0.49123900  0.20549800  1
  C  1153  1  0.25022000  0.21773200  0.50919200  1
  C  1155  1  0.24487000  0.22356400  0.54878500  1
  C  1157  1  0.22423200  0.24555100  0.52228500  1
  C  1159  1  0.25035200  0.21719800  0.57122800  1
  C  1160  1  0.20694900  0.26073900  0.51773900  1
  C  1161  1  0.26092300  0.20496800  0.49192100  1
  C  1165  1  0.66568500  0.82701500  0.50765700  1
  C  1167  1  0.66807900  0.82047100  0.54744200  1
  C  1169  1  0.68630400  0.79548100  0.52179900  1
  C  1171  1  0.66246100  0.82725300  0.56974600  1
  C  1172  1  0.70059600  0.77722900  0.51806800  1
  C  1173  1  0.65742800  0.84100800  0.48996600  1
  C  1177  1  0.25115100  0.82748500  0.53824400  1
  C  1179  1  0.24902300  0.82078100  0.49847600  1
  C  1181  1  0.23087000  0.79573400  0.52410200  1
  C  1183  1  0.25473100  0.82749200  0.47618000  1
  C  1184  1  0.21669300  0.77740000  0.52783000  1
  C  1185  1  0.25926500  0.84153800  0.55595300  1
  C  1189  1  0.66703900  0.21772900  0.53757800  1
  C  1191  1  0.67291300  0.22328400  0.49801600  1
  C  1193  1  0.69344700  0.24521300  0.52464300  1
  C  1195  1  0.66764600  0.21685200  0.47553700  1
  C  1196  1  0.71081700  0.26027400  0.52929100  1
  C  1197  1  0.65603400  0.20513100  0.55478300  1
  C  1201  1  0.15434000  0.53805400  0.72998000  1
  C  1203  1  0.15994200  0.49847400  0.73555900  1
  C  1205  1  0.18178500  0.52496500  0.75640000  1
  C  1207  1  0.15353300  0.47601200  0.73022600  1
  C  1208  1  0.19664200  0.52951400  0.77400100  1
  C  1209  1  0.14168900  0.55536900  0.71920700  1
  C  1213  1  0.76243300  0.53851300  0.31642400  1
  C  1215  1  0.75581900  0.49873100  0.31416200  1
  C  1217  1  0.73087000  0.52435500  0.29583900  1
  C  1219  1  0.76257200  0.47644000  0.31988500  1
  C  1220  1  0.71263500  0.52813400  0.28152100  1
  C  1221  1  0.77643500  0.55622000  0.32463400  1
  C  1225  1  0.76354400  0.50836100  0.73134700  1
  C  1227  1  0.75681200  0.54808700  0.73423500  1
  C  1229  1  0.73190800  0.52211500  0.75206500  1
  C  1231  1  0.76348700  0.57047000  0.72885300  1
  C  1232  1  0.71360200  0.51816800  0.76620900  1
  C  1233  1  0.77758800  0.49087200  0.72275300  1
  C  1237  1  0.15296300  0.50916400  0.31434000  1
  C  1239  1  0.15872100  0.54872700  0.30870800  1
  C  1241  1  0.18074800  0.52212200  0.28826600  1
  C  1243  1  0.15231800  0.57119900  0.31401100  1
  C  1244  1  0.19594100  0.51750000  0.27101300  1
  C  1245  1  0.14021700  0.49194700  0.32515300  1
  C  1249  1  0.47495000  0.31624000  0.82683400  1
  C  1251  1  0.43516900  0.31428500  0.82009000  1
  C  1253  1  0.46072200  0.29557700  0.79538000  1
  C  1255  1  0.41290800  0.32017500  0.82678700  1
  C  1256  1  0.46443000  0.28111000  0.77727900  1
  C  1257  1  0.49264500  0.32443700  0.84084600  1
  C  1261  1  0.47439900  0.72949500  0.21972700  1
  C  1263  1  0.43463400  0.73227600  0.22623900  1
  C  1265  1  0.46042700  0.75039200  0.25116600  1
  C  1267  1  0.41229000  0.72681200  0.21946900  1
  C  1268  1  0.46429900  0.76474500  0.26935400  1
  C  1269  1  0.49202900  0.72101500  0.20578800  1
  C  1273  1  0.44404100  0.31487500  0.21798800  1
  C  1275  1  0.48371000  0.31018200  0.22382300  1
  C  1277  1  0.45755200  0.28891800  0.24565500  1
  C  1279  1  0.50607800  0.31593700  0.21744800  1
  C  1280  1  0.45331100  0.27145800  0.26075600  1
  C  1281  1  0.42662900  0.32531300  0.20519600  1
  C  1285  1  0.44483900  0.73214600  0.82885900  1
  C  1287  1  0.48440200  0.73783700  0.82312200  1
  C  1289  1  0.45777200  0.75799100  0.80082500  1
  C  1291  1  0.50688100  0.73257600  0.82955900  1
  C  1292  1  0.45316800  0.77508300  0.78541300  1
  C  1293  1  0.42766400  0.72133600  0.84167600  1
  N  2  1  0.07081400  0.38086600  0.40493700  1
  N  4  1  0.10455700  0.39004200  0.38693900  1
  N  6  1  0.07138700  0.40960000  0.37812800  1
  N  37  1  0.13294900  0.32504400  0.47100000  1
  N  39  1  0.14387300  0.46931200  0.32208600  1
  N  41  1  0.96436800  0.40351900  0.40762600  1
  N  44  1  0.84675200  0.67216200  0.39830600  1
  N  46  1  0.81201800  0.65915800  0.38546000  1
  N  48  1  0.84544700  0.64331200  0.37164300  1
  N  79  1  0.78526700  0.72164100  0.47166200  1
  N  81  1  0.77103600  0.57867000  0.32315300  1
  N  83  1  0.95449300  0.65530300  0.38931100  1
  N  86  1  0.84701600  0.38064500  0.64228300  1
  N  88  1  0.81321500  0.38936500  0.66034100  1
  N  90  1  0.84622900  0.40911400  0.66940000  1
  N  121  1  0.78518800  0.32457900  0.57595000  1
  N  123  1  0.77297700  0.46830300  0.72494200  1
  N  125  1  0.95324900  0.40402800  0.63925400  1
  N  128  1  0.07065000  0.67260300  0.64761400  1
  N  130  1  0.10537400  0.65927000  0.66022400  1
  N  132  1  0.07190300  0.64322600  0.67365900  1
  N  163  1  0.13203700  0.72240500  0.57459200  1
  N  165  1  0.14596300  0.57795100  0.72176800  1
  N  167  1  0.96290300  0.65543400  0.65663700  1
  N  170  1  0.34084300  0.13547500  0.38118600  1
  N  172  1  0.32284000  0.16926200  0.39019500  1
  N  174  1  0.31386600  0.13613400  0.40975200  1
  N  205  1  0.40727800  0.19739100  0.32551500  1
  N  207  1  0.25782300  0.20867500  0.46929800  1
  N  209  1  0.34326100  0.02908100  0.40407500  1
  N  212  1  0.33372100  0.91124600  0.67163800  1
  N  214  1  0.32055600  0.87669100  0.65846000  1
  N  216  1  0.30658800  0.91028900  0.64317000  1
  N  247  1  0.40739600  0.84875400  0.71962300  1
  N  249  1  0.25764300  0.83619500  0.57840300  1
  N  251  1  0.32502200  0.01913500  0.65560600  1
  N  254  1  0.58406200  0.91139000  0.37381000  1
  N  256  1  0.59698900  0.87667900  0.38679700  1
  N  258  1  0.61042800  0.91012600  0.40293600  1
  N  289  1  0.51137100  0.84994500  0.32355200  1
  N  291  1  0.65894800  0.83565300  0.46751000  1
  N  293  1  0.59262900  0.01915400  0.39085200  1
  N  296  1  0.57691200  0.13503500  0.66602700  1
  N  298  1  0.59470000  0.16895800  0.65710600  1
  N  300  1  0.60332200  0.13605500  0.63697500  1
  N  331  1  0.51142800  0.19567700  0.72382600  1
  N  333  1  0.65889300  0.20889600  0.57742800  1
  N  335  1  0.57445700  0.02881400  0.64273600  1
  N  338  1  0.31622900  0.40452000  0.13504700  1
  N  340  1  0.32502300  0.38642200  0.16883500  1
  N  342  1  0.34476500  0.37750200  0.13580500  1
  N  373  1  0.26028200  0.47077100  0.19696200  1
  N  375  1  0.40404800  0.32170900  0.20870300  1
  N  377  1  0.33966800  0.40717000  0.02876200  1
  N  380  1  0.60220700  0.40411200  0.91103900  1
  N  382  1  0.59413700  0.38614700  0.87703100  1
  N  384  1  0.57387900  0.37690800  0.90971100  1
  N  415  1  0.65880000  0.47110000  0.85075200  1
  N  417  1  0.51515300  0.32198000  0.83606000  1
  N  419  1  0.57758900  0.40665100  0.01690600  1
  N  422  1  0.31649300  0.64157400  0.91131800  1
  N  424  1  0.32567400  0.65950800  0.87754700  1
  N  426  1  0.34537000  0.66823100  0.91066100  1
  N  457  1  0.26001100  0.57586500  0.84934200  1
  N  459  1  0.40500600  0.72416800  0.83796000  1
  N  461  1  0.33932700  0.63879100  0.01772000  1
  N  464  1  0.60845800  0.64817300  0.13509300  1
  N  466  1  0.59549000  0.66098700  0.16986100  1
  N  468  1  0.57926700  0.67445000  0.13647300  1
  N  499  1  0.65869600  0.57527800  0.19630700  1
  N  501  1  0.51450400  0.72253300  0.21105800  1
  N  503  1  0.59088100  0.65681400  0.02740400  1
  N  506  1  0.31620900  0.13534800  0.64138400  1
  N  508  1  0.32525900  0.16926000  0.65912100  1
  N  510  1  0.34524500  0.13628100  0.66781600  1
  N  541  1  0.25842900  0.19606200  0.57592800  1
  N  543  1  0.40481400  0.20894900  0.72369500  1
  N  545  1  0.33919800  0.02901600  0.63887900  1
  N  548  1  0.60752400  0.91121200  0.64826100  1
  N  550  1  0.59439200  0.87663400  0.66141900  1
  N  552  1  0.57910000  0.91020200  0.67543900  1
  N  583  1  0.65527500  0.84873200  0.57439700  1
  N  585  1  0.51431200  0.83612400  0.72426000  1
  N  587  1  0.59117500  0.01903600  0.65699200  1
  N  590  1  0.31045100  0.91134900  0.39828500  1
  N  592  1  0.32399800  0.87681800  0.38537700  1
  N  594  1  0.33947200  0.91046800  0.37177400  1
  N  625  1  0.26178800  0.84899300  0.47146300  1
  N  627  1  0.40475100  0.83666900  0.32304100  1
  N  629  1  0.32663600  0.01924800  0.38974900  1
  N  632  1  0.60209800  0.13528700  0.40460400  1
  N  634  1  0.59356200  0.16927400  0.38680500  1
  N  636  1  0.57340400  0.13647200  0.37777800  1
  N  667  1  0.65939500  0.19578100  0.47083700  1
  N  669  1  0.51423300  0.20993000  0.32270000  1
  N  671  1  0.57821300  0.02920300  0.40726800  1
  N  674  1  0.07113700  0.39825400  0.67226100  1
  N  676  1  0.10580700  0.38550200  0.65898200  1
  N  678  1  0.07229200  0.37202900  0.64301400  1
  N  709  1  0.13248000  0.47128800  0.72194700  1
  N  711  1  0.14640400  0.32360500  0.57794000  1
  N  713  1  0.96332600  0.38963000  0.65566500  1
  N  716  1  0.84659900  0.39816200  0.37509900  1
  N  718  1  0.81206900  0.38519400  0.38854900  1
  N  720  1  0.84570200  0.37122300  0.40374400  1
  N  751  1  0.78405500  0.47178600  0.32706100  1
  N  753  1  0.77193000  0.32249700  0.46902800  1
  N  755  1  0.95450300  0.38928500  0.39094000  1
  N  758  1  0.84672900  0.64158300  0.66591400  1
  N  760  1  0.81293300  0.65968600  0.65717700  1
  N  762  1  0.84592700  0.66858700  0.63736400  1
  N  793  1  0.78501000  0.57526600  0.72192000  1
  N  795  1  0.77286200  0.72431500  0.57820300  1
  N  797  1  0.95295300  0.63885500  0.64234200  1
  N  800  1  0.07056800  0.64148800  0.37983300  1
  N  802  1  0.10449100  0.65936800  0.38853900  1
  N  804  1  0.07166600  0.66801700  0.40878500  1
  N  835  1  0.13118000  0.57592700  0.32206900  1
  N  837  1  0.14490900  0.72344000  0.46798200  1
  N  839  1  0.96444600  0.63872700  0.40361000  1
  N  842  1  0.33457700  0.37533500  0.91078300  1
  N  844  1  0.32163600  0.38886100  0.87627400  1
  N  846  1  0.30757800  0.40392400  0.90994000  1
  N  877  1  0.40827700  0.32741500  0.84825100  1
  N  879  1  0.25833800  0.46893000  0.83613900  1
  N  881  1  0.32548300  0.39053500  0.01874300  1
  N  884  1  0.33395000  0.67166800  0.13548700  1
  N  886  1  0.32098200  0.65828400  0.17004400  1
  N  888  1  0.30710500  0.64293500  0.13644400  1
  N  919  1  0.40757100  0.71972000  0.19797500  1
  N  921  1  0.25854400  0.57769300  0.21035200  1
  N  923  1  0.32511800  0.65548400  0.02761000  1
  N  926  1  0.58341900  0.37421200  0.13489000  1
  N  928  1  0.59615500  0.38766400  0.16950900  1
  N  930  1  0.60949000  0.40358000  0.13592200  1
  N  961  1  0.51066900  0.32435100  0.19642000  1
  N  963  1  0.65832100  0.46864000  0.20982800  1
  N  965  1  0.59213400  0.39038500  0.02701200  1
  N  968  1  0.57690600  0.66642400  0.91131300  1
  N  970  1  0.59464400  0.65750800  0.87736000  1
  N  972  1  0.60322500  0.63728700  0.91021800  1
  N  1003  1  0.51161300  0.72454300  0.85070800  1
  N  1005  1  0.65852700  0.57766000  0.83723200  1
  N  1007  1  0.57421400  0.64260400  0.01747400  1
  N  1010  1  0.14908000  0.32071700  0.51605800  1
  N  1012  1  0.18006200  0.30041000  0.50247300  1
  N  1014  1  0.17361600  0.30335400  0.54165100  1
  N  1022  1  0.76855800  0.72616800  0.51634900  1
  N  1024  1  0.74143800  0.75154000  0.50297400  1
  N  1026  1  0.74725300  0.74707900  0.54210600  1
  N  1034  1  0.76918000  0.31984200  0.53091300  1
  N  1036  1  0.73804800  0.29979000  0.54453400  1
  N  1038  1  0.74458400  0.30252300  0.50535800  1
  N  1046  1  0.14888500  0.72620200  0.52983700  1
  N  1048  1  0.17589500  0.75182000  0.54296500  1
  N  1050  1  0.17027300  0.74678700  0.50387600  1
  N  1058  1  0.45232500  0.21338700  0.32068100  1
  N  1060  1  0.43866600  0.24431200  0.30038400  1
  N  1062  1  0.47785900  0.23773500  0.30297000  1
  N  1070  1  0.45241000  0.83295100  0.72536100  1
  N  1072  1  0.43848900  0.80181000  0.74520000  1
  N  1074  1  0.47767800  0.80860100  0.74343900  1
  N  1082  1  0.46659300  0.83319600  0.31984900  1
  N  1084  1  0.47966800  0.80580500  0.29458500  1
  N  1086  1  0.44060900  0.81157400  0.29955100  1
  N  1094  1  0.46666100  0.21252500  0.72722800  1
  N  1096  1  0.47965100  0.23987600  0.75255400  1
  N  1098  1  0.44058300  0.23425900  0.74729700  1
  N  1106  1  0.25579900  0.51580800  0.21306000  1
  N  1108  1  0.23560300  0.50220100  0.24410600  1
  N  1110  1  0.23846500  0.54138000  0.23763600  1
  N  1118  1  0.66208000  0.51580600  0.83370400  1
  N  1120  1  0.68805900  0.50284300  0.80695000  1
  N  1122  1  0.68250700  0.54190200  0.81233400  1
  N  1130  1  0.25543600  0.53080000  0.83333500  1
  N  1132  1  0.23559300  0.54437100  0.80205800  1
  N  1134  1  0.23837700  0.50520500  0.80859400  1
  N  1142  1  0.66215400  0.53046700  0.21309400  1
  N  1144  1  0.68751400  0.54341300  0.24044600  1
  N  1146  1  0.68222700  0.50437200  0.23480900  1
  N  1154  1  0.25493800  0.21274900  0.53114300  1
  N  1156  1  0.22945000  0.23999600  0.54408800  1
  N  1158  1  0.23449900  0.23407600  0.50503200  1
  N  1166  1  0.66078800  0.83274700  0.52940100  1
  N  1168  1  0.68077400  0.80172300  0.54332600  1
  N  1170  1  0.67869500  0.80827900  0.50411400  1
  N  1178  1  0.25612900  0.83317900  0.51650900  1
  N  1180  1  0.23646000  0.80194500  0.50258500  1
  N  1182  1  0.23827800  0.80865600  0.54178000  1
  N  1190  1  0.66253700  0.21266400  0.51559600  1
  N  1192  1  0.68843500  0.23959400  0.50280900  1
  N  1194  1  0.68287500  0.23393700  0.54184000  1
  N  1202  1  0.14929500  0.51610600  0.72529900  1
  N  1204  1  0.17617500  0.50317500  0.75119400  1
  N  1206  1  0.17050000  0.54220600  0.74589700  1
  N  1214  1  0.76812600  0.51677600  0.32139500  1
  N  1216  1  0.73707800  0.50283500  0.30144500  1
  N  1218  1  0.74370800  0.54203700  0.30339900  1
  N  1226  1  0.76916100  0.53019100  0.72671700  1
  N  1228  1  0.73804700  0.54373500  0.74680200  1
  N  1230  1  0.74480900  0.50457300  0.74428500  1
  N  1238  1  0.14793900  0.53114100  0.31890400  1
  N  1240  1  0.17516100  0.54395100  0.29332200  1
  N  1242  1  0.16930700  0.50491700  0.29864500  1
  N  1250  1  0.45323600  0.32145800  0.83239500  1
  N  1252  1  0.43922400  0.30139500  0.80146300  1
  N  1254  1  0.47843300  0.30304800  0.80822600  1
  N  1262  1  0.45261600  0.72476400  0.21400500  1
  N  1264  1  0.43885600  0.74501400  0.24493600  1
  N  1266  1  0.47804400  0.74256500  0.23840100  1
  N  1274  1  0.46591100  0.32000600  0.21305500  1
  N  1276  1  0.47925600  0.29455100  0.24012400  1
  N  1278  1  0.44013900  0.29897600  0.23422600  1
  N  1286  1  0.46682000  0.72769700  0.83395900  1
  N  1288  1  0.47960400  0.75304000  0.80651900  1
  N  1290  1  0.44057700  0.74766800  0.81234400  1
  O  1018  1  0.21844300  0.28767800  0.54205000  1
  O  1019  1  0.12226700  0.33660200  0.54897800  1
  O  1020  1  0.16974500  0.31506700  0.45885000  1
  O  1030  1  0.72705300  0.78867300  0.54277000  1
  O  1031  1  0.79250600  0.70582600  0.54888100  1
  O  1032  1  0.74971600  0.73507900  0.45908400  1
  O  1042  1  0.69967400  0.28724700  0.50486600  1
  O  1043  1  0.79597000  0.33569300  0.49796700  1
  O  1044  1  0.74845100  0.31440900  0.58813400  1
  O  1054  1  0.19033400  0.78848800  0.50284700  1
  O  1055  1  0.12514400  0.70534000  0.49745800  1
  O  1056  1  0.16765100  0.73581600  0.58700100  1
  O  1066  1  0.47825800  0.28252600  0.28729200  1
  O  1067  1  0.48504400  0.18700200  0.33722400  1
  O  1068  1  0.39510300  0.23411300  0.31529200  1
  O  1078  1  0.47805800  0.76375700  0.75893800  1
  O  1079  1  0.48553700  0.86006000  0.71050800  1
  O  1080  1  0.39513200  0.81208700  0.72993100  1
  O  1090  1  0.43943400  0.79113500  0.25809700  1
  O  1091  1  0.43410000  0.85772400  0.33984200  1
  O  1092  1  0.52369900  0.81410400  0.31066800  1
  O  1102  1  0.43936300  0.25498000  0.78873700  1
  O  1103  1  0.43439000  0.18853200  0.70647100  1
  O  1104  1  0.52372100  0.23165100  0.73638300  1
  O  1114  1  0.22291400  0.54177900  0.28250200  1
  O  1115  1  0.27177200  0.54875100  0.18633500  1
  O  1116  1  0.25014700  0.45858200  0.23370700  1
  O  1126  1  0.72440400  0.54321000  0.79266000  1
  O  1127  1  0.64075200  0.54811800  0.85719300  1
  O  1128  1  0.67217200  0.45870500  0.81510800  1
  O  1138  1  0.22331700  0.50440200  0.76374000  1
  O  1139  1  0.27123800  0.49796300  0.86023500  1
  O  1140  1  0.25013100  0.58799100  0.81251200  1
  O  1150  1  0.72368900  0.50298400  0.25532000  1
  O  1151  1  0.64192000  0.49810800  0.18862900  1
  O  1152  1  0.67181200  0.58753700  0.23208400  1
  O  1162  1  0.19268200  0.25406200  0.50413900  1
  O  1163  1  0.27567600  0.18870600  0.49882400  1
  O  1164  1  0.24611200  0.23215500  0.58813400  1
  O  1174  1  0.69420400  0.76342700  0.50389200  1
  O  1175  1  0.64569800  0.85974600  0.49636700  1
  O  1176  1  0.66581700  0.81216000  0.58674100  1
  O  1186  1  0.22305300  0.76376200  0.54217900  1
  O  1187  1  0.27102700  0.86026700  0.54958700  1
  O  1188  1  0.25157300  0.81229700  0.45923600  1
  O  1198  1  0.72495300  0.25349900  0.54297700  1
  O  1199  1  0.64119200  0.18898900  0.54779000  1
  O  1200  1  0.67233700  0.23164600  0.45860500  1
  O  1210  1  0.18988900  0.54351200  0.78783900  1
  O  1211  1  0.12493500  0.54857900  0.70496800  1
  O  1212  1  0.16828400  0.45907300  0.73503300  1
  O  1222  1  0.69906900  0.54262100  0.28771400  1
  O  1223  1  0.79521300  0.54983900  0.33631100  1
  O  1224  1  0.74744100  0.45945600  0.31665900  1
  O  1234  1  0.70008100  0.50373900  0.75978300  1
  O  1235  1  0.79557100  0.49756700  0.71004300  1
  O  1236  1  0.74823300  0.58734500  0.73207400  1
  O  1246  1  0.18923500  0.50390400  0.25675700  1
  O  1247  1  0.12402200  0.49891600  0.33994700  1
  O  1248  1  0.16722300  0.58810100  0.30956400  1
  O  1258  1  0.47883700  0.28720700  0.76358100  1
  O  1259  1  0.48623700  0.33703100  0.85901500  1
  O  1260  1  0.39591300  0.31694400  0.81166900  1
  O  1270  1  0.47865700  0.75845500  0.28301300  1
  O  1271  1  0.48555400  0.70918300  0.18714100  1
  O  1272  1  0.39533400  0.73018900  0.23460100  1
  O  1282  1  0.43948700  0.25732600  0.25425100  1
  O  1283  1  0.43333300  0.34026000  0.18902700  1
  O  1284  1  0.52310700  0.31121000  0.23212500  1
  O  1294  1  0.43928500  0.78922000  0.79177100  1
  O  1295  1  0.43470600  0.70660200  0.85789200  1
  O  1296  1  0.52377600  0.73691400  0.81461600  1
