# generated using pymatgen
data_H13C18(NO)4
_symmetry_space_group_name_H-M   'P 1'
_cell_length_a   22.47110000
_cell_length_b   61.08300000
_cell_length_c   61.08300000
_cell_angle_alpha   90.00000000
_cell_angle_beta   90.00000000
_cell_angle_gamma   90.00000000
_symmetry_Int_Tables_number   1
_chemical_formula_structural   H13C18(NO)4
_chemical_formula_sum   'H416 C576 N128 O128'
_cell_volume   83842.66026201
_cell_formula_units_Z   32
loop_
 _symmetry_equiv_pos_site_id
 _symmetry_equiv_pos_as_xyz
  1  'x, y, z'
loop_
 _atom_site_type_symbol
 _atom_site_label
 _atom_site_symmetry_multiplicity
 _atom_site_fract_x
 _atom_site_fract_y
 _atom_site_fract_z
 _atom_site_occupancy
  C  1  1  0.27207100  0.07964100  0.00352000  1
  C  2  1  0.31076200  0.06133200  0.00332500  1
  C  3  1  0.36793800  0.06183900  0.99349700  1
  C  4  1  0.38442100  0.08130600  0.98228100  1
  C  5  1  0.34709400  0.09990900  0.98241800  1
  C  6  1  0.29156300  0.09917200  0.99315900  1
  C  9  1  0.21504400  0.07847100  0.01350200  1
  C  10  1  0.17427600  0.06106100  0.00961800  1
  C  11  1  0.11800400  0.06036200  0.02031700  1
  C  12  1  0.10410600  0.07719200  0.03558000  1
  C  13  1  0.14295100  0.09507500  0.03921500  1
  C  14  1  0.19794600  0.09524200  0.02812700  1
  C  31  1  0.77221300  0.41864600  0.99475700  1
  C  32  1  0.81090700  0.43695600  0.99494900  1
  C  33  1  0.86806800  0.43645200  0.00478900  1
  C  34  1  0.88452000  0.41699100  0.01602100  1
  C  35  1  0.84718900  0.39839000  0.01588500  1
  C  36  1  0.79166900  0.39912200  0.00513700  1
  C  39  1  0.71521400  0.41981400  0.98475300  1
  C  40  1  0.67441800  0.43721600  0.98863000  1
  C  41  1  0.61814900  0.43789900  0.97792800  1
  C  42  1  0.60426000  0.42105100  0.96268300  1
  C  43  1  0.64313800  0.40317700  0.95904900  1
  C  44  1  0.69816200  0.40304600  0.97011700  1
  C  61  1  0.52192500  0.24561800  0.84135300  1
  C  62  1  0.56214800  0.24619900  0.82352600  1
  C  63  1  0.61738100  0.25739400  0.82442000  1
  C  64  1  0.62962600  0.26977200  0.84360200  1
  C  65  1  0.59044000  0.26940200  0.86169400  1
  C  66  1  0.53737200  0.25710100  0.86073000  1
  C  69  1  0.46712400  0.23417000  0.83977300  1
  C  70  1  0.42695100  0.23698700  0.82199600  1
  C  71  1  0.37277900  0.22495400  0.82089100  1
  C  72  1  0.36099900  0.20926900  0.83754500  1
  C  73  1  0.39971500  0.20638300  0.85563200  1
  C  74  1  0.45212400  0.21905800  0.85637000  1
  C  91  1  0.02198800  0.25264600  0.15697300  1
  C  92  1  0.06213600  0.25207200  0.17482300  1
  C  93  1  0.11732200  0.24084300  0.17397800  1
  C  94  1  0.12957300  0.22841900  0.15482600  1
  C  95  1  0.09048900  0.22880200  0.13670500  1
  C  96  1  0.03748600  0.24114400  0.13761300  1
  C  99  1  0.96717600  0.26409100  0.15852100  1
  C  100  1  0.92697000  0.26128500  0.17629000  1
  C  101  1  0.87279600  0.27331600  0.17737000  1
  C  102  1  0.86107800  0.28900800  0.16071800  1
  C  103  1  0.89980800  0.29187200  0.14262800  1
  C  104  1  0.95218600  0.27917600  0.14189700  1
  C  121  1  0.71390000  0.90719800  0.99881700  1
  C  122  1  0.66890500  0.92344000  0.99853900  1
  C  123  1  0.61389000  0.92101800  0.00968100  1
  C  124  1  0.60675600  0.90207900  0.02294400  1
  C  125  1  0.65079200  0.88557100  0.02352600  1
  C  126  1  0.70370300  0.88798500  0.01133400  1
  C  129  1  0.76649500  0.90984800  0.98618900  1
  C  130  1  0.80157800  0.92924300  0.98666200  1
  C  131  1  0.85347300  0.93132400  0.97346700  1
  C  132  1  0.86627600  0.91451600  0.95808300  1
  C  133  1  0.83189000  0.89511800  0.95719700  1
  C  134  1  0.78436800  0.89273100  0.97208000  1
  C  151  1  0.21409900  0.59106700  0.99935700  1
  C  152  1  0.16912800  0.57481700  0.99962500  1
  C  153  1  0.11413600  0.57722900  0.98846600  1
  C  154  1  0.10703000  0.59615600  0.97518400  1
  C  155  1  0.15105900  0.61266600  0.97460400  1
  C  156  1  0.20394100  0.61026600  0.98681400  1
  C  159  1  0.26666600  0.58843300  0.01200300  1
  C  160  1  0.30181700  0.56905500  0.01152900  1
  C  161  1  0.35373400  0.56700200  0.02471900  1
  C  162  1  0.36649200  0.58382200  0.04009900  1
  C  163  1  0.33201700  0.60319900  0.04099200  1
  C  164  1  0.28444500  0.60555100  0.02612700  1
  C  181  1  0.47209600  0.74750200  0.16854400  1
  C  182  1  0.43409700  0.74768500  0.18704200  1
  C  183  1  0.37682400  0.73798200  0.18699100  1
  C  184  1  0.35967500  0.72633600  0.16787800  1
  C  185  1  0.39622400  0.72601200  0.14903200  1
  C  186  1  0.45155200  0.73701800  0.14920300  1
  C  189  1  0.52938600  0.75730800  0.16953000  1
  C  190  1  0.57014000  0.75326100  0.18691900  1
  C  191  1  0.62625000  0.76404000  0.18782600  1
  C  192  1  0.64017400  0.77941400  0.17111300  1
  C  193  1  0.60135400  0.78325300  0.15326000  1
  C  194  1  0.54647400  0.77206900  0.15287300  1
  C  211  1  0.97230100  0.75076600  0.82967500  1
  C  212  1  0.93421400  0.75056700  0.81120100  1
  C  213  1  0.87696300  0.76028500  0.81127300  1
  C  214  1  0.85991900  0.77196100  0.83038100  1
  C  215  1  0.89652400  0.77228000  0.84921300  1
  C  216  1  0.95184200  0.76126700  0.84902100  1
  C  219  1  0.02958800  0.74096500  0.82866200  1
  C  220  1  0.07024900  0.74499200  0.81123700  1
  C  221  1  0.12636100  0.73421900  0.81030500  1
  C  222  1  0.14034300  0.71884300  0.82701000  1
  C  223  1  0.10162800  0.71503000  0.84490200  1
  C  224  1  0.04678300  0.72623800  0.84533100  1
  C  241  1  0.77630700  0.57957300  0.49898600  1
  C  242  1  0.81404900  0.56099900  0.49887200  1
  C  243  1  0.87124400  0.56106700  0.48910300  1
  C  244  1  0.88867200  0.58033100  0.47776400  1
  C  245  1  0.85242700  0.59925100  0.47777300  1
  C  246  1  0.79709400  0.59901900  0.48876300  1
  C  249  1  0.71894200  0.57858100  0.50873900  1
  C  250  1  0.67795900  0.56130000  0.50451600  1
  C  251  1  0.62163300  0.56047300  0.51515400  1
  C  252  1  0.60773800  0.57714100  0.53058300  1
  C  253  1  0.64683900  0.59485600  0.53461800  1
  C  254  1  0.70189600  0.59518500  0.52356400  1
  C  271  1  0.27615000  0.91864600  0.49929600  1
  C  272  1  0.31389000  0.93722100  0.49939200  1
  C  273  1  0.37108300  0.93716200  0.50916600  1
  C  274  1  0.38850200  0.91790600  0.52052300  1
  C  275  1  0.35224200  0.89899300  0.52053600  1
  C  276  1  0.29689900  0.89921500  0.50955600  1
  C  279  1  0.21882100  0.91962000  0.48951900  1
  C  280  1  0.17779500  0.93688900  0.49372300  1
  C  281  1  0.12149100  0.93768900  0.48306700  1
  C  282  1  0.10764400  0.92100900  0.46765000  1
  C  283  1  0.14678800  0.90330300  0.46363300  1
  C  284  1  0.20185300  0.90301000  0.47468500  1
  C  301  1  0.03031400  0.74820300  0.34104900  1
  C  302  1  0.07493900  0.74772000  0.32467600  1
  C  303  1  0.12988100  0.75897800  0.32676500  1
  C  304  1  0.13722700  0.77261900  0.34541800  1
  C  305  1  0.09353200  0.77340900  0.36203200  1
  C  306  1  0.04073500  0.76109300  0.35999500  1
  C  309  1  0.97813100  0.73526100  0.33888600  1
  C  310  1  0.94247000  0.73509100  0.31962900  1
  C  311  1  0.89113000  0.72152900  0.31804700  1
  C  312  1  0.87935100  0.70651500  0.33528300  1
  C  313  1  0.91435600  0.70628900  0.35453700  1
  C  314  1  0.96143800  0.72142000  0.35637600  1
  C  331  1  0.53023100  0.74995600  0.65718700  1
  C  332  1  0.57476000  0.75047500  0.67359400  1
  C  333  1  0.62967600  0.73918200  0.67158700  1
  C  334  1  0.63709300  0.72548000  0.65298500  1
  C  335  1  0.59350800  0.72466100  0.63633700  1
  C  336  1  0.54073200  0.73699800  0.63829000  1
  C  339  1  0.47800600  0.76288900  0.65926500  1
  C  340  1  0.44222500  0.76313200  0.67849300  1
  C  341  1  0.39073200  0.77663000  0.67994500  1
  C  342  1  0.37885100  0.79150600  0.66260100  1
  C  343  1  0.41400600  0.79167000  0.64338800  1
  C  344  1  0.46129600  0.77661200  0.64168400  1
  C  361  1  0.21801600  0.40678200  0.49748500  1
  C  362  1  0.17308400  0.42303200  0.49661400  1
  C  363  1  0.11799600  0.42100200  0.50780400  1
  C  364  1  0.11067800  0.40249000  0.52164700  1
  C  365  1  0.15468300  0.38602400  0.52282400  1
  C  366  1  0.20773100  0.38802900  0.51067400  1
  C  369  1  0.27117300  0.40895600  0.48509000  1
  C  370  1  0.30663100  0.42828100  0.48513000  1
  C  371  1  0.35982500  0.42962300  0.47252600  1
  C  372  1  0.37457700  0.41190600  0.45847100  1
  C  373  1  0.33971600  0.39267500  0.45807600  1
  C  374  1  0.28986300  0.39120000  0.47194800  1
  C  391  1  0.71791200  0.09134000  0.50073600  1
  C  392  1  0.67288100  0.07512400  0.50157500  1
  C  393  1  0.61785500  0.07719900  0.49035400  1
  C  394  1  0.61072100  0.09571100  0.47650100  1
  C  395  1  0.65483100  0.11214400  0.47535100  1
  C  396  1  0.70781500  0.11009700  0.48753300  1
  C  399  1  0.77093000  0.08911900  0.51320000  1
  C  400  1  0.80622600  0.06975900  0.51320800  1
  C  401  1  0.85921600  0.06834500  0.52591400  1
  C  402  1  0.87379400  0.08600000  0.54007100  1
  C  403  1  0.83910600  0.10528300  0.54043600  1
  C  404  1  0.78956600  0.10683500  0.52640800  1
  C  421  1  0.96342800  0.25169000  0.66867200  1
  C  422  1  0.92101300  0.25145300  0.68580700  1
  C  423  1  0.86542600  0.24063300  0.68398700  1
  C  424  1  0.85525300  0.22806200  0.66478800  1
  C  425  1  0.89647700  0.22812600  0.64729400  1
  C  426  1  0.94972600  0.24028400  0.64904400  1
  C  429  1  0.01801000  0.26313400  0.67111100  1
  C  430  1  0.05618100  0.26023300  0.68947800  1
  C  431  1  0.11034000  0.27215600  0.69136900  1
  C  432  1  0.12421200  0.28788000  0.67499400  1
  C  433  1  0.08789700  0.29062600  0.65625400  1
  C  434  1  0.03529700  0.27813900  0.65471500  1
  C  451  1  0.46363200  0.24657700  0.32959600  1
  C  452  1  0.42106000  0.24677400  0.31251400  1
  C  453  1  0.36555800  0.25765100  0.31435900  1
  C  454  1  0.35565200  0.27031400  0.33351300  1
  C  455  1  0.39703300  0.27028300  0.35095800  1
  C  456  1  0.45019100  0.25807700  0.34919300  1
  C  459  1  0.51815200  0.23510000  0.32713200  1
  C  460  1  0.55617100  0.23793200  0.30871400  1
  C  461  1  0.61028500  0.22598600  0.30680500  1
  C  462  1  0.62420500  0.21027800  0.32318800  1
  C  463  1  0.58803400  0.20760100  0.34197900  1
  C  464  1  0.53553600  0.22014500  0.34356200  1
  C  481  1  0.03018400  0.01333000  0.99789900  1
  C  482  1  0.02648600  0.99829300  0.01559600  1
  C  483  1  0.98848400  0.97968400  0.01461500  1
  C  484  1  0.95325900  0.97524600  0.99572000  1
  C  485  1  0.95939100  0.98995700  0.97791100  1
  C  486  1  0.99737600  0.00819400  0.97881700  1
  C  488  1  0.02440000  0.96822900  0.05022600  1
  C  489  1  0.06299900  0.98651600  0.05093500  1
  C  493  1  0.02014000  0.95146200  0.06758600  1
  C  497  1  0.10485700  0.99193700  0.06880700  1
  C  501  1  0.06601800  0.03251200  0.99854200  1
  C  502  1  0.91313200  0.95720200  0.99434300  1
  C  505  1  0.53033400  0.48495100  0.00031700  1
  C  506  1  0.52662700  0.49996900  0.98260300  1
  C  507  1  0.48866200  0.51859100  0.98357900  1
  C  508  1  0.45349700  0.52305800  0.00248100  1
  C  509  1  0.45964300  0.50836500  0.02030400  1
  C  510  1  0.49758800  0.49011500  0.01940500  1
  C  512  1  0.52449800  0.52999200  0.94793900  1
  C  513  1  0.56305600  0.51169400  0.94723700  1
  C  517  1  0.52022300  0.54674100  0.93056100  1
  C  521  1  0.60485000  0.50624000  0.92935500  1
  C  525  1  0.56614800  0.46576800  0.99969400  1
  C  526  1  0.41340900  0.54111400  0.00385000  1
  C  529  1  0.28241000  0.24619300  0.77386100  1
  C  530  1  0.27926400  0.22851800  0.75875200  1
  C  531  1  0.24143800  0.22945000  0.74007800  1
  C  532  1  0.20634700  0.24833100  0.73556400  1
  C  533  1  0.21159100  0.26606200  0.75039600  1
  C  534  1  0.24897600  0.26514700  0.76877100  1
  C  536  1  0.27802300  0.19401500  0.72849700  1
  C  537  1  0.31650200  0.19332500  0.74682600  1
  C  541  1  0.27429300  0.17672300  0.71163800  1
  C  545  1  0.35869000  0.17554100  0.75219200  1
  C  549  1  0.31824600  0.24583900  0.79305800  1
  C  550  1  0.16716000  0.24993400  0.71729200  1
  C  553  1  0.78231200  0.25203200  0.22433100  1
  C  554  1  0.77927400  0.26965900  0.23950000  1
  C  555  1  0.74148200  0.26868500  0.25818300  1
  C  556  1  0.70630200  0.24981200  0.26263900  1
  C  557  1  0.71143700  0.23213000  0.24774500  1
  C  558  1  0.74879400  0.23308300  0.22936300  1
  C  560  1  0.77827600  0.30405500  0.26988000  1
  C  561  1  0.81671000  0.30478500  0.25154000  1
  C  565  1  0.77467800  0.32128700  0.28680300  1
  C  569  1  0.85897600  0.32255900  0.24622200  1
  C  573  1  0.81813900  0.25242800  0.20513400  1
  C  574  1  0.66713600  0.24817000  0.28091600  1
  C  577  1  0.94102500  0.49105100  0.99582100  1
  C  578  1  0.95647000  0.49823500  0.01722200  1
  C  579  1  0.99446300  0.51659000  0.02053100  1
  C  580  1  0.01786100  0.52866700  0.00252400  1
  C  581  1  0.99960700  0.52188100  0.98136400  1
  C  582  1  0.96163000  0.50391900  0.97812600  1
  C  584  1  0.98209200  0.51270500  0.05972700  1
  C  585  1  0.94345100  0.49472000  0.05637600  1
  C  589  1  0.99816100  0.52158500  0.08143600  1
  C  593  1  0.91331000  0.48188700  0.07365300  1
  C  597  1  0.90574400  0.47214900  0.99166300  1
  C  598  1  0.05896400  0.54630500  0.00499400  1
  C  601  1  0.44084100  0.00721800  0.00240600  1
  C  602  1  0.45633000  0.00006900  0.98099700  1
  C  603  1  0.49431600  0.98171400  0.97767100  1
  C  604  1  0.51766000  0.96960600  0.99566400  1
  C  605  1  0.49936800  0.97635900  0.01683100  1
  C  606  1  0.46139600  0.99431900  0.02008600  1
  C  608  1  0.48204500  0.98566800  0.93847700  1
  C  609  1  0.44340900  0.00365200  0.94184600  1
  C  613  1  0.49816400  0.97682400  0.91675900  1
  C  617  1  0.41332500  0.01651900  0.92458100  1
  C  621  1  0.40556700  0.02611700  0.00658600  1
  C  622  1  0.55875700  0.95196800  0.99317600  1
  C  625  1  0.69671000  0.24780200  0.77115300  1
  C  626  1  0.70996000  0.26917900  0.76330700  1
  C  627  1  0.74819100  0.27244600  0.74501400  1
  C  628  1  0.77361000  0.25440800  0.73359500  1
  C  629  1  0.75764800  0.23321900  0.74099900  1
  C  630  1  0.71982600  0.23001300  0.75899600  1
  C  632  1  0.73091800  0.31149600  0.74727600  1
  C  633  1  0.69207900  0.30819400  0.76521600  1
  C  637  1  0.74448000  0.33308300  0.73757500  1
  C  641  1  0.65932600  0.32542700  0.77721100  1
  C  645  1  0.66086100  0.24366500  0.78991600  1
  C  646  1  0.81407600  0.25685500  0.71579400  1
  C  649  1  0.19654400  0.25044600  0.22726800  1
  C  650  1  0.20970300  0.22907000  0.23513900  1
  C  651  1  0.24790700  0.22580600  0.25344000  1
  C  652  1  0.27339000  0.24384300  0.26484100  1
  C  653  1  0.25750300  0.26503100  0.25741400  1
  C  654  1  0.21970300  0.26823600  0.23941000  1
  C  656  1  0.23052100  0.18676100  0.25120700  1
  C  657  1  0.19170800  0.19006300  0.23326000  1
  C  661  1  0.24401900  0.16517500  0.26092500  1
  C  665  1  0.15891800  0.17283200  0.22127400  1
  C  669  1  0.16076600  0.25458800  0.20849000  1
  C  670  1  0.31387400  0.24139300  0.28263700  1
  C  673  1  0.71256800  0.74262500  0.23569700  1
  C  674  1  0.71522400  0.76069100  0.25031800  1
  C  675  1  0.75325400  0.76043200  0.26893700  1
  C  676  1  0.78949800  0.74191000  0.27379900  1
  C  677  1  0.78410400  0.72366700  0.25958400  1
  C  678  1  0.74609100  0.72386000  0.24133000  1
  C  680  1  0.71545100  0.79604300  0.27953400  1
  C  681  1  0.67682800  0.79603300  0.26123800  1
  C  685  1  0.71879400  0.81383500  0.29587300  1
  C  689  1  0.63404000  0.81346800  0.25539200  1
  C  693  1  0.67724400  0.74270200  0.21638700  1
  C  694  1  0.82995800  0.74132900  0.29177500  1
  C  697  1  0.21240500  0.75561600  0.76236400  1
  C  698  1  0.21497700  0.73755500  0.74773500  1
  C  699  1  0.25289600  0.73782000  0.72908500  1
  C  700  1  0.28910800  0.75634400  0.72420300  1
  C  701  1  0.28376400  0.77459000  0.73841600  1
  C  702  1  0.24586600  0.77438800  0.75670300  1
  C  704  1  0.21503500  0.70221500  0.71850400  1
  C  705  1  0.17652400  0.70221600  0.73683100  1
  C  709  1  0.21827400  0.68443200  0.70215200  1
  C  713  1  0.13377600  0.68477800  0.74270500  1
  C  717  1  0.17721300  0.75553000  0.78170600  1
  C  718  1  0.32954500  0.75692400  0.70621600  1
  C  721  1  0.30467000  0.74884900  0.24133900  1
  C  722  1  0.28920500  0.72771600  0.24925600  1
  C  723  1  0.25066700  0.72504900  0.26755200  1
  C  724  1  0.22679700  0.74347300  0.27884500  1
  C  725  1  0.24519500  0.76438900  0.27138300  1
  C  726  1  0.28369300  0.76699800  0.25347000  1
  C  728  1  0.26347100  0.68575000  0.26518200  1
  C  729  1  0.30272100  0.68848200  0.24726800  1
  C  733  1  0.24724500  0.66436600  0.27477700  1
  C  737  1  0.33351300  0.67078500  0.23524700  1
  C  741  1  0.34009200  0.75230400  0.22233500  1
  C  742  1  0.18521000  0.74160000  0.29639700  1
  C  745  1  0.80450600  0.74938000  0.75699100  1
  C  746  1  0.78909000  0.77050800  0.74904800  1
  C  747  1  0.75049000  0.77316200  0.73076600  1
  C  748  1  0.72651400  0.75473200  0.71951700  1
  C  749  1  0.74484500  0.73381700  0.72701200  1
  C  750  1  0.78340300  0.73121900  0.74490900  1
  C  752  1  0.76346400  0.81245800  0.73305900  1
  C  753  1  0.80277000  0.80973700  0.75095600  1
  C  757  1  0.74729200  0.83383400  0.72343200  1
  C  761  1  0.83368300  0.82743800  0.76292900  1
  C  765  1  0.83999400  0.74593000  0.77597200  1
  C  766  1  0.68492100  0.75659500  0.70196900  1
  C  769  1  0.53535600  0.51263700  0.49370700  1
  C  770  1  0.53203400  0.49820700  0.51191800  1
  C  771  1  0.49384700  0.47963600  0.51170200  1
  C  772  1  0.45833700  0.47459000  0.49305300  1
  C  773  1  0.46448000  0.48856300  0.47465900  1
  C  774  1  0.50247400  0.50682000  0.47484400  1
  C  776  1  0.53049000  0.46932800  0.54755000  1
  C  777  1  0.56930200  0.48756900  0.54751200  1
  C  781  1  0.52650600  0.45315900  0.56547800  1
  C  785  1  0.61167600  0.49352200  0.56504700  1
  C  789  1  0.57072800  0.53193800  0.49374400  1
  C  790  1  0.41798300  0.45659600  0.49243500  1
  C  793  1  0.03500900  0.98544000  0.50457900  1
  C  794  1  0.03173300  0.99992000  0.48640800  1
  C  795  1  0.99354000  0.01848700  0.48666500  1
  C  796  1  0.95795400  0.02347100  0.50531400  1
  C  797  1  0.96402400  0.00943400  0.52366300  1
  C  798  1  0.00204600  0.99118800  0.52344300  1
  C  800  1  0.03026400  0.02889300  0.45085500  1
  C  801  1  0.06908300  0.01065300  0.45085500  1
  C  805  1  0.02631200  0.04510900  0.43297000  1
  C  809  1  0.11149700  0.00475000  0.43331700  1
  C  813  1  0.07043500  0.96615900  0.50451800  1
  C  814  1  0.91760000  0.04146500  0.50596900  1
  C  817  1  0.44276800  0.99180200  0.49936000  1
  C  818  1  0.45827200  0.99934100  0.52062900  1
  C  819  1  0.49694000  0.01755400  0.52361300  1
  C  820  1  0.52089200  0.02913400  0.50538700  1
  C  821  1  0.50247400  0.02203400  0.48434400  1
  C  822  1  0.46383800  0.00421300  0.48142300  1
  C  824  1  0.48407400  0.01453100  0.56285800  1
  C  825  1  0.44472100  0.99669700  0.55981800  1
  C  829  1  0.50031600  0.02374900  0.58440600  1
  C  833  1  0.41384000  0.98440300  0.57730600  1
  C  837  1  0.40734000  0.97287100  0.49556800  1
  C  838  1  0.56257500  0.04662500  0.50754500  1
  C  841  1  0.94300100  0.50642700  0.49885200  1
  C  842  1  0.95857200  0.49892200  0.47757800  1
  C  843  1  0.99731100  0.48073100  0.47458000  1
  C  844  1  0.02125300  0.46913700  0.49279600  1
  C  845  1  0.00277900  0.47620400  0.51384500  1
  C  846  1  0.96408200  0.49400500  0.51678000  1
  C  848  1  0.98450100  0.48379400  0.43533700  1
  C  849  1  0.94508000  0.50160600  0.43838800  1
  C  853  1  0.00080400  0.47460800  0.41378100  1
  C  857  1  0.91418200  0.51390700  0.42090900  1
  C  861  1  0.90751100  0.52533900  0.50266200  1
  C  862  1  0.06295000  0.45165400  0.49062900  1
  C  865  1  0.39242800  0.17200500  0.90647600  1
  C  866  1  0.40094600  0.15002800  0.89954600  1
  C  867  1  0.38559500  0.13229900  0.91345000  1
  C  868  1  0.36317900  0.13622900  0.93474400  1
  C  869  1  0.35736900  0.15808100  0.94194900  1
  C  870  1  0.37156000  0.17563000  0.92803300  1
  C  872  1  0.41714400  0.10667400  0.88579100  1
  C  873  1  0.43337800  0.12433700  0.87196700  1
  C  877  1  0.42349300  0.08332500  0.87989900  1
  C  881  1  0.45878000  0.12242500  0.84971700  1
  C  885  1  0.40390100  0.19026700  0.89252300  1
  C  886  1  0.34503400  0.11883400  0.94852700  1
  C  889  1  0.89259600  0.32627100  0.09180200  1
  C  890  1  0.90110000  0.34824900  0.09873900  1
  C  891  1  0.88571400  0.36598000  0.08484300  1
  C  892  1  0.86328100  0.36205500  0.06355200  1
  C  893  1  0.85747800  0.34020400  0.05633900  1
  C  894  1  0.87170100  0.32265300  0.07024800  1
  C  896  1  0.91727200  0.39159800  0.11250700  1
  C  897  1  0.93353600  0.37393200  0.12632200  1
  C  901  1  0.92360300  0.41494700  0.11840700  1
  C  905  1  0.95896000  0.37584100  0.14856900  1
  C  909  1  0.90411600  0.30800700  0.10575100  1
  C  910  1  0.84512400  0.37945200  0.04977400  1
  C  913  1  0.62893200  0.35043400  0.92809600  1
  C  914  1  0.63589200  0.35562700  0.90557400  1
  C  915  1  0.61971500  0.34032700  0.88913400  1
  C  916  1  0.59782900  0.31938500  0.89492900  1
  C  917  1  0.59312600  0.31396800  0.91732000  1
  C  918  1  0.60821000  0.32925200  0.93358200  1
  C  920  1  0.65029600  0.36575800  0.86115200  1
  C  921  1  0.66727600  0.38097600  0.87752800  1
  C  925  1  0.65589000  0.36967900  0.83736700  1
  C  929  1  0.69283100  0.40294500  0.87365200  1
  C  933  1  0.64301000  0.36555200  0.94513100  1
  C  934  1  0.58046900  0.30398100  0.87884000  1
  C  937  1  0.12875000  0.14776400  0.07024500  1
  C  938  1  0.13601300  0.14253700  0.09274500  1
  C  939  1  0.11999800  0.15780400  0.10923800  1
  C  940  1  0.09796100  0.17874500  0.10351700  1
  C  941  1  0.09293500  0.18419200  0.08114200  1
  C  942  1  0.10787500  0.16894400  0.06482900  1
  C  944  1  0.15102000  0.13233500  0.13712300  1
  C  945  1  0.16782800  0.11715100  0.12069200  1
  C  949  1  0.15692100  0.12837500  0.16089100  1
  C  953  1  0.19348800  0.09518500  0.12448600  1
  C  957  1  0.14266700  0.13268600  0.05315800  1
  C  958  1  0.08077000  0.19411600  0.11966600  1
  C  961  1  0.61591500  0.81617100  0.10175600  1
  C  962  1  0.60943100  0.83848000  0.10787400  1
  C  963  1  0.62648800  0.85550100  0.09335700  1
  C  964  1  0.64878600  0.85050800  0.07227100  1
  C  965  1  0.65324400  0.82834000  0.06596100  1
  C  966  1  0.63732900  0.81149500  0.08047900  1
  C  968  1  0.59582000  0.88247100  0.11984000  1
  C  969  1  0.57793700  0.86552500  0.13427200  1
  C  973  1  0.59074600  0.90608000  0.12477800  1
  C  977  1  0.55177900  0.86854400  0.15627900  1
  C  981  1  0.60110900  0.79858300  0.11613000  1
  C  982  1  0.66530000  0.86716700  0.05733800  1
  C  985  1  0.11632600  0.68208900  0.89638300  1
  C  986  1  0.10973600  0.65978400  0.89026300  1
  C  987  1  0.12675800  0.64275100  0.90477300  1
  C  988  1  0.14912300  0.64772800  0.92585300  1
  C  989  1  0.15369800  0.66989100  0.93216400  1
  C  990  1  0.13782000  0.68674700  0.91765200  1
  C  992  1  0.09590400  0.61580300  0.87829800  1
  C  993  1  0.07805500  0.63276000  0.86387500  1
  C  997  1  0.09071500  0.59219700  0.87336000  1
  C  1001  1  0.05182500  0.62975900  0.84187700  1
  C  1005  1  0.10149900  0.69969000  0.88202200  1
  C  1006  1  0.16557600  0.63105700  0.94078200  1
  C  1009  1  0.33114900  0.64764100  0.08221200  1
  C  1010  1  0.35724000  0.64009900  0.10185400  1
  C  1011  1  0.38113800  0.65521000  0.11713400  1
  C  1012  1  0.37961900  0.67806500  0.11284000  1
  C  1013  1  0.35295000  0.68525200  0.09310100  1
  C  1014  1  0.32880800  0.67030200  0.07803900  1
  C  1016  1  0.40657500  0.62511600  0.14099400  1
  C  1017  1  0.38320500  0.61008900  0.12552100  1
  C  1021  1  0.43323900  0.61876700  0.16217600  1
  C  1025  1  0.38176500  0.58600400  0.12790800  1
  C  1029  1  0.30929000  0.63293300  0.06636800  1
  C  1030  1  0.40449900  0.69358900  0.12766300  1
  C  1033  1  0.83128400  0.85068500  0.91596900  1
  C  1034  1  0.85764300  0.85822700  0.89637500  1
  C  1035  1  0.88168700  0.84311800  0.88112700  1
  C  1036  1  0.88006300  0.82025900  0.88540800  1
  C  1037  1  0.85313200  0.81307200  0.90509900  1
  C  1038  1  0.82882800  0.82802200  0.92012600  1
  C  1040  1  0.90744400  0.87321500  0.85731800  1
  C  1041  1  0.88392100  0.88824200  0.87276100  1
  C  1045  1  0.93435200  0.87956700  0.83617800  1
  C  1049  1  0.88254100  0.91232900  0.87037900  1
  C  1053  1  0.80928000  0.86539900  0.93178200  1
  C  1054  1  0.90502400  0.80473400  0.87060700  1
  C  1057  1  0.91825800  0.66555300  0.39921700  1
  C  1058  1  0.89333300  0.64566200  0.39179600  1
  C  1059  1  0.86935400  0.63048300  0.40697900  1
  C  1060  1  0.86967200  0.63513500  0.42976600  1
  C  1061  1  0.89525600  0.65510500  0.43684300  1
  C  1062  1  0.91933800  0.67010100  0.42181600  1
  C  1064  1  0.84587000  0.60610900  0.37709000  1
  C  1065  1  0.86925800  0.62149500  0.36197400  1
  C  1069  1  0.82012400  0.58473000  0.37088900  1
  C  1073  1  0.87160000  0.61881200  0.33793000  1
  C  1077  1  0.93918000  0.68142500  0.38438200  1
  C  1078  1  0.84447700  0.62045500  0.44532500  1
  C  1081  1  0.41803200  0.83239100  0.59881600  1
  C  1082  1  0.39397200  0.85238700  0.60633900  1
  C  1083  1  0.36999000  0.86766500  0.59125400  1
  C  1084  1  0.36953900  0.86301700  0.56846700  1
  C  1085  1  0.39421200  0.84293300  0.56128700  1
  C  1086  1  0.41818100  0.82781900  0.57621900  1
  C  1088  1  0.34800100  0.89210500  0.62123600  1
  C  1089  1  0.37137300  0.87662300  0.63625700  1
  C  1093  1  0.32299200  0.91357100  0.62754600  1
  C  1097  1  0.37441200  0.87927800  0.66029500  1
  C  1101  1  0.43902900  0.81643300  0.61355000  1
  C  1102  1  0.34444100  0.87781000  0.55300300  1
  C  1105  1  0.13155300  0.85179800  0.43086300  1
  C  1106  1  0.13777500  0.85781600  0.40851800  1
  C  1107  1  0.11990700  0.84331800  0.39160000  1
  C  1108  1  0.09701700  0.82235600  0.39674200  1
  C  1109  1  0.09277600  0.81614500  0.41894300  1
  C  1110  1  0.10951800  0.83064500  0.43568900  1
  C  1112  1  0.15089000  0.86957000  0.36445500  1
  C  1113  1  0.16955400  0.88398500  0.38130200  1
  C  1117  1  0.15566100  0.87440500  0.34081600  1
  C  1121  1  0.19634500  0.90586800  0.37813600  1
  C  1125  1  0.14698200  0.86619300  0.44834400  1
  C  1126  1  0.07994600  0.80739800  0.38019200  1
  C  1129  1  0.63148400  0.64630200  0.56745900  1
  C  1130  1  0.63783200  0.64025000  0.58978900  1
  C  1131  1  0.62000200  0.65471400  0.60674300  1
  C  1132  1  0.59701900  0.67567400  0.60165000  1
  C  1133  1  0.59264500  0.68191800  0.57945900  1
  C  1134  1  0.60935500  0.66745200  0.56268000  1
  C  1136  1  0.65119600  0.62842800  0.63382400  1
  C  1137  1  0.66982400  0.61404900  0.61694000  1
  C  1141  1  0.65608600  0.62355800  0.65745100  1
  C  1145  1  0.69669800  0.59217300  0.62005400  1
  C  1149  1  0.64686100  0.63194600  0.54994000  1
  C  1150  1  0.58000800  0.69060100  0.61823100  1
  C  1153  1  0.11132300  0.32104800  0.60372600  1
  C  1154  1  0.10194200  0.34361400  0.60817000  1
  C  1155  1  0.12128300  0.35986700  0.59317100  1
  C  1156  1  0.14880800  0.35379100  0.57324700  1
  C  1157  1  0.15633400  0.33134700  0.56854600  1
  C  1158  1  0.13819800  0.31529000  0.58357600  1
  C  1160  1  0.08263300  0.38811400  0.61673900  1
  C  1161  1  0.06244300  0.37192500  0.63162200  1
  C  1165  1  0.07490000  0.41192400  0.61993800  1
  C  1169  1  0.03089200  0.37605200  0.65246100  1
  C  1173  1  0.09422600  0.30419100  0.61860900  1
  C  1174  1  0.16682300  0.36960700  0.55769300  1
  C  1177  1  0.61160700  0.17717800  0.39449700  1
  C  1178  1  0.60208400  0.15461700  0.39006400  1
  C  1179  1  0.62143300  0.13835300  0.40504900  1
  C  1180  1  0.64910600  0.14441200  0.42495100  1
  C  1181  1  0.65677200  0.16685000  0.42964300  1
  C  1182  1  0.63863300  0.18291800  0.41462400  1
  C  1184  1  0.58249400  0.11012900  0.38151800  1
  C  1185  1  0.56229700  0.12633000  0.36664800  1
  C  1189  1  0.57462000  0.08632400  0.37832800  1
  C  1193  1  0.53059600  0.12222300  0.34583600  1
  C  1197  1  0.59448300  0.19404700  0.37962400  1
  C  1198  1  0.66710000  0.12858300  0.44049700  1
  C  1201  1  0.84055800  0.14879600  0.58198200  1
  C  1202  1  0.86010400  0.14192300  0.60285500  1
  C  1203  1  0.88465800  0.15728300  0.61773600  1
  C  1204  1  0.88959900  0.17970300  0.61186700  1
  C  1205  1  0.87033000  0.18619200  0.59078100  1
  C  1206  1  0.84649800  0.17094600  0.57596200  1
  C  1208  1  0.89792600  0.12833400  0.64416900  1
  C  1209  1  0.87402200  0.11300700  0.62909800  1
  C  1213  1  0.91903700  0.12268400  0.66637200  1
  C  1217  1  0.86643000  0.08927500  0.63298900  1
  C  1221  1  0.81753600  0.13376800  0.56672400  1
  C  1222  1  0.91212200  0.19564500  0.62668300  1
  C  1225  1  0.34149600  0.34991100  0.41587800  1
  C  1226  1  0.36027900  0.35666200  0.39487100  1
  C  1227  1  0.38495200  0.34126500  0.38005300  1
  C  1228  1  0.39064100  0.31892000  0.38610400  1
  C  1229  1  0.37216900  0.31255000  0.40731900  1
  C  1230  1  0.34839800  0.32785000  0.42209800  1
  C  1232  1  0.39702100  0.37003700  0.35335300  1
  C  1233  1  0.37302900  0.38540800  0.36836100  1
  C  1237  1  0.41765600  0.37558200  0.33106400  1
  C  1241  1  0.36485000  0.40908700  0.36430600  1
  C  1245  1  0.31838500  0.36499500  0.43107100  1
  C  1246  1  0.41309800  0.30292200  0.37134700  1
  H  7  1  0.29668200  0.04724500  0.01063800  1
  H  16  1  0.22846500  0.10696700  0.03227500  1
  H  19  1  0.22696000  0.11390300  0.97957000  1
  H  20  1  0.19444400  0.04980300  0.98147000  1
  H  21  1  0.43080100  0.07787500  0.95663900  1
  H  22  1  0.02237300  0.08474400  0.03656900  1
  H  24  1  0.10483100  0.10628600  0.06678300  1
  H  26  1  0.05021800  0.04098700  0.02927900  1
  H  28  1  0.39138600  0.12758700  0.97559200  1
  H  30  1  0.43853100  0.04483500  0.98309800  1
  H  37  1  0.79684000  0.45103800  0.98762300  1
  H  46  1  0.72869800  0.39131300  0.96600100  1
  H  49  1  0.72705000  0.38438700  0.01870700  1
  H  50  1  0.69453400  0.44847600  0.01678300  1
  H  51  1  0.93087900  0.42042900  0.04166700  1
  H  52  1  0.52254200  0.41347200  0.96172400  1
  H  54  1  0.60493400  0.39191200  0.93152000  1
  H  56  1  0.55030200  0.45724600  0.96897100  1
  H  58  1  0.89148000  0.37071000  0.02270600  1
  H  60  1  0.93864400  0.45346500  0.01519200  1
  H  67  1  0.55066200  0.23812700  0.80953100  1
  H  76  1  0.48294400  0.21572900  0.86823900  1
  H  79  1  0.46906400  0.26932400  0.87432900  1
  H  80  1  0.44368500  0.26544200  0.81065400  1
  H  81  1  0.67136800  0.29638500  0.83954700  1
  H  82  1  0.27942500  0.20600500  0.84467800  1
  H  84  1  0.36555800  0.17776300  0.86576700  1
  H  86  1  0.30699700  0.21473600  0.80121100  1
  H  88  1  0.63189300  0.27885300  0.88916000  1
  H  90  1  0.68795800  0.26867200  0.80796200  1
  H  97  1  0.05062300  0.26016600  0.18880200  1
  H  106  1  0.98303500  0.28252000  0.13004400  1
  H  109  1  0.96928000  0.22885900  0.12400400  1
  H  110  1  0.94363100  0.23283400  0.18765100  1
  H  111  1  0.17121800  0.20180100  0.15898400  1
  H  112  1  0.77952000  0.29231000  0.15357700  1
  H  114  1  0.86569800  0.32050300  0.13249700  1
  H  116  1  0.80696400  0.28354000  0.19706100  1
  H  118  1  0.13117200  0.21949600  0.10907800  1
  H  120  1  0.18780800  0.22955100  0.19048300  1
  H  127  1  0.67639200  0.93733100  0.98969900  1
  H  136  1  0.75992600  0.87862000  0.97160200  1
  H  139  1  0.77623200  0.87771300  0.02350600  1
  H  140  1  0.78493200  0.94189200  0.01467200  1
  H  141  1  0.56296400  0.90464600  0.04927700  1
  H  142  1  0.94890800  0.91168300  0.95248900  1
  H  144  1  0.88987500  0.87625100  0.94065200  1
  H  146  1  0.91436400  0.95243500  0.96213800  1
  H  148  1  0.61148400  0.85761800  0.03265800  1
  H  150  1  0.53917600  0.93534300  0.02012900  1
  H  157  1  0.17660400  0.56093600  0.00848200  1
  H  166  1  0.25996800  0.61965500  0.02658900  1
  H  169  1  0.27646900  0.62055700  0.97466300  1
  H  170  1  0.28521800  0.55640000  0.98351800  1
  H  171  1  0.06328300  0.59356900  0.94884400  1
  H  172  1  0.44911800  0.58670500  0.04566900  1
  H  174  1  0.38993000  0.62212800  0.05750200  1
  H  176  1  0.41469900  0.54592100  0.03605000  1
  H  178  1  0.11181400  0.64063100  0.96546900  1
  H  180  1  0.03944500  0.56288900  0.97800800  1
  H  187  1  0.44871800  0.75522300  0.20094100  1
  H  196  1  0.51591100  0.77631500  0.14120400  1
  H  199  1  0.51920400  0.72591200  0.13403400  1
  H  200  1  0.55024400  0.72497900  0.19787300  1
  H  201  1  0.31399400  0.70057400  0.17166600  1
  H  202  1  0.72196600  0.78059800  0.16366400  1
  H  204  1  0.63951000  0.81111400  0.14289800  1
  H  206  1  0.69333200  0.77325400  0.20736000  1
  H  208  1  0.34000300  0.71634800  0.12552000  1
  H  210  1  0.30665900  0.72816600  0.20455900  1
  H  217  1  0.94876200  0.74301300  0.79729800  1
  H  226  1  0.01626800  0.72197300  0.85701000  1
  H  229  1  0.01958900  0.77239400  0.86411700  1
  H  230  1  0.05029400  0.77326200  0.80026300  1
  H  231  1  0.81430300  0.79773500  0.82658300  1
  H  232  1  0.22217400  0.71762600  0.83439000  1
  H  234  1  0.13977800  0.68715300  0.85523100  1
  H  236  1  0.19335400  0.72498700  0.79071200  1
  H  238  1  0.84051800  0.78187500  0.87273300  1
  H  240  1  0.80674600  0.77010900  0.79373100  1
  H  247  1  0.79925700  0.54701800  0.50620800  1
  H  256  1  0.73255300  0.60676100  0.52797800  1
  H  259  1  0.72983400  0.61439100  0.47762200  1
  H  260  1  0.69802600  0.55047700  0.47620400  1
  H  261  1  0.93409200  0.57679800  0.45190100  1
  H  262  1  0.52607500  0.58481000  0.53158500  1
  H  264  1  0.60855800  0.60514800  0.56247200  1
  H  266  1  0.55387000  0.54114900  0.52415400  1
  H  268  1  0.90842800  0.62288600  0.46826100  1
  H  270  1  0.94108800  0.54355000  0.47890400  1
  H  277  1  0.29909900  0.95119400  0.49204000  1
  H  286  1  0.23253300  0.89142400  0.47032000  1
  H  289  1  0.22973300  0.88386100  0.52078000  1
  H  290  1  0.19777300  0.94772300  0.52204200  1
  H  291  1  0.43396600  0.92145100  0.54637300  1
  H  292  1  0.02600200  0.91330800  0.46664800  1
  H  294  1  0.10852000  0.89295500  0.43579900  1
  H  296  1  0.05367100  0.95699200  0.47407900  1
  H  298  1  0.40811000  0.87527700  0.52996500  1
  H  300  1  0.44091100  0.95469500  0.51935900  1
  H  307  1  0.06736500  0.73857200  0.31099100  1
  H  316  1  0.98639000  0.72133600  0.37037900  1
  H  319  1  0.96837000  0.77331400  0.37034000  1
  H  320  1  0.95756200  0.76288800  0.30627800  1
  H  321  1  0.18087600  0.79892100  0.34231300  1
  H  322  1  0.79703200  0.70057900  0.33858700  1
  H  324  1  0.85768700  0.69011100  0.37422500  1
  H  326  1  0.83055500  0.70922600  0.29743300  1
  H  328  1  0.13331700  0.78262000  0.38984600  1
  H  330  1  0.20438100  0.76915500  0.31210300  1
  H  337  1  0.56713000  0.75967200  0.68724300  1
  H  346  1  0.48643000  0.77671100  0.62772100  1
  H  349  1  0.46844800  0.72470700  0.62795200  1
  H  350  1  0.45735100  0.73542500  0.69201700  1
  H  351  1  0.68067300  0.69917600  0.65620800  1
  H  352  1  0.29649600  0.79729200  0.65918100  1
  H  354  1  0.35736400  0.80751200  0.62341000  1
  H  356  1  0.32980800  0.78896700  0.70047100  1
  H  358  1  0.63299900  0.71552400  0.60849000  1
  H  360  1  0.70410400  0.72902200  0.68631200  1
  H  367  1  0.18073300  0.43661900  0.48733500  1
  H  376  1  0.26473000  0.37722600  0.47136800  1
  H  379  1  0.27954400  0.37824900  0.52377700  1
  H  380  1  0.28835000  0.44228300  0.51231600  1
  H  381  1  0.06650600  0.40609600  0.54778400  1
  H  382  1  0.45772200  0.40847800  0.45461700  1
  H  384  1  0.39777200  0.37127000  0.44503800  1
  H  386  1  0.42125100  0.45014000  0.46055800  1
  H  388  1  0.11698900  0.35806300  0.53270400  1
  H  390  1  0.04310800  0.43548400  0.51778700  1
  H  397  1  0.68039300  0.06153600  0.51086700  1
  H  406  1  0.76464100  0.12086100  0.52686000  1
  H  409  1  0.77974300  0.11984400  0.47449800  1
  H  410  1  0.78820400  0.05583400  0.48595200  1
  H  411  1  0.56661600  0.09214400  0.45034400  1
  H  412  1  0.95691200  0.08930300  0.54414000  1
  H  414  1  0.89748500  0.12632100  0.55388400  1
  H  416  1  0.92045400  0.04775700  0.53788700  1
  H  418  1  0.61733400  0.14014700  0.46549300  1
  H  420  1  0.54293600  0.06275100  0.48033600  1
  H  427  1  0.93089900  0.25957800  0.69995000  1
  H  436  1  0.00638900  0.28139700  0.64218300  1
  H  439  1  0.02182700  0.22991800  0.63644200  1
  H  440  1  0.03745600  0.23181100  0.70054800  1
  H  441  1  0.81198800  0.20159600  0.66721500  1
  H  442  1  0.20665600  0.29067500  0.66904300  1
  H  444  1  0.12410500  0.31880200  0.64582600  1
  H  446  1  0.17353700  0.28200100  0.71218600  1
  H  448  1  0.84766800  0.21801100  0.62188000  1
  H  450  1  0.79286600  0.22983100  0.69951300  1
  H  457  1  0.43078300  0.23859200  0.29839100  1
  H  466  1  0.50669900  0.21691300  0.35612200  1
  H  469  1  0.52239500  0.26853800  0.36162900  1
  H  470  1  0.53745400  0.26633100  0.29758200  1
  H  471  1  0.31256500  0.29681200  0.33100500  1
  H  472  1  0.70667400  0.20741400  0.32905400  1
  H  474  1  0.62416800  0.17940700  0.35238900  1
  H  476  1  0.67344000  0.21611400  0.28592700  1
  H  478  1  0.34885900  0.28043100  0.37644200  1
  H  480  1  0.29290900  0.26845600  0.29887700  1
  H  491  1  0.99787200  0.01844800  0.96556400  1
  H  492  1  0.93404800  0.98829700  0.96411900  1
  H  494  1  0.98757400  0.93886600  0.06339800  1
  H  495  1  0.00643400  0.95907800  0.08293900  1
  H  496  1  0.06324900  0.94355200  0.06984200  1
  H  498  1  0.10342000  0.98018400  0.08221300  1
  H  499  1  0.09404000  0.00806600  0.07538300  1
  H  500  1  0.15016000  0.99231000  0.06237600  1
  H  515  1  0.49811000  0.47987800  0.03267000  1
  H  516  1  0.43434400  0.51004800  0.03410500  1
  H  518  1  0.48769200  0.55935000  0.93474700  1
  H  519  1  0.50645600  0.53911000  0.91522300  1
  H  520  1  0.56334000  0.55463500  0.92827900  1
  H  522  1  0.60339800  0.51797800  0.91593500  1
  H  523  1  0.59398000  0.49010500  0.92280100  1
  H  524  1  0.65017200  0.50586200  0.93576700  1
  H  539  1  0.24891300  0.27838800  0.77903900  1
  H  540  1  0.18598000  0.27979300  0.74869700  1
  H  542  1  0.24175700  0.18087700  0.69902100  1
  H  543  1  0.26084400  0.16129400  0.71916000  1
  H  544  1  0.31752100  0.17462900  0.70377300  1
  H  546  1  0.35759900  0.16218800  0.74037600  1
  H  547  1  0.34791700  0.16885900  0.76828400  1
  H  548  1  0.40386000  0.18209500  0.75263100  1
  H  563  1  0.74865600  0.21987800  0.21904900  1
  H  564  1  0.68577100  0.21840900  0.24940500  1
  H  566  1  0.74215200  0.31710800  0.29941700  1
  H  567  1  0.76128600  0.33675100  0.27934100  1
  H  568  1  0.81793600  0.32332200  0.29466100  1
  H  570  1  0.85797800  0.33587100  0.25808800  1
  H  571  1  0.84820000  0.32930700  0.23016000  1
  H  572  1  0.90411100  0.31597600  0.24574600  1
  H  587  1  0.95255400  0.49952700  0.96230300  1
  H  588  1  0.01637600  0.52911600  0.96760100  1
  H  590  1  0.02832400  0.53552800  0.07995700  1
  H  591  1  0.02027700  0.50898300  0.09113600  1
  H  592  1  0.95817400  0.52704000  0.08997900  1
  H  594  1  0.92389200  0.48758700  0.09009900  1
  H  595  1  0.92664000  0.46474900  0.07239600  1
  H  596  1  0.86521000  0.48297000  0.07142500  1
  H  611  1  0.45228900  0.99868600  0.03591500  1
  H  612  1  0.51610000  0.96909900  0.03058600  1
  H  614  1  0.52831300  0.96287600  0.91822400  1
  H  615  1  0.52031400  0.98944200  0.90708800  1
  H  616  1  0.45819400  0.97138900  0.90819200  1
  H  618  1  0.42394400  0.01084500  0.90812800  1
  H  619  1  0.42666600  0.03365200  0.92587200  1
  H  620  1  0.36521900  0.01543600  0.92679100  1
  H  635  1  0.71235800  0.21421000  0.76384400  1
  H  636  1  0.77605600  0.21951300  0.73418700  1
  H  638  1  0.77526200  0.33157200  0.72381800  1
  H  639  1  0.76490200  0.34366300  0.74985100  1
  H  640  1  0.70362500  0.34068700  0.73162000  1
  H  642  1  0.66812400  0.34180400  0.77092800  1
  H  643  1  0.67210000  0.32504800  0.79444500  1
  H  644  1  0.61159800  0.32235500  0.77597800  1
  H  659  1  0.21228900  0.28403800  0.23454300  1
  H  660  1  0.27595400  0.27873700  0.26421100  1
  H  662  1  0.27479200  0.16668500  0.27468500  1
  H  663  1  0.26441900  0.15457800  0.24865800  1
  H  664  1  0.20313600  0.15759000  0.26688100  1
  H  666  1  0.16766300  0.15645700  0.22757200  1
  H  667  1  0.17171200  0.17319200  0.20404200  1
  H  668  1  0.11119900  0.17592400  0.22249700  1
  H  683  1  0.74627800  0.71037200  0.23138700  1
  H  684  1  0.81014400  0.71009700  0.26157800  1
  H  686  1  0.75157800  0.81018700  0.30856000  1
  H  687  1  0.73169000  0.82909100  0.28788200  1
  H  688  1  0.67557600  0.81597400  0.30373200  1
  H  690  1  0.63476400  0.82716100  0.26681700  1
  H  691  1  0.64451600  0.81972700  0.23910600  1
  H  692  1  0.58908500  0.80670800  0.25517900  1
  H  707  1  0.24610100  0.78787700  0.76664500  1
  H  708  1  0.30978000  0.78816300  0.73639800  1
  H  710  1  0.25097900  0.68808600  0.68943800  1
  H  711  1  0.23122000  0.66917100  0.71012300  1
  H  712  1  0.17500600  0.68229600  0.69432900  1
  H  714  1  0.13443300  0.67109000  0.73127300  1
  H  715  1  0.14435400  0.67851100  0.75898000  1
  H  716  1  0.08882000  0.69153600  0.74295900  1
  H  731  1  0.29277000  0.78265300  0.24850800  1
  H  732  1  0.22811900  0.77839100  0.27804100  1
  H  734  1  0.21656900  0.66632200  0.28850700  1
  H  735  1  0.22566100  0.65418200  0.26243300  1
  H  736  1  0.28709500  0.65607700  0.28073700  1
  H  738  1  0.32289800  0.65455000  0.24151400  1
  H  739  1  0.32079800  0.67137600  0.21801300  1
  H  740  1  0.38154500  0.67313300  0.23648300  1
  H  755  1  0.79244400  0.71557000  0.74989400  1
  H  756  1  0.72768200  0.71981400  0.72039000  1
  H  758  1  0.71655800  0.83186900  0.70971900  1
  H  759  1  0.72579800  0.84405300  0.73576700  1
  H  760  1  0.78715700  0.84208800  0.71743600  1
  H  762  1  0.82311200  0.84367000  0.75663700  1
  H  763  1  0.82103600  0.82688700  0.78017100  1
  H  764  1  0.88170000  0.82506200  0.76167100  1
  H  779  1  0.50281000  0.51660800  0.46124400  1
  H  780  1  0.43893100  0.48639400  0.46098600  1
  H  782  1  0.49370400  0.44047900  0.56182700  1
  H  783  1  0.51327600  0.46130500  0.58061100  1
  H  784  1  0.56959000  0.44526400  0.56784800  1
  H  786  1  0.61045200  0.48223000  0.57884600  1
  H  787  1  0.60121600  0.50988300  0.57110900  1
  H  788  1  0.65681600  0.49360200  0.55845300  1
  H  803  1  0.00235700  0.98135900  0.53701300  1
  H  804  1  0.93841800  0.01155400  0.53733100  1
  H  806  1  0.99349700  0.05777800  0.43664300  1
  H  807  1  0.01311800  0.03700100  0.41781000  1
  H  808  1  0.06939900  0.05301200  0.43063000  1
  H  810  1  0.11029900  0.01607800  0.41954900  1
  H  811  1  0.10104900  0.98840500  0.42720700  1
  H  812  1  0.15662200  0.00465300  0.43992600  1
  H  827  1  0.45477400  0.99952100  0.46568400  1
  H  828  1  0.51966200  0.02888500  0.47045500  1
  H  830  1  0.53107000  0.03748900  0.58269200  1
  H  831  1  0.52181200  0.01121900  0.59438600  1
  H  832  1  0.46048200  0.02959900  0.59278600  1
  H  834  1  0.42448100  0.99038100  0.59364800  1
  H  835  1  0.42644500  0.96716900  0.57642300  1
  H  836  1  0.36581900  0.98571900  0.57497600  1
  H  851  1  0.95497600  0.49867400  0.53252300  1
  H  852  1  0.01996700  0.46934300  0.52773100  1
  H  854  1  0.03160400  0.46087900  0.41548700  1
  H  855  1  0.02227200  0.48715800  0.40382100  1
  H  856  1  0.96100400  0.46874900  0.40538700  1
  H  858  1  0.92487100  0.50795100  0.40456200  1
  H  859  1  0.92672400  0.53114600  0.42181400  1
  H  860  1  0.86616000  0.51256500  0.42322500  1
  H  875  1  0.36441700  0.19119400  0.93366700  1
  H  876  1  0.34033300  0.16147700  0.95712500  1
  H  878  1  0.40818000  0.07267400  0.89311400  1
  H  879  1  0.47012800  0.07956600  0.87663600  1
  H  880  1  0.39710500  0.07974600  0.86533500  1
  H  882  1  0.46452500  0.10549900  0.84450600  1
  H  883  1  0.50219800  0.13041900  0.84928000  1
  H  884  1  0.42940800  0.13053800  0.83802500  1
  H  899  1  0.86456500  0.30709000  0.06461100  1
  H  900  1  0.84043400  0.33681200  0.04116600  1
  H  902  1  0.90826800  0.42560100  0.10519800  1
  H  903  1  0.97023600  0.41871000  0.12166400  1
  H  904  1  0.89722700  0.41851700  0.13297500  1
  H  906  1  0.96469100  0.39276500  0.15378600  1
  H  907  1  0.00238400  0.36785200  0.14899800  1
  H  908  1  0.92960800  0.36771900  0.16026200  1
  H  923  1  0.60239100  0.32482200  0.94960200  1
  H  924  1  0.57686000  0.29903200  0.92203300  1
  H  926  1  0.64003200  0.35565800  0.82792700  1
  H  927  1  0.70242600  0.37252100  0.83313300  1
  H  928  1  0.62955400  0.38394800  0.83271100  1
  H  930  1  0.69793100  0.40673600  0.85632400  1
  H  931  1  0.73658100  0.40395700  0.88134300  1
  H  932  1  0.66392600  0.41532000  0.88093500  1
  H  947  1  0.10183200  0.17339500  0.04882400  1
  H  948  1  0.07654100  0.19912400  0.07647800  1
  H  950  1  0.14115700  0.14237600  0.17038300  1
  H  951  1  0.20351800  0.12553900  0.16504100  1
  H  952  1  0.13067800  0.11409100  0.16556800  1
  H  954  1  0.19881700  0.09136500  0.14179700  1
  H  955  1  0.23714300  0.09420100  0.11671700  1
  H  956  1  0.16452200  0.08281200  0.11723000  1
  H  971  1  0.64284700  0.79565300  0.07540500  1
  H  972  1  0.66956100  0.82420700  0.05086100  1
  H  974  1  0.60720400  0.91606400  0.11123500  1
  H  975  1  0.54424900  0.91035400  0.12764800  1
  H  976  1  0.61683200  0.91001000  0.13932500  1
  H  978  1  0.54702800  0.88570700  0.16079900  1
  H  979  1  0.50779400  0.86098400  0.15677100  1
  H  980  1  0.58008400  0.86062000  0.16844800  1
  H  995  1  0.14341100  0.70258600  0.92272900  1
  H  996  1  0.17006100  0.67401400  0.94726000  1
  H  998  1  0.10716300  0.58220100  0.88689600  1
  H  999  1  0.04419000  0.58795000  0.87050700  1
  H  1000  1  0.11674000  0.58825200  0.85880300  1
  H  1002  1  0.04698700  0.61259900  0.83735700  1
  H  1003  1  0.00787100  0.63734500  0.84140200  1
  H  1004  1  0.08012900  0.63766800  0.82970000  1
  H  1019  1  0.31086000  0.67609600  0.06375500  1
  H  1020  1  0.35217600  0.70152500  0.08912700  1
  H  1022  1  0.44810400  0.63309200  0.17137700  1
  H  1023  1  0.40048600  0.61005100  0.17207600  1
  H  1024  1  0.47164800  0.60819700  0.15939900  1
  H  1026  1  0.40135400  0.58038000  0.14322300  1
  H  1027  1  0.33572300  0.58034800  0.12732200  1
  H  1028  1  0.40630300  0.57850600  0.11443300  1
  H  1043  1  0.81068900  0.82222800  0.93437700  1
  H  1044  1  0.85226700  0.79679700  0.90906600  1
  H  1046  1  0.94930300  0.86524200  0.82699500  1
  H  1047  1  0.90172400  0.88829200  0.82623300  1
  H  1048  1  0.97274600  0.89012900  0.83901700  1
  H  1050  1  0.90231400  0.91795400  0.85509800  1
  H  1051  1  0.83649800  0.91799100  0.87089600  1
  H  1052  1  0.90693300  0.91981700  0.88389700  1
  H  1067  1  0.93626200  0.68459900  0.42749300  1
  H  1068  1  0.89506200  0.65931400  0.45306000  1
  H  1070  1  0.80504800  0.57564800  0.38525900  1
  H  1071  1  0.85350400  0.57486700  0.36245700  1
  H  1072  1  0.78200800  0.58720100  0.36010000  1
  H  1074  1  0.85273400  0.60333400  0.33241300  1
  H  1075  1  0.91780900  0.61954300  0.33247900  1
  H  1076  1  0.84686000  0.63207400  0.33014900  1
  H  1091  1  0.43448500  0.81325200  0.57047400  1
  H  1092  1  0.39342500  0.83873700  0.54506600  1
  H  1094  1  0.30777600  0.92271900  0.61323600  1
  H  1095  1  0.35685300  0.92330700  0.63586200  1
  H  1096  1  0.28509900  0.91122800  0.63846900  1
  H  1098  1  0.35612300  0.89482000  0.66588700  1
  H  1099  1  0.42073500  0.87836800  0.66558400  1
  H  1100  1  0.34950400  0.86610300  0.66815100  1
  H  1115  1  0.10413700  0.82566100  0.45156700  1
  H  1116  1  0.07607000  0.80112900  0.42317600  1
  H  1118  1  0.13858500  0.86089900  0.33092200  1
  H  1119  1  0.20216000  0.87706000  0.33641100  1
  H  1120  1  0.12996100  0.88904900  0.33690200  1
  H  1122  1  0.20090100  0.91030800  0.36094300  1
  H  1123  1  0.24049300  0.90619800  0.38557700  1
  H  1124  1  0.16858500  0.91818400  0.38609100  1
  H  1139  1  0.60387700  0.67245800  0.54681100  1
  H  1140  1  0.57586800  0.69693200  0.57526000  1
  H  1142  1  0.63901600  0.63703900  0.66737800  1
  H  1143  1  0.70261700  0.62091200  0.66182500  1
  H  1144  1  0.63045100  0.60889600  0.66135700  1
  H  1146  1  0.70134400  0.58770600  0.63723700  1
  H  1147  1  0.74080800  0.59187300  0.61258600  1
  H  1148  1  0.66893600  0.57985800  0.61209600  1
  H  1163  1  0.14596400  0.29923500  0.57971400  1
  H  1164  1  0.17628800  0.32646900  0.55428200  1
  H  1166  1  0.09390700  0.42120400  0.60634500  1
  H  1167  1  0.02763900  0.41587500  0.62102800  1
  H  1168  1  0.09713600  0.41704200  0.63497300  1
  H  1170  1  0.02397600  0.39341000  0.65567600  1
  H  1171  1  0.98745600  0.36807100  0.65203700  1
  H  1172  1  0.05664600  0.36922200  0.66598400  1
  H  1187  1  0.64650100  0.19896800  0.41847900  1
  H  1188  1  0.67682600  0.17171700  0.44389200  1
  H  1190  1  0.59366000  0.07703300  0.39190700  1
  H  1191  1  0.52733000  0.08240600  0.37727700  1
  H  1192  1  0.59673400  0.08118800  0.36327600  1
  H  1194  1  0.52357400  0.10486900  0.34263000  1
  H  1195  1  0.48720500  0.13023400  0.34629400  1
  H  1196  1  0.55630500  0.12903300  0.33229200  1
  H  1211  1  0.83333600  0.17619100  0.56078900  1
  H  1212  1  0.87429100  0.20213300  0.58581900  1
  H  1214  1  0.93557800  0.13710900  0.67501100  1
  H  1215  1  0.88259700  0.11571700  0.67590300  1
  H  1216  1  0.95518600  0.11080200  0.66530900  1
  H  1218  1  0.88154900  0.08418100  0.64915100  1
  H  1219  1  0.81946000  0.08499800  0.63145000  1
  H  1220  1  0.89168400  0.08012500  0.62077300  1
  H  1235  1  0.33578500  0.32269300  0.43736400  1
  H  1236  1  0.37668700  0.29666700  0.41240300  1
  H  1238  1  0.43439100  0.36114100  0.32250000  1
  H  1239  1  0.38091000  0.38236300  0.32155700  1
  H  1240  1  0.45354600  0.38758200  0.33195800  1
  H  1242  1  0.37955300  0.41409900  0.34806700  1
  H  1243  1  0.31782000  0.41323900  0.36593500  1
  H  1244  1  0.39014000  0.41840400  0.37638600  1
  N  23  1  0.12921700  0.11093100  0.05444100  1
  N  25  1  0.07845200  0.04351800  0.01745100  1
  N  27  1  0.36105900  0.11765800  0.96996800  1
  N  29  1  0.40506200  0.04400800  0.99315100  1
  N  53  1  0.62939000  0.38729200  0.94385400  1
  N  55  1  0.57854700  0.45472900  0.98079800  1
  N  57  1  0.86115600  0.38063800  0.02833200  1
  N  59  1  0.90520600  0.45427800  0.00512500  1
  N  83  1  0.38862200  0.19025200  0.87089300  1
  N  85  1  0.33332867  0.22709900  0.80389600  1
  N  87  1  0.60017200  0.28291200  0.87905700  1
  N  89  1  0.65630400  0.25786200  0.80712400  1
  N  113  1  0.88877400  0.30801500  0.12737400  1
  N  115  1  0.83335800  0.27120000  0.19437100  1
  N  117  1  0.10020300  0.21520900  0.11940500  1
  N  119  1  0.15618200  0.24037400  0.19129400  1
  N  143  1  0.84737200  0.87851900  0.94311800  1
  N  145  1  0.89133500  0.94885300  0.97512500  1
  N  147  1  0.64338100  0.86771200  0.03658400  1
  N  149  1  0.56970400  0.93653800  0.00893400  1
  N  173  1  0.34743500  0.61981000  0.05506300  1
  N  175  1  0.39164400  0.54948800  0.02306500  1
  N  177  1  0.14366400  0.63052000  0.96153700  1
  N  179  1  0.06994300  0.56171100  0.98921400  1
  N  203  1  0.61496700  0.79896300  0.13787100  1
  N  205  1  0.66542700  0.76131800  0.20481800  1
  N  207  1  0.37961000  0.71361500  0.13142200  1
  N  209  1  0.34019200  0.73821300  0.20495500  1
  N  233  1  0.11527600  0.69930700  0.86027500  1
  N  235  1  0.16541500  0.73690500  0.79326900  1
  N  237  1  0.88002400  0.78475100  0.86678900  1
  N  239  1  0.84025400  0.76004900  0.79333300  1
  N  263  1  0.63320200  0.61019200  0.55035400  1
  N  265  1  0.58220700  0.54358000  0.51233700  1
  N  267  1  0.86892600  0.61691800  0.46546100  1
  N  269  1  0.90756200  0.54301800  0.48895100  1
  N  293  1  0.13317900  0.88793400  0.44792300  1
  N  295  1  0.08198800  0.95455500  0.48590200  1
  N  297  1  0.36873000  0.88132300  0.53283900  1
  N  299  1  0.40740500  0.95520900  0.50930200  1
  N  323  1  0.90002200  0.69255600  0.37152500  1
  N  325  1  0.85277000  0.72251200  0.30062000  1
  N  327  1  0.10144500  0.78658800  0.37975500  1
  N  329  1  0.17399900  0.75787600  0.31124700  1
  N  353  1  0.39969400  0.80525800  0.62629000  1
  N  355  1  0.35238400  0.77574600  0.69737700  1
  N  357  1  0.60148700  0.71140400  0.61867700  1
  N  359  1  0.67372200  0.74030200  0.68713200  1
  N  383  1  0.35569500  0.37529100  0.44525000  1
  N  385  1  0.39731400  0.44728100  0.47351400  1
  N  387  1  0.14745500  0.36874600  0.53661500  1
  N  389  1  0.07380600  0.43648900  0.50664000  1
  N  413  1  0.85520800  0.12262100  0.55334000  1
  N  415  1  0.89668800  0.05068300  0.52490500  1
  N  417  1  0.64773300  0.12944200  0.46157700  1
  N  419  1  0.57356400  0.06175000  0.49150800  1
  N  443  1  0.10224900  0.30602900  0.64067500  1
  N  445  1  0.14884000  0.26942700  0.70855300  1
  N  447  1  0.88559000  0.21555900  0.62924700  1
  N  449  1  0.82349700  0.24103700  0.70030700  1
  N  473  1  0.60238200  0.19218900  0.35755400  1
  N  475  1  0.64864600  0.22865400  0.28957300  1
  N  477  1  0.38651400  0.28301500  0.36892100  1
  N  479  1  0.32349400  0.25723300  0.29808400  1
  N  487  1  0.99002000  0.96587200  0.03210000  1
  N  490  1  0.06187400  0.00032700  0.03355900  1
  N  511  1  0.49017600  0.53238200  0.96607700  1
  N  514  1  0.56195600  0.49790300  0.96462900  1
  N  535  1  0.24334200  0.21206700  0.72615200  1
  N  538  1  0.31495900  0.21063500  0.76072300  1
  N  559  1  0.74351000  0.28601700  0.27216900  1
  N  562  1  0.81504800  0.28752700  0.23758000  1
  N  583  1  0.00478400  0.52260000  0.04165300  1
  N  586  1  0.93278800  0.48869000  0.03536900  1
  N  607  1  0.50468800  0.97574100  0.95654000  1
  N  610  1  0.43270100  0.00964600  0.96286000  1
  N  631  1  0.75613500  0.29345500  0.73818400  1
  N  634  1  0.68375300  0.28727600  0.77201500  1
  N  655  1  0.25578500  0.20479800  0.26028800  1
  N  658  1  0.18345200  0.21097800  0.22644300  1
  N  679  1  0.75079600  0.77823100  0.28232500  1
  N  682  1  0.67888600  0.77834200  0.24784600  1
  N  703  1  0.25036000  0.72003000  0.71569000  1
  N  706  1  0.17866000  0.71990000  0.75023000  1
  N  727  1  0.24030700  0.70415100  0.27429400  1
  N  730  1  0.31338800  0.70926200  0.24050200  1
  N  751  1  0.74018800  0.79405300  0.72399100  1
  N  754  1  0.81338200  0.78896400  0.75775500  1
  N  775  1  0.49564700  0.46640300  0.52962500  1
  N  778  1  0.56788800  0.50079200  0.52968500  1
  N  799  1  0.99537800  0.03176700  0.46877700  1
  N  802  1  0.06763100  0.99738300  0.46864600  1
  N  823  1  0.50733100  0.02393800  0.54462100  1
  N  826  1  0.43401800  0.99029300  0.53892500  1
  N  847  1  0.00776000  0.47437600  0.45356800  1
  N  850  1  0.93431900  0.50798100  0.45928600  1
  N  871  1  0.39450900  0.11164000  0.90580800  1
  N  874  1  0.42449600  0.14494400  0.87966600  1
  N  895  1  0.89461900  0.38663800  0.09249100  1
  N  898  1  0.92466600  0.35332700  0.11861600  1
  N  919  1  0.62782300  0.34623000  0.86786900  1
  N  922  1  0.65927700  0.37500100  0.89874700  1
  N  943  1  0.12840800  0.15186500  0.13047800  1
  N  946  1  0.15954200  0.12316100  0.09949800  1
  N  967  1  0.61870200  0.87652000  0.10012800  1
  N  970  1  0.58557400  0.84455700  0.12741900  1
  N  991  1  0.11886300  0.62173700  0.89800400  1
  N  994  1  0.08580200  0.65372300  0.87072800  1
  N  1015  1  0.40414400  0.64677200  0.13593100  1
  N  1018  1  0.35962600  0.61841600  0.10681600  1
  N  1039  1  0.90491700  0.85155900  0.86237000  1
  N  1042  1  0.86011400  0.87991200  0.89142400  1
  N  1063  1  0.84729600  0.61146900  0.39868500  1
  N  1066  1  0.89188200  0.64041700  0.37016800  1
  N  1087  1  0.34868600  0.88675500  0.59963300  1
  N  1090  1  0.39325000  0.85762100  0.62797300  1
  N  1111  1  0.12749500  0.84997900  0.37053500  1
  N  1114  1  0.16212100  0.87723900  0.40231500  1
  N  1135  1  0.62771200  0.64802100  0.62779100  1
  N  1138  1  0.66227000  0.62082700  0.59594600  1
  N  1159  1  0.11053500  0.38118100  0.59826300  1
  N  1162  1  0.07305700  0.35065500  0.62643100  1
  N  1183  1  0.61054300  0.11704600  0.39996900  1
  N  1186  1  0.57305100  0.14759300  0.37182800  1
  N  1207  1  0.90176800  0.14957600  0.63766000  1
  N  1210  1  0.85625900  0.12065500  0.60926600  1
  N  1231  1  0.40150400  0.34886300  0.36002300  1
  N  1234  1  0.35582400  0.37786400  0.38829900  1
  O  8  1  0.43778800  0.08286800  0.97173500  1
  O  15  1  0.05059700  0.07703500  0.04617200  1
  O  17  1  0.25530900  0.11705100  0.99143400  1
  O  18  1  0.19025200  0.04399800  0.99642400  1
  O  38  1  0.93787900  0.41543100  0.02657300  1
  O  45  1  0.55072400  0.42118200  0.95210700  1
  O  47  1  0.75541600  0.38124200  0.00684700  1
  O  48  1  0.69036600  0.45428000  0.00182900  1
  O  68  1  0.68063300  0.28176600  0.84538700  1
  O  75  1  0.30963100  0.19734000  0.83687500  1
  O  77  1  0.49920000  0.25826500  0.87809800  1
  O  78  1  0.44182800  0.25038900  0.80494500  1
  O  98  1  0.18053400  0.21639100  0.15308500  1
  O  105  1  0.80974600  0.30095900  0.16138800  1
  O  107  1  0.99935300  0.23994200  0.12023700  1
  O  108  1  0.94179100  0.24789000  0.19335200  1
  O  128  1  0.55562800  0.89876200  0.03452900  1
  O  135  1  0.91367200  0.91651000  0.94423300  1
  O  137  1  0.74611700  0.87208300  0.01326100  1
  O  138  1  0.78512800  0.94670500  0.99929700  1
  O  158  1  0.05592000  0.59946400  0.96358500  1
  O  165  1  0.41392100  0.58186000  0.05393700  1
  O  167  1  0.24633800  0.62617500  0.98490800  1
  O  168  1  0.28541700  0.55158800  0.99889300  1
  O  188  1  0.30624600  0.71573400  0.16702700  1
  O  195  1  0.69359900  0.79007400  0.17145800  1
  O  197  1  0.48587000  0.73582600  0.13076500  1
  O  198  1  0.55410400  0.73988300  0.20383200  1
  O  218  1  0.80652400  0.78258500  0.83124500  1
  O  225  1  0.19373100  0.70816200  0.82662200  1
  O  227  1  0.98625200  0.76249600  0.86743200  1
  O  228  1  0.05412200  0.75835000  0.79432000  1
  O  248  1  0.94201300  0.58124500  0.46710700  1
  O  255  1  0.55410600  0.57691000  0.54110800  1
  O  257  1  0.76291400  0.61750000  0.48770200  1
  O  258  1  0.69391000  0.54443800  0.49106800  1
  O  278  1  0.44186000  0.91699100  0.53117000  1
  O  285  1  0.05401400  0.92121500  0.45712500  1
  O  287  1  0.26267900  0.88074700  0.51064100  1
  O  288  1  0.19367800  0.95375900  0.50717500  1
  O  308  1  0.18837400  0.78427700  0.34842200  1
  O  315  1  0.83244600  0.69237500  0.33384700  1
  O  317  1  0.99870400  0.76318200  0.37601300  1
  O  318  1  0.95791800  0.74740700  0.30182000  1
  O  338  1  0.68822300  0.71379400  0.65004600  1
  O  345  1  0.33178000  0.80558400  0.66389800  1
  O  347  1  0.49876400  0.73483600  0.62225900  1
  O  348  1  0.45765200  0.75093200  0.69638200  1
  O  368  1  0.05950200  0.39951800  0.53330800  1
  O  375  1  0.42380600  0.41283600  0.44541200  1
  O  377  1  0.25027200  0.37228500  0.51339100  1
  O  378  1  0.28937400  0.44633700  0.49672900  1
  O  398  1  0.55960200  0.09872400  0.46481800  1
  O  405  1  0.92278600  0.08495600  0.55324500  1
  O  407  1  0.75045200  0.12581500  0.48487300  1
  O  408  1  0.78904200  0.05174200  0.50153000  1
  O  428  1  0.80354700  0.21660800  0.66228000  1
  O  435  1  0.17594400  0.29954300  0.67633500  1
  O  437  1  0.98879300  0.23946900  0.63192200  1
  O  438  1  0.03976500  0.24682100  0.70633700  1
  O  458  1  0.30406800  0.28183800  0.33603900  1
  O  465  1  0.67584200  0.19856700  0.32180500  1
  O  467  1  0.48948600  0.25897000  0.36624100  1
  O  468  1  0.53967900  0.25130200  0.29183400  1
  O  503  1  0.07741400  0.04315200  0.97948300  1
  O  504  1  0.90179300  0.94556700  0.01280600  1
  O  527  1  0.57748800  0.45508200  0.01873300  1
  O  528  1  0.40206500  0.55274800  0.98538600  1
  O  551  1  0.32718800  0.26492300  0.80398400  1
  O  552  1  0.15448200  0.23158500  0.70568000  1
  O  575  1  0.82702400  0.23337100  0.19415400  1
  O  576  1  0.65454200  0.26650600  0.29256200  1
  O  599  1  0.88195400  0.46968800  0.97138400  1
  O  600  1  0.08398600  0.54962200  0.02491700  1
  O  623  1  0.38173000  0.02854700  0.02686000  1
  O  624  1  0.58381600  0.94867200  0.97325500  1
  O  647  1  0.63995900  0.22303200  0.79293900  1
  O  648  1  0.83881400  0.27678900  0.71223900  1
  O  671  1  0.13997700  0.27522400  0.20539300  1
  O  672  1  0.33850400  0.22144600  0.28622700  1
  O  695  1  0.66686900  0.72342000  0.20601600  1
  O  696  1  0.84064300  0.76018200  0.30285700  1
  O  719  1  0.16691100  0.77480900  0.79209500  1
  O  720  1  0.34032900  0.73804400  0.69519100  1
  O  743  1  0.36418600  0.77244200  0.21922600  1
  O  744  1  0.16013400  0.72179100  0.30029800  1
  O  767  1  0.86398900  0.72578700  0.77915700  1
  O  768  1  0.65987600  0.77640200  0.69803700  1
  O  791  1  0.58172800  0.54210500  0.47440300  1
  O  792  1  0.40547600  0.44602400  0.51143000  1
  O  815  1  0.08134400  0.95587900  0.52380700  1
  O  816  1  0.90530800  0.05214500  0.48701600  1
  O  839  1  0.38340300  0.97005500  0.47535900  1
  O  840  1  0.58797600  0.05013400  0.52736700  1
  O  863  1  0.88352000  0.52811900  0.52286500  1
  O  864  1  0.08846400  0.44818200  0.47082000  1
  O  887  1  0.42236300  0.20913000  0.90202500  1
  O  888  1  0.30960400  0.10321700  0.93964400  1
  O  911  1  0.92258400  0.28915400  0.09622800  1
  O  912  1  0.80969400  0.39506700  0.05866200  1
  O  935  1  0.66387400  0.35725000  0.96422700  1
  O  936  1  0.54425400  0.31112400  0.86258800  1
  O  959  1  0.16347600  0.14102000  0.03406900  1
  O  960  1  0.04516400  0.18691300  0.13607300  1
  O  983  1  0.57994000  0.77988600  0.10706900  1
  O  984  1  0.70077500  0.88348400  0.06481300  1
  O  1007  1  0.08043000  0.71838600  0.89111500  1
  O  1008  1  0.20099500  0.61472400  0.93330500  1
  O  1031  1  0.24998200  0.62911100  0.06686700  1
  O  1032  1  0.45390200  0.68762600  0.13893500  1
  O  1055  1  0.74988900  0.86904600  0.93141400  1
  O  1056  1  0.95436700  0.81069000  0.85929700  1
  O  1079  1  0.99806800  0.68074100  0.37977800  1
  O  1080  1  0.79529400  0.60909700  0.43927700  1
  O  1103  1  0.49746000  0.81774400  0.61875800  1
  O  1104  1  0.29555300  0.88927800  0.55916700  1
  O  1127  1  0.16840600  0.85716300  0.46701700  1
  O  1128  1  0.04441700  0.81486800  0.36389000  1
  O  1151  1  0.66831100  0.64100800  0.53128700  1
  O  1152  1  0.54475700  0.68310000  0.63460000  1
  O  1175  1  0.07751100  0.28467600  0.61001200  1
  O  1176  1  0.19979700  0.38674200  0.56488300  1
  O  1199  1  0.57793700  0.21357200  0.38824400  1
  O  1200  1  0.69996000  0.11142600  0.43329000  1
  O  1223  1  0.76165700  0.12639700  0.57053600  1
  O  1224  1  0.95820800  0.18986400  0.63979300  1
  O  1247  1  0.26342600  0.37305300  0.42685800  1
  O  1248  1  0.45874400  0.30868600  0.35802600  1
