# generated using pymatgen
data_H9C16(N2O)2
_symmetry_space_group_name_H-M   'P 1'
_cell_length_a   32.14830000
_cell_length_b   41.85860000
_cell_length_c   54.35520000
_cell_angle_alpha   90.00000000
_cell_angle_beta   90.00000000
_cell_angle_gamma   90.00000000
_symmetry_Int_Tables_number   1
_chemical_formula_structural   H9C16(N2O)2
_chemical_formula_sum   'H288 C512 N128 O64'
_cell_volume   73144.85938187
_cell_formula_units_Z   32
loop_
 _symmetry_equiv_pos_site_id
 _symmetry_equiv_pos_as_xyz
  1  'x, y, z'
loop_
 _atom_site_type_symbol
 _atom_site_label
 _atom_site_symmetry_multiplicity
 _atom_site_fract_x
 _atom_site_fract_y
 _atom_site_fract_z
 _atom_site_occupancy
  H  7  1  0.00978400  0.22592500  0.34156300  1
  H  16  1  0.03365600  0.20198000  0.42114700  1
  H  17  1  0.10299900  0.31389500  0.35158900  1
  H  18  1  0.91644600  0.13159500  0.41601900  1
  H  19  1  0.09151700  0.21944600  0.40180000  1
  H  20  1  0.99892300  0.17369600  0.34968700  1
  H  31  1  0.50973100  0.85682800  0.66072300  1
  H  40  1  0.53374500  0.88076300  0.58112400  1
  H  41  1  0.60279600  0.76877200  0.65076600  1
  H  42  1  0.41650700  0.95111200  0.58616700  1
  H  43  1  0.59148600  0.86317800  0.60048700  1
  H  44  1  0.49883500  0.90900600  0.65256300  1
  H  55  1  0.47295100  0.87103000  0.33553900  1
  H  64  1  0.41387500  0.90775200  0.40374300  1
  H  65  1  0.40974400  0.76624900  0.34371700  1
  H  66  1  0.54334400  0.96097800  0.43041000  1
  H  67  1  0.41249700  0.85103000  0.40240300  1
  H  68  1  0.52335200  0.88795600  0.36404800  1
  H  79  1  0.97287200  0.21175600  0.66666667  1
  H  88  1  0.91371500  0.17501300  0.59853000  1
  H  89  1  0.90971800  0.31654900  0.65851000  1
  H  90  1  0.04316500  0.12174400  0.57185700  1
  H  91  1  0.91236500  0.23172600  0.59985800  1
  H  92  1  0.02322400  0.19477800  0.63820200  1
  H  103  1  0.99369400  0.87630100  0.67236500  1
  H  112  1  0.95526900  0.87169000  0.59986200  1
  H  113  1  0.88845700  0.79549500  0.68857100  1
  H  114  1  0.04575200  0.95942300  0.57908400  1
  H  115  1  0.88612100  0.87908800  0.62832100  1
  H  116  1  0.97519500  0.93892100  0.65652400  1
  H  127  1  0.49377400  0.20635800  0.32986400  1
  H  136  1  0.45529600  0.21096600  0.40237900  1
  H  137  1  0.38865800  0.28725100  0.31365400  1
  H  138  1  0.54575500  0.12321700  0.42314600  1
  H  139  1  0.38619400  0.20366000  0.37391100  1
  H  140  1  0.47526900  0.14377600  0.34569100  1
  H  151  1  0.51304700  0.22037700  0.66477000  1
  H  160  1  0.57926200  0.22260900  0.59614800  1
  H  161  1  0.61755600  0.29656300  0.69061100  1
  H  162  1  0.49568000  0.13244000  0.56244700  1
  H  163  1  0.62923000  0.21452200  0.62939700  1
  H  164  1  0.52238800  0.16101000  0.64702200  1
  H  175  1  0.01312400  0.86225600  0.33751700  1
  H  184  1  0.07936300  0.86002000  0.40610900  1
  H  185  1  0.11765000  0.78609400  0.31166500  1
  H  186  1  0.99582500  0.95018000  0.43985900  1
  H  187  1  0.12933600  0.86816800  0.37284800  1
  H  188  1  0.02250100  0.92166500  0.35526500  1
  H  199  1  0.00954400  0.72523200  0.84127800  1
  H  208  1  0.03316400  0.70214300  0.92106000  1
  H  209  1  0.10329800  0.81316400  0.85062700  1
  H  210  1  0.91644900  0.63119000  0.91616900  1
  H  211  1  0.09109300  0.71946800  0.90165300  1
  H  212  1  0.99885700  0.67306100  0.84971900  1
  H  223  1  0.50960000  0.35750100  0.16098200  1
  H  232  1  0.53316900  0.38061200  0.08120900  1
  H  233  1  0.60343700  0.26962200  0.15159800  1
  H  234  1  0.41641700  0.45152700  0.08612700  1
  H  235  1  0.59114400  0.36334200  0.10061000  1
  H  236  1  0.49889400  0.40968700  0.15255800  1
  H  247  1  0.47324700  0.37071500  0.83519700  1
  H  256  1  0.41410200  0.40693900  0.90347600  1
  H  257  1  0.40943000  0.26586700  0.84303500  1
  H  258  1  0.54318200  0.46054800  0.93030200  1
  H  259  1  0.41317200  0.35018400  0.90209600  1
  H  260  1  0.52372900  0.38763600  0.86378500  1
  H  271  1  0.97332000  0.71202800  0.16704500  1
  H  280  1  0.91415000  0.67579000  0.09878000  1
  H  281  1  0.90945000  0.81686000  0.15923000  1
  H  282  1  0.04322200  0.62220900  0.07192200  1
  H  283  1  0.91318600  0.73255000  0.10016200  1
  H  284  1  0.02379000  0.69513800  0.13844300  1
  H  295  1  0.99333600  0.37804400  0.17348900  1
  H  304  1  0.95565100  0.37152200  0.10036900  1
  H  305  1  0.88672700  0.29864400  0.19171700  1
  H  306  1  0.04618300  0.45901900  0.07911600  1
  H  307  1  0.88672400  0.37869200  0.12855100  1
  H  308  1  0.97546900  0.43932700  0.15663200  1
  H  319  1  0.49335100  0.70481600  0.82887200  1
  H  328  1  0.45569700  0.71131900  0.90197900  1
  H  329  1  0.38661700  0.78412800  0.81063900  1
  H  330  1  0.54611200  0.62375300  0.92325900  1
  H  331  1  0.38672000  0.70406600  0.87379400  1
  H  332  1  0.47542400  0.64347900  0.84573200  1
  H  343  1  0.51394000  0.71942500  0.16604000  1
  H  352  1  0.57864300  0.72434800  0.09662300  1
  H  353  1  0.61998900  0.79341400  0.19410800  1
  H  354  1  0.49520100  0.63470400  0.06207900  1
  H  355  1  0.62914300  0.71577000  0.12934400  1
  H  356  1  0.52289200  0.66136500  0.14691700  1
  H  367  1  0.01396800  0.36334500  0.83620600  1
  H  376  1  0.07861600  0.35831600  0.90560700  1
  H  377  1  0.12001900  0.28937400  0.80811300  1
  H  378  1  0.99515600  0.44789900  0.94022000  1
  H  379  1  0.12917400  0.36698800  0.87289800  1
  H  380  1  0.02297700  0.42142600  0.85536100  1
  H  395  1  0.93954200  0.23642400  0.55348900  1
  H  396  1  0.00312500  0.10803600  0.47897400  1
  H  397  1  0.97534500  0.08910900  0.51669800  1
  H  399  1  0.99290400  0.22113300  0.48603500  1
  H  401  1  0.03314600  0.18163900  0.46213500  1
  H  403  1  0.91835900  0.10564400  0.54733500  1
  H  414  1  0.43962500  0.84636400  0.44877100  1
  H  415  1  0.50337300  0.97472200  0.52327500  1
  H  416  1  0.47555800  0.99367200  0.48555600  1
  H  418  1  0.49304900  0.86163200  0.51620800  1
  H  420  1  0.53325600  0.90108200  0.54012200  1
  H  422  1  0.41853500  0.97716400  0.45489500  1
  H  433  1  0.00603200  0.79820200  0.48489000  1
  H  434  1  0.00882500  0.95999200  0.51958300  1
  H  435  1  0.05239600  0.95130100  0.48501200  1
  H  437  1  0.95364200  0.85683500  0.53684900  1
  H  439  1  0.95100100  0.93658000  0.54760900  1
  H  441  1  0.09887500  0.88997800  0.47418100  1
  H  452  1  0.50637200  0.28450300  0.51718500  1
  H  453  1  0.50857100  0.12261200  0.48276500  1
  H  454  1  0.55211000  0.13129300  0.51733800  1
  H  456  1  0.45380900  0.22585100  0.46530100  1
  H  458  1  0.45094400  0.14607900  0.45454900  1
  H  460  1  0.59879000  0.19260400  0.52809700  1
  H  471  1  0.93922100  0.73706000  0.05352200  1
  H  472  1  0.00289800  0.60851600  0.97918700  1
  H  473  1  0.97523600  0.58967100  0.01697000  1
  H  475  1  0.99237500  0.72162700  0.98602900  1
  H  477  1  0.03255000  0.68223800  0.96217700  1
  H  479  1  0.91820000  0.60633000  0.04765500  1
  H  490  1  0.43935700  0.34564000  0.94873200  1
  H  491  1  0.50277300  0.47422800  0.02309400  1
  H  492  1  0.47514800  0.49304600  0.98529900  1
  H  494  1  0.49240500  0.36110600  0.01625000  1
  H  496  1  0.53256600  0.40054900  0.04010500  1
  H  498  1  0.41817400  0.47635900  0.95463800  1
  H  509  1  0.00277700  0.29661500  0.98566000  1
  H  510  1  0.01054100  0.45860800  0.01954800  1
  H  511  1  0.05355900  0.44888500  0.98488300  1
  H  513  1  0.95262800  0.35652700  0.03752500  1
  H  515  1  0.95188100  0.43625500  0.04777600  1
  H  517  1  0.09786600  0.38618800  0.97400500  1
  H  528  1  0.50296200  0.78606100  0.01684100  1
  H  529  1  0.51042800  0.62414400  0.98268300  1
  H  530  1  0.55354400  0.63372200  0.01734100  1
  H  532  1  0.45263000  0.72631900  0.96492000  1
  H  534  1  0.45175600  0.64661800  0.95460800  1
  H  536  1  0.59798700  0.69622800  0.02826100  1
  H  547  1  0.93906000  0.39046200  0.28172300  1
  H  548  1  0.05361000  0.25129600  0.25581700  1
  H  549  1  0.04115500  0.28097500  0.21922500  1
  H  551  1  0.98727100  0.31314700  0.31816300  1
  H  553  1  0.01710700  0.24134400  0.29962600  1
  H  555  1  0.02259500  0.33937600  0.20282900  1
  H  566  1  0.43927000  0.69220400  0.72066900  1
  H  567  1  0.55341000  0.83159800  0.74649200  1
  H  568  1  0.54099500  0.80195300  0.78310700  1
  H  570  1  0.48726300  0.76955800  0.68418000  1
  H  572  1  0.51706000  0.84147100  0.70267500  1
  H  574  1  0.52256200  0.74353700  0.79954100  1
  H  585  1  0.55271300  0.69828000  0.27615600  1
  H  586  1  0.45053000  0.84322000  0.25064600  1
  H  587  1  0.46437900  0.81465200  0.21363900  1
  H  589  1  0.50691000  0.77595800  0.31316400  1
  H  591  1  0.48620900  0.84810100  0.29707200  1
  H  593  1  0.48160500  0.75627000  0.19599800  1
  H  604  1  0.05279900  0.38445900  0.72607800  1
  H  605  1  0.95045700  0.23959000  0.75161000  1
  H  606  1  0.96433900  0.26815500  0.78861100  1
  H  608  1  0.00690100  0.30680400  0.68908100  1
  H  610  1  0.98599200  0.23461200  0.70522500  1
  H  612  1  0.98163100  0.32651400  0.80625100  1
  H  623  1  0.03767300  0.69682700  0.72775400  1
  H  624  1  0.00145100  0.85620400  0.76282000  1
  H  625  1  0.01547900  0.82398600  0.79791900  1
  H  627  1  0.01079000  0.78311100  0.69589000  1
  H  629  1  0.01555100  0.85682100  0.71251700  1
  H  631  1  0.01867600  0.73919100  0.79925200  1
  H  642  1  0.53779500  0.38586600  0.27450400  1
  H  643  1  0.50157500  0.22650000  0.23941200  1
  H  644  1  0.51557600  0.25873100  0.20431900  1
  H  646  1  0.51094400  0.29957100  0.30635500  1
  H  648  1  0.51568800  0.22586800  0.28972200  1
  H  650  1  0.51875200  0.34352300  0.20300600  1
  H  661  1  0.46761100  0.39747200  0.72429400  1
  H  662  1  0.49390400  0.23553000  0.75529700  1
  H  663  1  0.47877400  0.26630900  0.79094200  1
  H  665  1  0.49301800  0.31210100  0.69054100  1
  H  667  1  0.48457900  0.23828800  0.70415400  1
  H  669  1  0.48128500  0.35028400  0.79541100  1
  H  680  1  0.96749700  0.68523800  0.27796100  1
  H  681  1  0.99404500  0.84716000  0.24697000  1
  H  682  1  0.97890600  0.81639600  0.21131900  1
  H  684  1  0.99298200  0.77058700  0.31172400  1
  H  686  1  0.98477000  0.84451300  0.29803600  1
  H  688  1  0.98127000  0.73240700  0.20685200  1
  H  699  1  0.86751900  0.98129700  0.39926500  1
  H  700  1  0.01225000  0.08959100  0.34953600  1
  H  701  1  0.04310900  0.03852500  0.35477000  1
  H  703  1  0.87477900  0.07586300  0.38010600  1
  H  705  1  0.91179200  0.10385500  0.34444600  1
  H  707  1  0.02893800  0.98017900  0.35717900  1
  H  718  1  0.36740900  0.10134300  0.60296700  1
  H  719  1  0.51212900  0.99306000  0.65274200  1
  H  720  1  0.54297400  0.04415200  0.64753700  1
  H  722  1  0.37467900  0.00677500  0.62211700  1
  H  724  1  0.41159500  0.97875500  0.65776100  1
  H  726  1  0.52879000  0.10249300  0.64513500  1
  H  737  1  0.64004900  0.09323700  0.40181100  1
  H  738  1  0.51498200  0.97430900  0.34797800  1
  H  739  1  0.48558400  0.02579100  0.34142100  1
  H  741  1  0.63590200  0.99572200  0.39614400  1
  H  743  1  0.61313000  0.95653000  0.36737300  1
  H  745  1  0.50063300  0.08704200  0.34090400  1
  H  756  1  0.14000600  0.98950100  0.60042900  1
  H  757  1  0.01482500  0.10837200  0.65424300  1
  H  758  1  0.98546000  0.05688000  0.66079100  1
  H  760  1  0.13578200  0.08701300  0.60609300  1
  H  762  1  0.11297400  0.12618600  0.63486100  1
  H  764  1  0.00053400  0.99564000  0.66130000  1
  H  775  1  0.86793000  0.48023800  0.89917800  1
  H  776  1  0.01304300  0.58909500  0.85057200  1
  H  777  1  0.04415700  0.53818400  0.85611700  1
  H  779  1  0.87497900  0.57481600  0.88004000  1
  H  781  1  0.91233000  0.60279600  0.84471400  1
  H  783  1  0.03059000  0.47991800  0.85841100  1
  H  794  1  0.36777600  0.60247900  0.10315100  1
  H  795  1  0.51296900  0.49367400  0.15174800  1
  H  796  1  0.54402200  0.54461200  0.14624300  1
  H  798  1  0.37491500  0.50788400  0.12223200  1
  H  800  1  0.41231400  0.47991600  0.15757800  1
  H  802  1  0.53036300  0.60287500  0.14397800  1
  H  813  1  0.64000500  0.59293200  0.90227500  1
  H  814  1  0.51505000  0.47426600  0.84800800  1
  H  815  1  0.48564900  0.52577500  0.84159400  1
  H  817  1  0.63589000  0.49544700  0.89630300  1
  H  819  1  0.61321100  0.45644400  0.86735100  1
  H  821  1  0.50090000  0.58700000  0.84115800  1
  H  832  1  0.14015300  0.48980400  0.10016500  1
  H  833  1  0.01509500  0.60856300  0.15422700  1
  H  834  1  0.98569700  0.55706600  0.16068500  1
  H  836  1  0.13599800  0.58730100  0.10600500  1
  H  838  1  0.11328700  0.62635400  0.13488800  1
  H  840  1  0.00075500  0.49589800  0.16116000  1
  H  851  1  0.31182300  0.35345900  0.34648400  1
  H  852  1  0.18801300  0.21922800  0.37312000  1
  H  853  1  0.24722600  0.20421900  0.34950900  1
  H  855  1  0.20177400  0.33215900  0.38089300  1
  H  857  1  0.18125900  0.28626900  0.40703900  1
  H  859  1  0.30855000  0.23121300  0.31881800  1
  H  870  1  0.81169400  0.72925800  0.65591700  1
  H  871  1  0.68785500  0.86342400  0.62911400  1
  H  872  1  0.74709900  0.87848900  0.65270500  1
  H  874  1  0.70163500  0.75047000  0.62148800  1
  H  876  1  0.68109300  0.79625500  0.59528100  1
  H  878  1  0.80845300  0.85132800  0.68348600  1
  H  889  1  0.20127400  0.71571000  0.33625900  1
  H  890  1  0.31719200  0.85002400  0.37300200  1
  H  891  1  0.25915100  0.86566200  0.34867200  1
  H  893  1  0.30815700  0.73620700  0.37420900  1
  H  895  1  0.32885700  0.77837800  0.40180900  1
  H  897  1  0.19948500  0.83445200  0.31339800  1
  H  908  1  0.70106000  0.36695000  0.66599600  1
  H  909  1  0.81713100  0.23272400  0.62924800  1
  H  910  1  0.75910000  0.21704100  0.65356100  1
  H  912  1  0.80799500  0.34653300  0.62807100  1
  H  914  1  0.82874300  0.30438900  0.60045800  1
  H  916  1  0.69941400  0.24814700  0.68882900  1
  H  927  1  0.31248600  0.85185900  0.84544100  1
  H  928  1  0.18730200  0.71853100  0.87253300  1
  H  929  1  0.24627500  0.70305100  0.84888000  1
  H  931  1  0.20233300  0.83140700  0.88003000  1
  H  933  1  0.18139900  0.78589400  0.90628000  1
  H  935  1  0.30778300  0.72930100  0.81815400  1
  H  946  1  0.81249000  0.23088800  0.15685900  1
  H  947  1  0.68742300  0.36426900  0.12972500  1
  H  948  1  0.74636800  0.37972100  0.15340600  1
  H  950  1  0.70240000  0.25138900  0.12221400  1
  H  952  1  0.68151900  0.29696900  0.09596400  1
  H  954  1  0.80778700  0.35361900  0.18411300  1
  H  965  1  0.20090100  0.21697000  0.83486800  1
  H  966  1  0.31820300  0.35005000  0.87272100  1
  H  967  1  0.26058100  0.36635700  0.84829500  1
  H  969  1  0.30767300  0.23629400  0.87328400  1
  H  971  1  0.32886000  0.27800000  0.90112700  1
  H  973  1  0.20100500  0.33630100  0.81272300  1
  H  984  1  0.70088600  0.86576300  0.16736700  1
  H  985  1  0.81821700  0.73268400  0.12954800  1
  H  986  1  0.76056800  0.71636700  0.15394700  1
  H  988  1  0.80770600  0.84643600  0.12899900  1
  H  990  1  0.82887000  0.80473100  0.10114600  1
  H  992  1  0.70098800  0.74635600  0.18948700  1
  C  1  1  0.04689600  0.21727100  0.37306500  1
  C  2  1  0.03651000  0.23229200  0.35040500  1
  C  3  1  0.06052800  0.25732600  0.34005000  1
  C  4  1  0.09477900  0.26922300  0.35357400  1
  C  5  1  0.10611500  0.25490100  0.37614600  1
  C  6  1  0.08247500  0.22923600  0.38541700  1
  C  9  1  0.02186700  0.19187400  0.38355500  1
  C  10  1  0.99792700  0.17130400  0.36839900  1
  C  11  1  0.97187000  0.14738500  0.37814400  1
  C  12  1  0.96953400  0.14317300  0.40389900  1
  C  13  1  0.99386500  0.16236600  0.41976300  1
  C  14  1  0.01883600  0.18679300  0.40938900  1
  C  25  1  0.54686200  0.86543300  0.62921900  1
  C  26  1  0.53645100  0.85043700  0.65188600  1
  C  27  1  0.56043000  0.82539600  0.66225900  1
  C  28  1  0.59466200  0.81345100  0.64874400  1
  C  29  1  0.60601900  0.82773700  0.62616300  1
  C  30  1  0.58242500  0.85341900  0.61687600  1
  C  33  1  0.52186500  0.89084000  0.61871200  1
  C  34  1  0.49788600  0.91140400  0.63385300  1
  C  35  1  0.47183500  0.93531800  0.62409500  1
  C  36  1  0.46956400  0.93954700  0.59833900  1
  C  37  1  0.49394200  0.92036800  0.58248900  1
  C  38  1  0.51889800  0.89593800  0.59287800  1
  C  49  1  0.44519600  0.86615000  0.37059200  1
  C  50  1  0.45325500  0.85733900  0.34581600  1
  C  51  1  0.43539700  0.82975800  0.33495600  1
  C  52  1  0.40783500  0.81089200  0.34911700  1
  C  53  1  0.39825700  0.81963400  0.37358400  1
  C  54  1  0.41782000  0.84639000  0.38418400  1
  C  57  1  0.46540500  0.89287800  0.38224100  1
  C  58  1  0.50706200  0.90115100  0.37664300  1
  C  59  1  0.52701000  0.92749700  0.38773700  1
  C  60  1  0.50629700  0.94478100  0.40649500  1
  C  61  1  0.46495700  0.93674900  0.41277800  1
  C  62  1  0.44461100  0.91190400  0.39998800  1
  C  73  1  0.94507900  0.21661500  0.63166800  1
  C  74  1  0.95316900  0.22544100  0.65643600  1
  C  75  1  0.93533600  0.25303500  0.66729100  1
  C  76  1  0.90777300  0.27190400  0.65313000  1
  C  77  1  0.89816800  0.26314800  0.62867200  1
  C  78  1  0.91770200  0.23637500  0.61807600  1
  C  81  1  0.96526300  0.18987200  0.62002200  1
  C  82  1  0.00691800  0.18158300  0.62561500  1
  C  83  1  0.02684500  0.15522800  0.61452100  1
  C  84  1  0.00611200  0.13794800  0.59576700  1
  C  85  1  0.96477200  0.14599300  0.58949300  1
  C  86  1  0.94444700  0.17084900  0.60228300  1
  C  97  1  0.94290400  0.88105700  0.64797500  1
  C  98  1  0.96350600  0.86972400  0.66929400  1
  C  99  1  0.94383400  0.84805300  0.68562700  1
  C  100  1  0.90258800  0.83812700  0.68059600  1
  C  101  1  0.88093800  0.85031300  0.65994800  1
  C  102  1  0.90166700  0.87090100  0.64353600  1
  C  105  1  0.96266300  0.90198900  0.63090000  1
  C  106  1  0.97763700  0.93225600  0.63847700  1
  C  107  1  0.99508100  0.95375900  0.62127900  1
  C  108  1  0.99831000  0.94464700  0.59633500  1
  C  109  1  0.98261400  0.91487600  0.58831000  1
  C  110  1  0.96558700  0.89356600  0.60569200  1
  C  121  1  0.44297800  0.20163900  0.35425500  1
  C  122  1  0.46359200  0.21295800  0.33293400  1
  C  123  1  0.44395500  0.23464900  0.31660500  1
  C  124  1  0.40272100  0.24460700  0.32163600  1
  C  125  1  0.38105900  0.23244000  0.34228400  1
  C  126  1  0.40175300  0.21183300  0.35869600  1
  C  129  1  0.46270800  0.18069000  0.37132800  1
  C  130  1  0.47769200  0.15042900  0.36374500  1
  C  131  1  0.49512100  0.12891300  0.38093900  1
  C  132  1  0.49832400  0.13800500  0.40588600  1
  C  133  1  0.48262200  0.16777100  0.41391800  1
  C  134  1  0.46561400  0.18909300  0.39654200  1
  C  145  1  0.56820100  0.21445300  0.64413000  1
  C  146  1  0.54408100  0.22565600  0.66416100  1
  C  147  1  0.56163400  0.24567200  0.68249400  1
  C  148  1  0.60407500  0.25449700  0.68070200  1
  C  149  1  0.62910000  0.24235400  0.66146100  1
  C  150  1  0.61084400  0.22278700  0.64343600  1
  C  153  1  0.55108900  0.19572600  0.62455000  1
  C  154  1  0.52896700  0.16718400  0.62922800  1
  C  155  1  0.51924300  0.14553900  0.60999700  1
  C  156  1  0.53032300  0.15326300  0.58546000  1
  C  157  1  0.55202900  0.18187300  0.58034600  1
  C  158  1  0.56177700  0.20269500  0.59986700  1
  C  169  1  0.06829700  0.86821100  0.35813300  1
  C  170  1  0.04416200  0.85699300  0.33811500  1
  C  171  1  0.06171100  0.83697500  0.31978000  1
  C  172  1  0.10415700  0.82816200  0.32156100  1
  C  173  1  0.12919300  0.84032500  0.34079000  1
  C  174  1  0.11094300  0.85989300  0.35881600  1
  C  177  1  0.05119000  0.88692700  0.37772100  1
  C  178  1  0.02907900  0.91547800  0.37305600  1
  C  179  1  0.01937000  0.93711200  0.39229600  1
  C  180  1  0.03044900  0.92936700  0.41682900  1
  C  181  1  0.05214500  0.90075000  0.42193000  1
  C  182  1  0.06188100  0.87993900  0.40240000  1
  C  193  1  0.04651700  0.71699500  0.87290700  1
  C  194  1  0.03621400  0.73173000  0.85012300  1
  C  195  1  0.06032900  0.75658100  0.83959100  1
  C  196  1  0.09461400  0.76858300  0.85303000  1
  C  197  1  0.10584500  0.75455700  0.87572900  1
  C  198  1  0.08208400  0.72908100  0.88520200  1
  C  201  1  0.02153600  0.69165500  0.88351500  1
  C  202  1  0.99779100  0.67085200  0.86844200  1
  C  203  1  0.97187900  0.64690700  0.87828400  1
  C  204  1  0.96948400  0.64292200  0.90405900  1
  C  205  1  0.99361300  0.66237100  0.91984800  1
  C  206  1  0.01845300  0.68680500  0.90937100  1
  C  217  1  0.54656600  0.36577200  0.12935600  1
  C  218  1  0.53627700  0.35102200  0.15213500  1
  C  219  1  0.56041200  0.32617700  0.16265900  1
  C  220  1  0.59470900  0.31420100  0.14921600  1
  C  221  1  0.60592900  0.32824600  0.12652200  1
  C  222  1  0.58214500  0.35371500  0.11705800  1
  C  225  1  0.52156400  0.39110300  0.11875600  1
  C  226  1  0.49781400  0.41189900  0.13383500  1
  C  227  1  0.47188100  0.43583400  0.12399700  1
  C  228  1  0.46946800  0.43981700  0.09822200  1
  C  229  1  0.49359600  0.42037500  0.08242900  1
  C  230  1  0.51845900  0.39595000  0.09290100  1
  C  241  1  0.44570900  0.36553800  0.87029100  1
  C  242  1  0.45362500  0.35693500  0.84545400  1
  C  243  1  0.43562800  0.32947600  0.83449100  1
  C  244  1  0.40818000  0.31047600  0.84862600  1
  C  245  1  0.39880100  0.31899500  0.87316400  1
  C  246  1  0.41844500  0.34565400  0.88385500  1
  C  249  1  0.46576600  0.39229000  0.88199000  1
  C  250  1  0.50736400  0.40073700  0.87640600  1
  C  251  1  0.52714100  0.42712400  0.88755300  1
  C  252  1  0.50629400  0.44428900  0.90632800  1
  C  253  1  0.46499100  0.43609900  0.91257600  1
  C  254  1  0.44482600  0.41120100  0.89975100  1
  C  265  1  0.94575000  0.71720300  0.13195900  1
  C  266  1  0.95367900  0.72580300  0.15679400  1
  C  267  1  0.93567200  0.75325500  0.16776400  1
  C  268  1  0.90821200  0.77225000  0.15363800  1
  C  269  1  0.89882100  0.76373300  0.12910000  1
  C  270  1  0.91846400  0.73707700  0.11840300  1
  C  273  1  0.96581700  0.69046100  0.12025100  1
  C  274  1  0.00742700  0.68203200  0.12582600  1
  C  275  1  0.02721100  0.65565000  0.11467800  1
  C  276  1  0.00636300  0.63847400  0.09591000  1
  C  277  1  0.96505500  0.64664900  0.08966800  1
  C  278  1  0.94488000  0.67154000  0.10249700  1
  C  289  1  0.94321800  0.38138900  0.14844500  1
  C  290  1  0.96344700  0.37089600  0.17013900  1
  C  291  1  0.94341400  0.35003100  0.18692400  1
  C  292  1  0.90189100  0.34053700  0.18221300  1
  C  293  1  0.88078900  0.35156700  0.16098500  1
  C  294  1  0.90202500  0.37109700  0.14403200  1
  C  297  1  0.96303600  0.40210900  0.13123700  1
  C  298  1  0.97797300  0.43246600  0.13862900  1
  C  299  1  0.99544800  0.45380700  0.12132500  1
  C  300  1  0.99871400  0.44444900  0.09644000  1
  C  301  1  0.98300600  0.41460100  0.08858300  1
  C  302  1  0.96597900  0.39345100  0.10607800  1
  C  313  1  0.44322700  0.70143100  0.85391000  1
  C  314  1  0.46344900  0.71194200  0.83222100  1
  C  315  1  0.44339200  0.73279100  0.81543500  1
  C  316  1  0.40185000  0.74224700  0.82013900  1
  C  317  1  0.38075700  0.73119300  0.84136200  1
  C  318  1  0.40201500  0.71168200  0.85831600  1
  C  321  1  0.46306000  0.68072100  0.87111700  1
  C  322  1  0.47795300  0.65034700  0.86373200  1
  C  323  1  0.49540100  0.62899900  0.88104000  1
  C  324  1  0.49867600  0.63836600  0.90592300  1
  C  325  1  0.48301400  0.66823100  0.91377300  1
  C  326  1  0.46600900  0.68938500  0.89627400  1
  C  337  1  0.56844900  0.71496200  0.14455000  1
  C  338  1  0.54481500  0.72516300  0.16509500  1
  C  339  1  0.56290300  0.74404300  0.18394100  1
  C  340  1  0.60555200  0.75232800  0.18238500  1
  C  341  1  0.62995500  0.74154200  0.16239800  1
  C  342  1  0.61108600  0.72331900  0.14376500  1
  C  345  1  0.55104300  0.69672200  0.12478700  1
  C  346  1  0.52917800  0.66798500  0.12918200  1
  C  347  1  0.51933600  0.64672800  0.10971900  1
  C  348  1  0.53004900  0.65503200  0.08523800  1
  C  349  1  0.55153700  0.68382600  0.08041000  1
  C  350  1  0.56135100  0.70427600  0.10015400  1
  C  361  1  0.06848300  0.36780000  0.85769000  1
  C  362  1  0.04484400  0.35761100  0.83714600  1
  C  363  1  0.06293200  0.33873800  0.81829200  1
  C  364  1  0.10558200  0.33045600  0.81984300  1
  C  365  1  0.12998800  0.34123500  0.83983200  1
  C  366  1  0.11112000  0.35944800  0.85847200  1
  C  369  1  0.05107000  0.38601400  0.87746400  1
  C  370  1  0.02923600  0.41477000  0.87309300  1
  C  371  1  0.01938100  0.43598900  0.89257600  1
  C  372  1  0.03004300  0.42762800  0.91705400  1
  C  373  1  0.05150800  0.39881700  0.92185700  1
  C  374  1  0.06134400  0.37840500  0.90209300  1
  C  385  1  0.99527700  0.15750800  0.48647300  1
  C  386  1  0.98161900  0.17961300  0.50471000  1
  C  387  1  0.96497100  0.16784400  0.52738300  1
  C  388  1  0.96261600  0.13460900  0.53232300  1
  C  389  1  0.97754400  0.11330600  0.51417700  1
  C  390  1  0.99370000  0.12448300  0.49176900  1
  C  392  1  0.95101000  0.22137600  0.54035700  1
  C  393  1  0.96769900  0.23314000  0.51832200  1
  C  400  1  0.00889000  0.16705300  0.46336000  1
  C  402  1  0.93985900  0.12167300  0.55177100  1
  C  404  1  0.49541900  0.92525600  0.51578700  1
  C  405  1  0.48174500  0.90315800  0.49754600  1
  C  406  1  0.46507500  0.91493500  0.47488200  1
  C  407  1  0.46269000  0.94817600  0.46997200  1
  C  408  1  0.47773600  0.96947400  0.48808100  1
  C  409  1  0.49387000  0.95828400  0.51049100  1
  C  411  1  0.45110300  0.86140800  0.46190100  1
  C  412  1  0.46782200  0.84963700  0.48392600  1
  C  419  1  0.50904000  0.91570700  0.53889600  1
  C  421  1  0.44001700  0.96110800  0.45048500  1
  C  423  1  0.98800200  0.91195200  0.52321200  1
  C  424  1  0.99106900  0.88086100  0.51276600  1
  C  425  1  0.01678200  0.87620300  0.49165300  1
  C  426  1  0.03888700  0.90194900  0.48090700  1
  C  427  1  0.03472000  0.93264000  0.49128700  1
  C  428  1  0.00910500  0.93767100  0.51183500  1
  C  430  1  0.00173300  0.82030700  0.49242000  1
  C  431  1  0.97612500  0.82471500  0.51303700  1
  C  438  1  0.97012200  0.91798900  0.54592000  1
  C  440  1  0.07263000  0.89619100  0.46585400  1
  C  442  1  0.48791600  0.17069200  0.47903600  1
  C  443  1  0.49110500  0.20179900  0.48944000  1
  C  444  1  0.51681100  0.20645800  0.51055700  1
  C  445  1  0.53879000  0.18068600  0.52136000  1
  C  446  1  0.53451600  0.14997900  0.51102400  1
  C  447  1  0.50893200  0.14496400  0.49046100  1
  C  449  1  0.50200100  0.26238800  0.50968700  1
  C  450  1  0.47640400  0.25798500  0.48906500  1
  C  457  1  0.47012100  0.16462800  0.45631900  1
  C  459  1  0.57253400  0.18640700  0.53642200  1
  C  461  1  0.99490400  0.65800100  0.98658300  1
  C  462  1  0.98125500  0.68015000  0.00479700  1
  C  463  1  0.96470000  0.66843400  0.02751100  1
  C  464  1  0.96238000  0.63520800  0.03248500  1
  C  465  1  0.97736600  0.61386200  0.01439600  1
  C  466  1  0.99345400  0.62499000  0.99195700  1
  C  468  1  0.95067800  0.72198600  0.04040600  1
  C  469  1  0.96726900  0.73370100  0.01833000  1
  C  476  1  0.00847500  0.66748100  0.96344100  1
  C  478  1  0.93977200  0.62233400  0.05201900  1
  C  480  1  0.49488400  0.42473200  0.01569100  1
  C  481  1  0.48128200  0.40257700  0.99747300  1
  C  482  1  0.46475500  0.41428300  0.97475000  1
  C  483  1  0.46245300  0.44750200  0.96974400  1
  C  484  1  0.47731600  0.46885700  0.98786900  1
  C  485  1  0.49337200  0.45774400  0.01032100  1
  C  487  1  0.45078900  0.36072200  0.96185100  1
  C  488  1  0.46735200  0.34901800  0.98394000  1
  C  495  1  0.50844600  0.41526200  0.03883600  1
  C  497  1  0.43976200  0.46037600  0.95024800  1
  C  499  1  0.98842500  0.41094600  0.02349800  1
  C  500  1  0.99048400  0.37972600  0.01319600  1
  C  501  1  0.01585000  0.37446300  0.99202200  1
  C  502  1  0.03857400  0.39974800  0.98107500  1
  C  503  1  0.03547400  0.43056900  0.99135400  1
  C  504  1  0.01016400  0.43620700  0.01193900  1
  C  506  1  0.99920300  0.31884500  0.99310300  1
  C  507  1  0.97394200  0.32384800  0.01378900  1
  C  514  1  0.97073500  0.41748900  0.04615300  1
  C  516  1  0.07185300  0.39328600  0.96584000  1
  C  518  1  0.48837100  0.67183100  0.97884300  1
  C  519  1  0.49049800  0.70302400  0.98919000  1
  C  520  1  0.51589600  0.70821800  0.01036100  1
  C  521  1  0.53859100  0.68286600  0.02122200  1
  C  522  1  0.53541500  0.65205500  0.01094500  1
  C  523  1  0.51007900  0.64651000  0.99035500  1
  C  525  1  0.49932900  0.76385000  0.00937300  1
  C  526  1  0.47402800  0.75892000  0.98869500  1
  C  533  1  0.47062800  0.66537800  0.95617900  1
  C  535  1  0.57193000  0.68925900  0.03644000  1
  C  537  1  0.02272800  0.28314400  0.28021600  1
  C  538  1  0.99988400  0.31229900  0.28130200  1
  C  539  1  0.99256800  0.32980300  0.25913100  1
  C  540  1  0.00738000  0.31865400  0.23610400  1
  C  541  1  0.03034100  0.28992900  0.23555400  1
  C  542  1  0.03758500  0.27237900  0.25717900  1
  C  544  1  0.95530300  0.36949600  0.28176700  1
  C  545  1  0.96189800  0.35235300  0.30358100  1
  C  552  1  0.02870200  0.26333400  0.30038200  1
  C  554  1  0.99917800  0.33427600  0.21409600  1
  C  556  1  0.52258700  0.79968800  0.72211500  1
  C  557  1  0.49984900  0.77048000  0.72104300  1
  C  558  1  0.49256100  0.75299700  0.74322600  1
  C  559  1  0.50731400  0.76420900  0.76624900  1
  C  560  1  0.53022000  0.79296000  0.76678100  1
  C  561  1  0.53742100  0.81049600  0.74514500  1
  C  563  1  0.45544200  0.71320100  0.72061400  1
  C  564  1  0.46201200  0.73032300  0.69878700  1
  C  571  1  0.52857500  0.81945400  0.70192400  1
  C  573  1  0.49913600  0.74859900  0.78826700  1
  C  575  1  0.47687400  0.80900500  0.27498400  1
  C  576  1  0.49750000  0.77887700  0.27601400  1
  C  577  1  0.50551300  0.76203000  0.25365400  1
  C  578  1  0.49362700  0.77481600  0.23053900  1
  C  579  1  0.47285200  0.80451400  0.23003900  1
  C  580  1  0.46484800  0.82141300  0.25187900  1
  C  582  1  0.53794100  0.71987600  0.27628800  1
  C  583  1  0.53066200  0.73636000  0.29832100  1
  C  590  1  0.47037600  0.82783700  0.29558200  1
  C  592  1  0.50366500  0.76010500  0.20845100  1
  C  594  1  0.97682200  0.27378600  0.72726500  1
  C  595  1  0.99748900  0.30389700  0.72623100  1
  C  596  1  0.00552700  0.32074200  0.74858900  1
  C  597  1  0.99363200  0.30797000  0.77170600  1
  C  598  1  0.97282200  0.27828700  0.77221000  1
  C  599  1  0.96480300  0.26138500  0.75037400  1
  C  601  1  0.03801500  0.36286500  0.72594900  1
  C  602  1  0.03070600  0.34638500  0.70391800  1
  C  609  1  0.97030500  0.25494900  0.70666900  1
  C  611  1  0.00368200  0.32267900  0.79379200  1
  C  613  1  0.00643000  0.81906300  0.73634000  1
  C  614  1  0.01489400  0.78587000  0.73338600  1
  C  615  1  0.02324000  0.76683200  0.75464800  1
  C  616  1  0.02376900  0.78030100  0.77863600  1
  C  617  1  0.01599100  0.81340800  0.78094100  1
  C  618  1  0.00760100  0.83243400  0.76019800  1
  C  620  1  0.03149600  0.72069800  0.72908200  1
  C  621  1  0.02357200  0.73923900  0.70813100  1
  C  628  1  0.99657100  0.83894100  0.71676900  1
  C  630  1  0.02982600  0.76133700  0.79944600  1
  C  632  1  0.50657400  0.26363100  0.26589900  1
  C  633  1  0.51503800  0.29682300  0.26885900  1
  C  634  1  0.52336800  0.31586600  0.24760100  1
  C  635  1  0.52389000  0.30240900  0.22360900  1
  C  636  1  0.51610500  0.26930400  0.22129800  1
  C  637  1  0.50772200  0.25026900  0.24203800  1
  C  639  1  0.53162000  0.36199700  0.27317200  1
  C  640  1  0.52371300  0.34344700  0.29412100  1
  C  647  1  0.49670700  0.24374700  0.28546700  1
  C  649  1  0.52990300  0.32138000  0.20279900  1
  C  651  1  0.49224600  0.27409900  0.72989900  1
  C  652  1  0.48555900  0.30762400  0.72774500  1
  C  653  1  0.47648500  0.32581400  0.74933300  1
  C  654  1  0.47362300  0.31115000  0.77281900  1
  C  655  1  0.47976700  0.27774500  0.77430200  1
  C  656  1  0.48876600  0.25953600  0.75324000  1
  C  658  1  0.47250000  0.37338600  0.72504800  1
  C  659  1  0.48123200  0.35569000  0.70376900  1
  C  666  1  0.50378000  0.25514700  0.71016400  1
  C  668  1  0.46755100  0.32910800  0.79411400  1
  C  670  1  0.99231600  0.80859200  0.27236600  1
  C  671  1  0.98557800  0.77507200  0.27451700  1
  C  672  1  0.97650500  0.75688900  0.25292500  1
  C  673  1  0.97369300  0.77155700  0.22943700  1
  C  674  1  0.97984200  0.80496300  0.22796000  1
  C  675  1  0.98885700  0.82316000  0.24902300  1
  C  677  1  0.97243300  0.70931900  0.27720600  1
  C  678  1  0.98115500  0.72700700  0.29849000  1
  C  685  1  0.00386300  0.82753200  0.29210500  1
  C  687  1  0.96759600  0.75360400  0.20814000  1
  C  689  1  0.95310400  0.07737900  0.36426000  1
  C  690  1  0.92929200  0.05183700  0.37429900  1
  C  691  1  0.94799300  0.02108500  0.37697600  1
  C  692  1  0.98988000  0.01558800  0.36984300  1
  C  693  1  0.01299600  0.04160500  0.36045500  1
  C  694  1  0.99495400  0.07192500  0.35762600  1
  C  696  1  0.88385300  0.00037100  0.39264300  1
  C  697  1  0.86546600  0.03059400  0.39039000  1
  C  704  1  0.93456800  0.10560900  0.35669100  1
  C  706  1  0.00863100  0.98562800  0.37035300  1
  C  708  1  0.45297800  0.00529400  0.63804600  1
  C  709  1  0.42916100  0.03081900  0.62798100  1
  C  710  1  0.44785200  0.06157800  0.62532200  1
  C  711  1  0.48972400  0.06708600  0.63248400  1
  C  712  1  0.51286000  0.04106600  0.64185100  1
  C  713  1  0.49481900  0.01074900  0.64468900  1
  C  715  1  0.38374000  0.08227400  0.60960300  1
  C  716  1  0.36536600  0.05204300  0.61183300  1
  C  723  1  0.43442400  0.97704000  0.64554700  1
  C  725  1  0.50847100  0.09704700  0.63196600  1
  C  727  1  0.56668300  0.98984500  0.36924400  1
  C  728  1  0.58723700  0.01748000  0.37855600  1
  C  729  1  0.56980300  0.04825600  0.37392000  1
  C  730  1  0.53215500  0.05186000  0.36050700  1
  C  731  1  0.51272300  0.02414200  0.35120700  1
  C  732  1  0.52983500  0.99371300  0.35534400  1
  C  734  1  0.62613500  0.07279800  0.39569000  1
  C  735  1  0.64309700  0.04266100  0.40068300  1
  C  742  1  0.58358200  0.95945000  0.37212700  1
  C  744  1  0.51317100  0.08137900  0.35702400  1
  C  746  1  0.06653900  0.09286300  0.63297600  1
  C  747  1  0.08712000  0.06523600  0.62366800  1
  C  748  1  0.06970200  0.03445300  0.62829900  1
  C  749  1  0.03205000  0.03083200  0.64170700  1
  C  750  1  0.01260000  0.05854100  0.65100700  1
  C  751  1  0.02969500  0.08897600  0.64687500  1
  C  753  1  0.12606200  0.00993400  0.60653800  1
  C  754  1  0.14301400  0.04007800  0.60155500  1
  C  761  1  0.08343000  0.12326500  0.63010700  1
  C  763  1  0.01308500  0.00130600  0.64518400  1
  C  765  1  0.95363900  0.57663000  0.86477900  1
  C  766  1  0.92978700  0.55101000  0.87467500  1
  C  767  1  0.94865000  0.52034000  0.87753000  1
  C  768  1  0.99073900  0.51500100  0.87073200  1
  C  769  1  0.01389300  0.54113400  0.86155900  1
  C  770  1  0.99570600  0.57137400  0.85855700  1
  C  772  1  0.88428200  0.49937400  0.89268000  1
  C  773  1  0.86574600  0.52952100  0.89026900  1
  C  780  1  0.93500000  0.60473900  0.85701300  1
  C  782  1  0.00968600  0.48510200  0.87132600  1
  C  784  1  0.45356900  0.50610900  0.13749400  1
  C  785  1  0.42969600  0.53171900  0.12761400  1
  C  786  1  0.44852700  0.56240300  0.12478600  1
  C  787  1  0.49061000  0.56775900  0.13158800  1
  C  788  1  0.51377500  0.54164300  0.14077900  1
  C  789  1  0.49561200  0.51139100  0.14377000  1
  C  791  1  0.38414700  0.58334500  0.10963900  1
  C  792  1  0.36564000  0.55318400  0.11203000  1
  C  799  1  0.43497700  0.47798600  0.14527500  1
  C  801  1  0.50950100  0.59768100  0.13104500  1
  C  803  1  0.56671100  0.48969600  0.86935200  1
  C  804  1  0.58723100  0.51728700  0.87877200  1
  C  805  1  0.56978700  0.54808400  0.87423000  1
  C  806  1  0.53216400  0.55175100  0.86080100  1
  C  807  1  0.51275400  0.52407600  0.85140700  1
  C  808  1  0.52987500  0.49363100  0.85545500  1
  C  810  1  0.62608800  0.57252100  0.89609700  1
  C  811  1  0.64306300  0.54236200  0.90099600  1
  C  818  1  0.58365700  0.45929900  0.87211000  1
  C  820  1  0.51323300  0.58128800  0.85732400  1
  C  822  1  0.06678500  0.59309700  0.13292100  1
  C  823  1  0.08732500  0.56549200  0.12354400  1
  C  824  1  0.06988300  0.53470000  0.12811900  1
  C  825  1  0.03223800  0.53105500  0.14152900  1
  C  826  1  0.01281600  0.55874600  0.15088500  1
  C  827  1  0.02993200  0.58918600  0.14680700  1
  C  829  1  0.12623200  0.51022500  0.10631800  1
  C  830  1  0.14319700  0.54037700  0.10138100  1
  C  837  1  0.08373300  0.62349500  0.13013400  1
  C  839  1  0.01331800  0.50151700  0.14503700  1
  C  841  1  0.20103500  0.26903200  0.37397400  1
  C  842  1  0.23014400  0.29272400  0.36634800  1
  C  843  1  0.26594400  0.28328200  0.35265600  1
  C  844  1  0.27266800  0.25084700  0.34641600  1
  C  845  1  0.24262300  0.22794400  0.35323200  1
  C  846  1  0.20751400  0.23687100  0.36701000  1
  C  848  1  0.28976400  0.33735300  0.35185600  1
  C  849  1  0.25449700  0.34695900  0.36511200  1
  C  856  1  0.17136200  0.27569500  0.39178200  1
  C  858  1  0.30920400  0.24073200  0.33557800  1
  C  860  1  0.70093500  0.81363500  0.62829200  1
  C  861  1  0.73002200  0.78994500  0.63595400  1
  C  862  1  0.76582500  0.79942000  0.64963100  1
  C  863  1  0.77255000  0.83187200  0.65582400  1
  C  864  1  0.74248300  0.85475900  0.64900900  1
  C  865  1  0.70740800  0.84581000  0.63521100  1
  C  867  1  0.78963700  0.74535200  0.65052000  1
  C  868  1  0.75436300  0.73571000  0.63728800  1
  C  875  1  0.67122600  0.80688800  0.61052000  1
  C  877  1  0.80907500  0.84200200  0.66666667  1
  C  879  1  0.30681600  0.79990800  0.37065500  1
  C  880  1  0.27935300  0.77626600  0.36101300  1
  C  881  1  0.24423000  0.78607300  0.34685200  1
  C  882  1  0.23669700  0.81877600  0.34197700  1
  C  883  1  0.26470500  0.84178400  0.35116300  1
  C  884  1  0.29906700  0.83248200  0.36543200  1
  C  886  1  0.22238900  0.73176100  0.34290800  1
  C  887  1  0.25710800  0.72177300  0.35648900  1
  C  894  1  0.33733300  0.79209100  0.38779200  1
  C  896  1  0.20017400  0.82877100  0.33113700  1
  C  898  1  0.80673200  0.28283800  0.63160900  1
  C  899  1  0.77922600  0.30645100  0.64125100  1
  C  900  1  0.74410100  0.29661800  0.65540000  1
  C  901  1  0.73659800  0.26391000  0.66026500  1
  C  902  1  0.76463100  0.24092300  0.65107700  1
  C  903  1  0.79898100  0.25025700  0.63681200  1
  C  905  1  0.72220200  0.35091500  0.65935400  1
  C  906  1  0.75691600  0.36093000  0.64578000  1
  C  913  1  0.83723500  0.29067600  0.61447100  1
  C  915  1  0.70008300  0.25388600  0.67110100  1
  C  917  1  0.20091100  0.76823700  0.87328600  1
  C  918  1  0.23023300  0.79172300  0.86556400  1
  C  919  1  0.26588200  0.78199700  0.85185100  1
  C  920  1  0.27225300  0.74949000  0.84568800  1
  C  921  1  0.24195200  0.72681600  0.85256300  1
  C  922  1  0.20697300  0.73601900  0.86635400  1
  C  924  1  0.29027400  0.83591500  0.85088300  1
  C  925  1  0.25516000  0.84580000  0.86415700  1
  C  932  1  0.17135500  0.77521500  0.89110200  1
  C  934  1  0.30864200  0.73910300  0.83481100  1
  C  936  1  0.70099800  0.31454700  0.12899000  1
  C  937  1  0.73029600  0.29105100  0.13671600  1
  C  938  1  0.76592800  0.30076700  0.15044800  1
  C  939  1  0.77230100  0.33327000  0.15662700  1
  C  940  1  0.74203500  0.35595600  0.14972100  1
  C  941  1  0.70708200  0.34677000  0.13590100  1
  C  943  1  0.79029300  0.24684100  0.15141100  1
  C  944  1  0.75519600  0.23697200  0.13811500  1
  C  951  1  0.67145900  0.30761700  0.11115200  1
  C  953  1  0.80868600  0.34364800  0.16751700  1
  C  955  1  0.30718400  0.30003900  0.87009000  1
  C  956  1  0.27950100  0.27670100  0.86023100  1
  C  957  1  0.24463200  0.28690900  0.84601700  1
  C  958  1  0.23756100  0.31971500  0.84129800  1
  C  959  1  0.26576200  0.34242000  0.85071600  1
  C  960  1  0.29988600  0.33271800  0.86502700  1
  C  962  1  0.22215600  0.23279700  0.84167700  1
  C  963  1  0.25661400  0.22241700  0.85531700  1
  C  970  1  0.33755400  0.29179400  0.88720400  1
  C  972  1  0.20129400  0.33009000  0.83035900  1
  C  974  1  0.80719600  0.78269000  0.13218200  1
  C  975  1  0.77950500  0.80602800  0.14203000  1
  C  976  1  0.74462000  0.79582200  0.15623100  1
  C  977  1  0.73754100  0.76301400  0.16093400  1
  C  978  1  0.76578200  0.74030700  0.15156200  1
  C  979  1  0.79990800  0.75001100  0.13725200  1
  C  981  1  0.72214300  0.84993300  0.16056300  1
  C  982  1  0.75662400  0.86031300  0.14694400  1
  C  989  1  0.83756400  0.79093500  0.11506700  1
  C  991  1  0.70126800  0.75263900  0.17186600  1
  N  21  1  0.98965900  0.15755300  0.44392600  1
  N  22  1  0.94461800  0.13415600  0.36293700  1
  N  23  1  0.13255000  0.26855900  0.39158600  1
  N  24  1  0.05040100  0.27217400  0.31908300  1
  N  45  1  0.48979200  0.92519800  0.55832600  1
  N  46  1  0.44451500  0.94851000  0.63927700  1
  N  47  1  0.63241200  0.81401700  0.61073100  1
  N  48  1  0.55027100  0.81057400  0.68323400  1
  N  69  1  0.44223800  0.95517600  0.42731700  1
  N  70  1  0.56517100  0.93412900  0.37994400  1
  N  71  1  0.37538500  0.80146800  0.38825700  1
  N  72  1  0.44603900  0.81842900  0.31288500  1
  N  93  1  0.94203600  0.12758800  0.57494300  1
  N  94  1  0.06500600  0.14859000  0.62230700  1
  N  95  1  0.87529300  0.28131100  0.61399900  1
  N  96  1  0.94602100  0.26438300  0.68934900  1
  N  117  1  0.98802300  0.90617700  0.56504300  1
  N  118  1  0.01006400  0.98231000  0.62677600  1
  N  119  1  0.84275600  0.84119900  0.65396200  1
  N  120  1  0.96261300  0.83441700  0.70480300  1
  N  141  1  0.48802200  0.17644500  0.43719300  1
  N  142  1  0.51012000  0.10037000  0.37543300  1
  N  143  1  0.34289500  0.24160900  0.34826700  1
  N  144  1  0.46274600  0.24827600  0.29743100  1
  N  165  1  0.57367800  0.18676200  0.55997600  1
  N  166  1  0.50289100  0.11677200  0.61411800  1
  N  167  1  0.66797200  0.25128200  0.65725700  1
  N  168  1  0.54004400  0.25892400  0.70071300  1
  N  189  1  0.07378900  0.89583500  0.44230000  1
  N  190  1  0.00303400  0.96588800  0.38818800  1
  N  191  1  0.16807600  0.83141400  0.34498600  1
  N  192  1  0.04009900  0.82370000  0.30158100  1
  N  213  1  0.98941100  0.65771700  0.94402800  1
  N  214  1  0.94483000  0.63338500  0.86310500  1
  N  215  1  0.13248500  0.76825800  0.89102100  1
  N  216  1  0.05061000  0.77088400  0.81832700  1
  N  237  1  0.48936900  0.42501700  0.05824900  1
  N  238  1  0.44483800  0.44934400  0.13918400  1
  N  239  1  0.63259000  0.31457800  0.11122500  1
  N  240  1  0.55070400  0.31185500  0.18391800  1
  N  261  1  0.44210700  0.45445200  0.92708400  1
  N  262  1  0.56528000  0.43389400  0.87980000  1
  N  263  1  0.37573600  0.30084600  0.88774300  1
  N  264  1  0.44555000  0.31864000  0.81215800  1
  N  285  1  0.94216700  0.62827300  0.07517800  1
  N  286  1  0.06535400  0.64889000  0.12242800  1
  N  287  1  0.87575000  0.78188000  0.11452500  1
  N  288  1  0.94561700  0.76409200  0.19009400  1
  N  309  1  0.98834700  0.40566100  0.06536600  1
  N  310  1  0.01038900  0.48242200  0.12668100  1
  N  311  1  0.84259700  0.34238900  0.15505300  1
  N  312  1  0.96133800  0.33826300  0.20710400  1
  N  333  1  0.48834300  0.67717100  0.93698900  1
  N  334  1  0.51026900  0.60035700  0.87569400  1
  N  335  1  0.34253700  0.74031200  0.84729200  1
  N  336  1  0.46130200  0.74456900  0.79525300  1
  N  357  1  0.57278900  0.68938800  0.05999700  1
  N  358  1  0.50310500  0.61785400  0.11358900  1
  N  359  1  0.66884300  0.75048200  0.15823400  1
  N  360  1  0.54212800  0.75532200  0.20324100  1
  N  381  1  0.07268600  0.39317400  0.94228200  1
  N  382  1  0.00316900  0.46487500  0.88872700  1
  N  383  1  0.16888200  0.33230200  0.84399300  1
  N  384  1  0.04214900  0.32746200  0.79899500  1
  N  391  1  0.95012700  0.18941500  0.54390200  1
  N  394  1  0.98208800  0.21211800  0.50123800  1
  N  410  1  0.45021300  0.89337000  0.45836300  1
  N  413  1  0.48222400  0.87065300  0.50100800  1
  N  429  1  0.02107000  0.84603900  0.48264000  1
  N  432  1  0.97165500  0.85458000  0.52256500  1
  N  448  1  0.52121200  0.23663400  0.51952200  1
  N  451  1  0.47182200  0.22810300  0.47958600  1
  N  467  1  0.94986600  0.69003500  0.04401000  1
  N  470  1  0.98164300  0.71264500  0.00126700  1
  N  486  1  0.44996400  0.39267200  0.95824400  1
  N  489  1  0.48168600  0.37008400  0.00100700  1
  N  505  1  0.01916600  0.34416800  0.98313200  1
  N  508  1  0.97042400  0.35385600  0.02318700  1
  N  524  1  0.51928400  0.73848700  0.01929300  1
  N  527  1  0.47044700  0.72893800  0.97925400  1
  N  543  1  0.97067900  0.35757100  0.26051600  1
  N  546  1  0.98360300  0.32447100  0.30270000  1
  N  562  1  0.47075800  0.72518900  0.74186000  1
  N  565  1  0.48362400  0.75824800  0.69965000  1
  N  581  1  0.52530300  0.73333300  0.25495100  1
  N  584  1  0.51103400  0.76513800  0.29753200  1
  N  600  1  0.02535500  0.34942400  0.74728900  1
  N  603  1  0.01104200  0.31762200  0.70471100  1
  N  619  1  0.03111900  0.73516100  0.75132000  1
  N  622  1  0.01565300  0.77096300  0.71086700  1
  N  638  1  0.53124100  0.34753900  0.25093300  1
  N  641  1  0.51580900  0.31172100  0.29138200  1
  N  657  1  0.47043500  0.35784100  0.74682100  1
  N  660  1  0.48743100  0.32364400  0.70571800  1
  N  676  1  0.97040800  0.72486700  0.25543500  1
  N  679  1  0.98740400  0.75904900  0.29654400  1
  N  695  1  0.92405700  0.99686400  0.38585300  1
  N  698  1  0.88846300  0.05518200  0.38130000  1
  N  714  1  0.42392600  0.08579300  0.61642900  1
  N  717  1  0.38835000  0.02746300  0.62094600  1
  N  733  1  0.59039500  0.07432000  0.38266300  1
  N  736  1  0.62331400  0.01618200  0.39211000  1
  N  752  1  0.09031900  0.00839700  0.61956000  1
  N  755  1  0.12320600  0.06654800  0.61012400  1
  N  771  1  0.92466400  0.49603400  0.88621700  1
  N  774  1  0.88877400  0.55419200  0.88134400  1
  N  790  1  0.42452300  0.58670600  0.11610800  1
  N  793  1  0.38869500  0.52851800  0.12093600  1
  N  809  1  0.59036700  0.57410400  0.88305900  1
  N  812  1  0.62329500  0.51592500  0.89233300  1
  N  828  1  0.09048600  0.50866500  0.11933600  1
  N  831  1  0.12340900  0.56683000  0.11000000  1
  N  847  1  0.29409300  0.30607600  0.34617500  1
  N  850  1  0.22605300  0.32458100  0.37193700  1
  N  866  1  0.79397600  0.77664400  0.65614700  1
  N  869  1  0.72592600  0.75807400  0.63042000  1
  N  885  1  0.21735300  0.76333700  0.33861000  1
  N  888  1  0.28428500  0.74407900  0.36504000  1
  N  904  1  0.71719400  0.31933500  0.66364100  1
  N  907  1  0.78412500  0.33864300  0.63723100  1
  N  923  1  0.29424500  0.80458800  0.84527700  1
  N  926  1  0.22650800  0.82363000  0.87107600  1
  N  942  1  0.79427100  0.27816300  0.15703000  1
  N  945  1  0.72655700  0.25914900  0.13119300  1
  N  961  1  0.21755700  0.26445000  0.83755000  1
  N  964  1  0.28398900  0.24443700  0.86408300  1
  N  980  1  0.71753300  0.81828100  0.16468500  1
  N  983  1  0.78400600  0.83829200  0.13818600  1
  O  8  1  0.11679200  0.29474500  0.34501400  1
  O  15  1  0.94324600  0.12078500  0.41342000  1
  O  32  1  0.61663200  0.78791700  0.65731900  1
  O  39  1  0.44328900  0.96193400  0.58880500  1
  O  56  1  0.39086000  0.78384600  0.33936100  1
  O  63  1  0.52498500  0.97005200  0.41774500  1
  O  80  1  0.89082400  0.29896100  0.66287900  1
  O  87  1  0.02478000  0.11267300  0.58451100  1
  O  104  1  0.88342100  0.81671900  0.69574200  1
  O  111  1  0.01604600  0.96498200  0.57969800  1
  O  128  1  0.38357800  0.26602900  0.30649000  1
  O  135  1  0.51604900  0.11765600  0.42251900  1
  O  152  1  0.62099000  0.27497300  0.69745900  1
  O  159  1  0.52513800  0.13129900  0.56724700  1
  O  176  1  0.12106300  0.80768100  0.30480600  1
  O  183  1  0.02527700  0.95132000  0.43505300  1
  O  200  1  0.11686400  0.79383000  0.84420900  1
  O  207  1  0.94335200  0.62048900  0.91366700  1
  O  224  1  0.61698100  0.28895900  0.15802900  1
  O  231  1  0.44331400  0.46223700  0.08862100  1
  O  248  1  0.39086600  0.28366700  0.83869500  1
  O  255  1  0.52481100  0.46959300  0.91763100  1
  O  272  1  0.89089500  0.79905500  0.16357300  1
  O  279  1  0.02488500  0.61316700  0.08461300  1
  O  296  1  0.88213900  0.32035500  0.19807900  1
  O  303  1  0.01648900  0.46462200  0.07970100  1
  O  320  1  0.38207900  0.76241200  0.80427100  1
  O  327  1  0.51640900  0.61818100  0.92267000  1
  O  344  1  0.62309900  0.77129900  0.19994400  1
  O  351  1  0.52469900  0.63345700  0.06677400  1
  O  368  1  0.12312300  0.31148900  0.80227900  1
  O  375  1  0.02466100  0.44916200  0.93554100  1
  O  398  1  0.96876300  0.26500400  0.51416100  1
  O  417  1  0.46888900  0.81777300  0.48808100  1
  O  436  1  0.95660600  0.79936800  0.52330400  1
  O  455  1  0.45699700  0.28334700  0.47874900  1
  O  474  1  0.96824300  0.76555100  0.01410700  1
  O  493  1  0.46833500  0.31716800  0.98816500  1
  O  512  1  0.95381300  0.29891800  0.02424700  1
  O  531  1  0.45391500  0.78389200  0.97828600  1
  O  550  1  0.94664900  0.36360000  0.32510800  1
  O  569  1  0.44681900  0.71901600  0.67726600  1
  O  588  1  0.54325400  0.72362500  0.31995900  1
  O  607  1  0.04330600  0.35910900  0.68227900  1
  O  626  1  0.02406100  0.72552100  0.68558900  1
  O  645  1  0.52420800  0.35715700  0.31666700  1
  O  664  1  0.48324700  0.37053300  0.68168500  1
  O  683  1  0.98312100  0.71216500  0.32057500  1
  O  702  1  0.82532700  0.03492900  0.39710300  1
  O  721  1  0.32524900  0.04769600  0.60508300  1
  O  740  1  0.67871000  0.04025100  0.41382600  1
  O  759  1  0.17863600  0.04250300  0.58842400  1
  O  778  1  0.82542700  0.53369900  0.89665600  1
  O  797  1  0.32532300  0.54899100  0.10563700  1
  O  816  1  0.67867000  0.53988900  0.91413700  1
  O  835  1  0.17881800  0.54282800  0.08825100  1
  O  854  1  0.24918200  0.37811400  0.37096600  1
  O  873  1  0.74903400  0.70453900  0.63148900  1
  O  892  1  0.26308200  0.69031500  0.36101100  1
  O  911  1  0.76286100  0.39239300  0.64126700  1
  O  930  1  0.25020100  0.87701200  0.86993900  1
  O  949  1  0.75023500  0.20576500  0.13231700  1
  O  968  1  0.26214800  0.19087500  0.85967700  1
  O  987  1  0.76217300  0.89185500  0.14259300  1
