# generated using pymatgen
data_H28C47N8
_symmetry_space_group_name_H-M   'P 1'
_cell_length_a   42.78480000
_cell_length_b   42.78480000
_cell_length_c   59.86290000
_cell_angle_alpha   90.00000000
_cell_angle_beta   90.00060000
_cell_angle_gamma   90.00000000
_symmetry_Int_Tables_number   1
_chemical_formula_structural   H28C47N8
_chemical_formula_sum   'H448 C752 N128'
_cell_volume   109581.37974427
_cell_formula_units_Z   16
loop_
 _symmetry_equiv_pos_site_id
 _symmetry_equiv_pos_as_xyz
  1  'x, y, z'
loop_
 _atom_site_type_symbol
 _atom_site_label
 _atom_site_symmetry_multiplicity
 _atom_site_fract_x
 _atom_site_fract_y
 _atom_site_fract_z
 _atom_site_occupancy
  H  25  1  0.09513600  0.09337800  0.08988400  1
  H  26  1  0.09577900  0.09182900  0.12981300  1
  H  27  1  0.13525000  0.13067500  0.20336600  1
  H  28  1  0.16863700  0.16345300  0.22508900  1
  H  29  1  0.20500400  0.20314800  0.16644800  1
  H  30  1  0.16281100  0.16435700  0.09047900  1
  H  31  1  0.19959600  0.11449700  0.14007900  1
  H  32  1  0.28317000  0.13287000  0.10594500  1
  H  33  1  0.26719200  0.18606600  0.10049200  1
  H  34  1  0.11468100  0.19709300  0.14184900  1
  H  35  1  0.18298400  0.26809300  0.10220900  1
  H  36  1  0.12963900  0.28233400  0.10883700  1
  H  39  1  0.10503600  0.13046600  0.16430700  1
  H  40  1  0.13494100  0.10184500  0.16393600  1
  H  42  1  0.22927000  0.23075500  0.11953800  1
  H  43  1  0.21539900  0.21738000  0.09336600  1
  H  72  1  0.90972600  0.91149600  0.08987700  1
  H  73  1  0.90906500  0.91305300  0.12980500  1
  H  74  1  0.86959400  0.87420300  0.20335500  1
  H  75  1  0.83620400  0.84142200  0.22507400  1
  H  76  1  0.79985900  0.80171200  0.16643100  1
  H  77  1  0.84207100  0.84049700  0.09046400  1
  H  78  1  0.80526900  0.89036500  0.14005200  1
  H  79  1  0.72170100  0.87198900  0.10590900  1
  H  80  1  0.73767900  0.81879000  0.10046800  1
  H  81  1  0.89018200  0.80777500  0.14184400  1
  H  82  1  0.82189300  0.73676800  0.10219500  1
  H  83  1  0.87523700  0.72253200  0.10883200  1
  H  86  1  0.89981400  0.87441100  0.16429900  1
  H  87  1  0.86990400  0.90302800  0.16392300  1
  H  89  1  0.77559900  0.77410200  0.11951700  1
  H  90  1  0.78947500  0.78748300  0.09334700  1
  H  119  1  0.90973100  0.09336600  0.91498100  1
  H  120  1  0.90907800  0.09181200  0.87505100  1
  H  121  1  0.86961700  0.13067000  0.80150000  1
  H  122  1  0.83621900  0.16343900  0.77977900  1
  H  123  1  0.79985000  0.20313100  0.83842100  1
  H  124  1  0.84206400  0.16435500  0.91439000  1
  H  125  1  0.80527500  0.11448300  0.86480100  1
  H  126  1  0.72168000  0.13287000  0.89890900  1
  H  127  1  0.73765800  0.18607000  0.90435300  1
  H  128  1  0.89018600  0.19706700  0.86303600  1
  H  129  1  0.82188400  0.26808600  0.90265800  1
  H  130  1  0.87524200  0.28230300  0.89606100  1
  H  133  1  0.89982700  0.13045500  0.84055800  1
  H  134  1  0.86991900  0.10183600  0.84093200  1
  H  136  1  0.77559600  0.23074800  0.88532000  1
  H  137  1  0.78945900  0.21738000  0.91149600  1
  H  166  1  0.09515000  0.91150100  0.91496900  1
  H  167  1  0.09580300  0.91304800  0.87504000  1
  H  168  1  0.13527400  0.87418600  0.80149300  1
  H  169  1  0.16866800  0.84141300  0.77977500  1
  H  170  1  0.20501700  0.80171000  0.83842100  1
  H  171  1  0.16280800  0.84050600  0.91438500  1
  H  172  1  0.19961000  0.89036200  0.86479500  1
  H  173  1  0.28320200  0.87196100  0.89890300  1
  H  174  1  0.26721500  0.81876200  0.90434700  1
  H  175  1  0.11468800  0.80777200  0.86301200  1
  H  176  1  0.18299700  0.73675000  0.90262400  1
  H  177  1  0.12965000  0.72250900  0.89599600  1
  H  180  1  0.10505500  0.87440400  0.84054900  1
  H  181  1  0.13496500  0.90301900  0.84092200  1
  H  183  1  0.22927500  0.77409700  0.88530500  1
  H  184  1  0.21541100  0.78745200  0.91148500  1
  H  213  1  0.09411000  0.09566700  0.91524300  1
  H  214  1  0.09190000  0.09667800  0.87524200  1
  H  215  1  0.13023700  0.13625800  0.80155500  1
  H  216  1  0.16300700  0.16954700  0.77973500  1
  H  217  1  0.20344300  0.20547100  0.83825200  1
  H  218  1  0.16595100  0.16236700  0.91433300  1
  H  219  1  0.11496500  0.19968100  0.86527700  1
  H  220  1  0.13344200  0.28322900  0.89941200  1
  H  221  1  0.18677100  0.26741000  0.90447200  1
  H  222  1  0.19761200  0.11520100  0.86261800  1
  H  223  1  0.26919000  0.18345800  0.90175800  1
  H  224  1  0.28334300  0.13010500  0.89497500  1
  H  227  1  0.13017500  0.10584800  0.84046600  1
  H  228  1  0.10183500  0.13600300  0.84123600  1
  H  230  1  0.23134400  0.22979900  0.88494600  1
  H  231  1  0.21849300  0.21565500  0.91117600  1
  H  260  1  0.91073100  0.90921300  0.91523300  1
  H  261  1  0.91294200  0.90819800  0.87523000  1
  H  262  1  0.87461600  0.86859500  0.80154500  1
  H  263  1  0.84183800  0.83530800  0.77972900  1
  H  264  1  0.80142000  0.79937900  0.83824900  1
  H  265  1  0.83890900  0.84249500  0.91432500  1
  H  266  1  0.88989800  0.80519900  0.86526400  1
  H  267  1  0.87147600  0.72165500  0.89942400  1
  H  268  1  0.81814700  0.73745800  0.90449500  1
  H  269  1  0.80722200  0.88962600  0.86258300  1
  H  270  1  0.73571800  0.82140600  0.90182300  1
  H  271  1  0.72154500  0.87474000  0.89501000  1
  H  274  1  0.87467100  0.89901300  0.84045400  1
  H  275  1  0.90301700  0.86886700  0.84122800  1
  H  277  1  0.77354700  0.77504600  0.88497700  1
  H  278  1  0.78641600  0.78921000  0.91119700  1
  H  307  1  0.09412600  0.90919900  0.08961400  1
  H  308  1  0.09192200  0.90819600  0.12961700  1
  H  309  1  0.13024600  0.86860000  0.20330500  1
  H  310  1  0.16301800  0.83531300  0.22512400  1
  H  311  1  0.20344600  0.79938400  0.16660600  1
  H  312  1  0.16595000  0.84248300  0.09052600  1
  H  313  1  0.11497300  0.80519200  0.13957800  1
  H  314  1  0.13342500  0.72163700  0.10544500  1
  H  315  1  0.18675600  0.73744400  0.10038200  1
  H  316  1  0.19762500  0.88964300  0.14225500  1
  H  317  1  0.26918100  0.82139600  0.10308000  1
  H  318  1  0.28334500  0.87474200  0.10988200  1
  H  321  1  0.13019200  0.89901300  0.16439300  1
  H  322  1  0.10184600  0.86886400  0.16362300  1
  H  324  1  0.23133700  0.77505300  0.11990800  1
  H  325  1  0.21848600  0.78919300  0.09367700  1
  H  354  1  0.91072600  0.09565600  0.08962700  1
  H  355  1  0.91292600  0.09665200  0.12963000  1
  H  356  1  0.87460800  0.13624200  0.20331800  1
  H  357  1  0.84184900  0.16953800  0.22514000  1
  H  358  1  0.80142900  0.20548800  0.16662300  1
  H  359  1  0.83891600  0.16238700  0.09054100  1
  H  360  1  0.88991100  0.19965700  0.13957600  1
  H  361  1  0.87146500  0.28320800  0.10543200  1
  H  362  1  0.81812100  0.26742200  0.10039400  1
  H  363  1  0.80723200  0.11522600  0.14226700  1
  H  364  1  0.73568500  0.18348800  0.10309800  1
  H  365  1  0.72151200  0.13014300  0.10989500  1
  H  368  1  0.87465600  0.10583800  0.16440500  1
  H  369  1  0.90301200  0.13597900  0.16363800  1
  H  371  1  0.77353800  0.22982500  0.11992200  1
  H  372  1  0.78638300  0.21567600  0.09369200  1
  H  401  1  0.59638600  0.59252800  0.58973600  1
  H  402  1  0.59722800  0.59047600  0.62964400  1
  H  403  1  0.63593700  0.62923900  0.70336400  1
  H  404  1  0.66737600  0.66356200  0.72532600  1
  H  405  1  0.70228500  0.70533200  0.66696100  1
  H  406  1  0.66217100  0.66526200  0.59068200  1
  H  407  1  0.69953500  0.61536300  0.64037800  1
  H  408  1  0.78294100  0.63449400  0.60628700  1
  H  409  1  0.76653300  0.68757800  0.60091000  1
  H  410  1  0.61373400  0.69706700  0.64192400  1
  H  411  1  0.68164500  0.76883300  0.60261900  1
  H  412  1  0.62818000  0.78261400  0.60915900  1
  H  415  1  0.60577100  0.62852200  0.66449200  1
  H  416  1  0.63658400  0.60090000  0.66361000  1
  H  418  1  0.72813900  0.73190900  0.61997900  1
  H  419  1  0.71452600  0.71842500  0.59376400  1
  H  448  1  0.40845700  0.41233800  0.58974800  1
  H  449  1  0.40759500  0.41440200  0.62965600  1
  H  450  1  0.36888400  0.37564000  0.70337100  1
  H  451  1  0.33746000  0.34130600  0.72533600  1
  H  452  1  0.30258700  0.29950100  0.66696900  1
  H  453  1  0.34270500  0.33957100  0.59069000  1
  H  454  1  0.30532300  0.38947700  0.64037500  1
  H  455  1  0.22193000  0.37034400  0.60627200  1
  H  456  1  0.23833400  0.31725500  0.60091000  1
  H  457  1  0.39112700  0.30778200  0.64193900  1
  H  458  1  0.32322900  0.23600700  0.60262700  1
  H  459  1  0.37669400  0.22223000  0.60917700  1
  H  462  1  0.39906500  0.37636000  0.66450500  1
  H  463  1  0.36823600  0.40396100  0.66361500  1
  H  465  1  0.27673100  0.27292400  0.61998200  1
  H  466  1  0.29034300  0.28641500  0.59377000  1
  H  495  1  0.40846600  0.59252800  0.41511400  1
  H  496  1  0.40761500  0.59046400  0.37520600  1
  H  497  1  0.36891100  0.62921800  0.30148600  1
  H  498  1  0.33748800  0.66355100  0.27951900  1
  H  499  1  0.30258900  0.70534400  0.33787900  1
  H  500  1  0.34269500  0.66527800  0.41416500  1
  H  501  1  0.30533300  0.61536500  0.36447800  1
  H  502  1  0.22190700  0.63451000  0.39853900  1
  H  503  1  0.23831200  0.68760100  0.40390600  1
  H  504  1  0.39113200  0.69705600  0.36294100  1
  H  505  1  0.32321400  0.76884500  0.40221900  1
  H  506  1  0.37669500  0.78260500  0.39571100  1
  H  509  1  0.39908100  0.62850300  0.34035300  1
  H  510  1  0.36825700  0.60089500  0.34124300  1
  H  512  1  0.27672300  0.73192100  0.38485000  1
  H  513  1  0.29032400  0.71844400  0.41106900  1
  H  542  1  0.59640900  0.41234500  0.41511900  1
  H  543  1  0.59725900  0.41439900  0.37521100  1
  H  544  1  0.63596600  0.37563300  0.30149700  1
  H  545  1  0.66738800  0.34129600  0.27953400  1
  H  546  1  0.70228000  0.29950800  0.33789900  1
  H  547  1  0.66217500  0.33959500  0.41418000  1
  H  548  1  0.69954800  0.38949100  0.36449000  1
  H  549  1  0.78297300  0.37033200  0.39855100  1
  H  550  1  0.76656000  0.31724600  0.40392000  1
  H  551  1  0.61374200  0.30779100  0.36293800  1
  H  552  1  0.68166400  0.23600200  0.40221100  1
  H  553  1  0.62819400  0.22222000  0.39567300  1
  H  556  1  0.60579700  0.37635500  0.34036300  1
  H  557  1  0.63661900  0.40396600  0.34125200  1
  H  559  1  0.72814500  0.27293600  0.38485600  1
  H  560  1  0.71454400  0.28640100  0.41107900  1
  H  589  1  0.59325200  0.59690100  0.41536100  1
  H  590  1  0.59053700  0.59809500  0.37538500  1
  H  591  1  0.62870900  0.63694300  0.30152200  1
  H  592  1  0.66300800  0.66824200  0.27943700  1
  H  593  1  0.70560600  0.70265300  0.33764500  1
  H  594  1  0.66681700  0.66168600  0.41405800  1
  H  595  1  0.61579400  0.69958500  0.36491900  1
  H  596  1  0.63505600  0.78296000  0.39900200  1
  H  597  1  0.68827800  0.76671100  0.40396800  1
  H  598  1  0.69755900  0.61419000  0.36249000  1
  H  599  1  0.76991900  0.68208500  0.40124700  1
  H  600  1  0.78361800  0.62861800  0.39455800  1
  H  603  1  0.62818300  0.60655900  0.34024600  1
  H  604  1  0.60086800  0.63761200  0.34153200  1
  H  606  1  0.73247800  0.72862100  0.38440700  1
  H  607  1  0.71953200  0.71474400  0.41068700  1
  H  636  1  0.41159400  0.40798100  0.41537300  1
  H  637  1  0.41431800  0.40677300  0.37539600  1
  H  638  1  0.37614900  0.36792300  0.30153200  1
  H  639  1  0.34186600  0.33660500  0.27944900  1
  H  640  1  0.29927500  0.30218900  0.33765500  1
  H  641  1  0.33802800  0.34319400  0.41406600  1
  H  642  1  0.38907100  0.30530500  0.36493200  1
  H  643  1  0.36985200  0.22193300  0.39903900  1
  H  644  1  0.31662500  0.23816600  0.40400700  1
  H  645  1  0.30727800  0.39064600  0.36246700  1
  H  646  1  0.23497200  0.32278700  0.40130700  1
  H  647  1  0.22125500  0.37623900  0.39458500  1
  H  650  1  0.37667400  0.39830700  0.34025300  1
  H  651  1  0.40399200  0.36725600  0.34154700  1
  H  653  1  0.27240800  0.27623300  0.38444400  1
  H  654  1  0.28535700  0.29012900  0.41071900  1
  H  683  1  0.59327000  0.40795300  0.58949200  1
  H  684  1  0.59054600  0.40675900  0.62946900  1
  H  685  1  0.62871000  0.36792300  0.70333600  1
  H  686  1  0.66299800  0.33661900  0.72542500  1
  H  687  1  0.70560100  0.30219400  0.66722500  1
  H  688  1  0.66683400  0.34316800  0.59080500  1
  H  689  1  0.61580300  0.30528600  0.63993600  1
  H  690  1  0.63504700  0.22190200  0.60585600  1
  H  691  1  0.68827200  0.23814100  0.60089000  1
  H  692  1  0.69757500  0.39065000  0.64238800  1
  H  693  1  0.76991700  0.32276400  0.60360400  1
  H  694  1  0.78362800  0.37622700  0.61031100  1
  H  697  1  0.62818600  0.39829800  0.66461100  1
  H  698  1  0.60087000  0.36724500  0.66332300  1
  H  700  1  0.73247700  0.27622400  0.62045500  1
  H  701  1  0.71953500  0.29010300  0.59417300  1
  H  730  1  0.41159400  0.59690600  0.58948700  1
  H  731  1  0.41432000  0.59809500  0.62946400  1
  H  732  1  0.37617200  0.63693600  0.70333200  1
  H  733  1  0.34188000  0.66823200  0.72542300  1
  H  734  1  0.29926500  0.70265300  0.66722500  1
  H  735  1  0.33802800  0.66168600  0.59080400  1
  H  736  1  0.38908000  0.69955400  0.63991600  1
  H  737  1  0.36984300  0.78292000  0.60581300  1
  H  738  1  0.31660200  0.76670400  0.60087500  1
  H  739  1  0.30728400  0.61420600  0.64238800  1
  H  740  1  0.23495000  0.68209000  0.60359400  1
  H  741  1  0.22123600  0.62863400  0.61030500  1
  H  744  1  0.37668500  0.60655600  0.66460700  1
  H  745  1  0.40399900  0.63761200  0.66331600  1
  H  747  1  0.27239500  0.72863500  0.62044800  1
  H  748  1  0.28533200  0.71474600  0.59416800  1
  H  763  1  0.20472900  0.34460100  0.27487300  1
  H  764  1  0.16475800  0.31632900  0.25343900  1
  H  765  1  0.26531900  0.20231500  0.23537300  1
  H  766  1  0.30424000  0.22989100  0.25593800  1
  H  768  1  0.18551600  0.21668200  0.23632800  1
  H  770  1  0.32094000  0.28536800  0.26803900  1
  H  781  1  0.80015900  0.66027900  0.27485300  1
  H  782  1  0.84011700  0.68856400  0.25341400  1
  H  783  1  0.73951600  0.80254900  0.23536600  1
  H  784  1  0.70060700  0.77495700  0.25593300  1
  H  786  1  0.81931300  0.78821400  0.23632500  1
  H  788  1  0.68392600  0.71947500  0.26803100  1
  H  799  1  0.80014500  0.34456400  0.72999200  1
  H  800  1  0.84011000  0.31627100  0.75141600  1
  H  801  1  0.73951000  0.20229700  0.76949400  1
  H  802  1  0.70059400  0.22988900  0.74893700  1
  H  804  1  0.81930600  0.21663100  0.76852300  1
  H  806  1  0.68389800  0.28536500  0.73682200  1
  H  817  1  0.20471100  0.66027600  0.72998200  1
  H  818  1  0.16474400  0.68857100  0.75140400  1
  H  819  1  0.26535300  0.80253900  0.76949200  1
  H  820  1  0.30427100  0.77494300  0.74893700  1
  H  822  1  0.18555700  0.78820900  0.76852500  1
  H  824  1  0.32096300  0.71946800  0.73682900  1
  H  835  1  0.34471700  0.20458200  0.73006800  1
  H  836  1  0.31625600  0.16479000  0.75154400  1
  H  837  1  0.20245300  0.26575300  0.76915300  1
  H  838  1  0.23021300  0.30449600  0.74854400  1
  H  840  1  0.21654100  0.18592100  0.76842400  1
  H  842  1  0.28579200  0.32097100  0.73653000  1
  H  853  1  0.66014200  0.80025100  0.73006200  1
  H  854  1  0.68859900  0.84004300  0.75154100  1
  H  855  1  0.80241000  0.73908900  0.76914400  1
  H  856  1  0.77465500  0.70034600  0.74853400  1
  H  858  1  0.78830000  0.81892100  0.76842100  1
  H  860  1  0.71908600  0.68385900  0.73651300  1
  H  871  1  0.34470600  0.80025600  0.27480000  1
  H  872  1  0.31623500  0.84005300  0.25333200  1
  H  873  1  0.20244700  0.73908200  0.23570500  1
  H  874  1  0.23021200  0.70033200  0.25630700  1
  H  876  1  0.21653400  0.81891000  0.23644500  1
  H  878  1  0.28578500  0.68384800  0.26833700  1
  H  889  1  0.66016100  0.20459000  0.27481100  1
  H  890  1  0.68863300  0.16479400  0.25334600  1
  H  891  1  0.80242600  0.26576700  0.23572900  1
  H  892  1  0.77465900  0.30451500  0.25632900  1
  H  894  1  0.78834100  0.18594400  0.23645900  1
  H  896  1  0.71910200  0.32100400  0.26836000  1
  H  907  1  0.05096700  0.22638800  0.19784400  1
  H  908  1  0.99492800  0.21730000  0.20414000  1
  H  909  1  0.96541900  0.26866500  0.10220700  1
  H  910  1  0.01950000  0.27731100  0.09625100  1
  H  912  1  0.93129700  0.23173900  0.15164600  1
  H  914  1  0.07312100  0.28376900  0.11372500  1
  H  925  1  0.95390700  0.77844900  0.19784700  1
  H  926  1  0.00994800  0.78752900  0.20414700  1
  H  927  1  0.03944900  0.73623100  0.10219800  1
  H  928  1  0.98536700  0.72758500  0.09624000  1
  H  930  1  0.07356600  0.77313600  0.15164300  1
  H  932  1  0.93176400  0.72112000  0.11369800  1
  H  943  1  0.95388300  0.22632200  0.80706900  1
  H  944  1  0.00992500  0.21728500  0.80074700  1
  H  945  1  0.03948500  0.26872600  0.90265100  1
  H  946  1  0.98540000  0.27733000  0.90863200  1
  H  948  1  0.07358300  0.23178500  0.85320800  1
  H  950  1  0.93175000  0.28380600  0.89109100  1
  H  961  1  0.05097000  0.77841200  0.80699600  1
  H  962  1  0.99493000  0.78750400  0.80070000  1
  H  963  1  0.96542800  0.73622100  0.90265300  1
  H  964  1  0.01950900  0.72756400  0.90861000  1
  H  966  1  0.93132200  0.77316200  0.85322200  1
  H  968  1  0.07311500  0.72109700  0.89114700  1
  H  979  1  0.34725100  0.05247400  0.10686500  1
  H  980  1  0.35618200  0.99641600  0.10064400  1
  H  981  1  0.21667700  0.96646900  0.14283900  1
  H  982  1  0.20830200  0.02039700  0.14870700  1
  H  984  1  0.28518900  0.93092400  0.11610900  1
  H  986  1  0.23283800  0.07310500  0.15294000  1
  H  997  1  0.34728600  0.95238700  0.89798100  1
  H  998  1  0.35621000  0.00844500  0.90420000  1
  H  999  1  0.21668800  0.03837200  0.86202200  1
  H  1000  1  0.20832100  0.98444300  0.85615500  1
  H  1002  1  0.28521500  0.07392600  0.88872900  1
  H  1004  1  0.23286000  0.93174900  0.85192000  1
  H  1015  1  0.65762300  0.95239400  0.10684800  1
  H  1016  1  0.64866600  0.00845500  0.10066200  1
  H  1017  1  0.78817600  0.03841600  0.14284500  1
  H  1018  1  0.79657900  0.98448500  0.14867800  1
  H  1020  1  0.71963300  0.07396400  0.11615500  1
  H  1022  1  0.77202400  0.93176300  0.15290000  1
  H  1033  1  0.65761600  0.05246600  0.89800700  1
  H  1034  1  0.64868300  0.99640700  0.90422300  1
  H  1035  1  0.78818700  0.96646000  0.86202700  1
  H  1036  1  0.79656400  0.02038800  0.85616500  1
  H  1038  1  0.71963000  0.93090500  0.88869800  1
  H  1040  1  0.77203900  0.07309600  0.85193400  1
  H  1051  1  0.07662100  0.21217300  0.03451100  1
  H  1052  1  0.07175500  0.22012900  0.99401500  1
  H  1053  1  0.13955800  0.08390000  0.97660000  1
  H  1054  1  0.14459600  0.07614400  0.01579300  1
  H  1056  1  0.08949900  0.13417200  0.95107400  1
  H  1058  1  0.12014700  0.08942400  0.05280700  1
  H  1069  1  0.92825900  0.21216700  0.97037400  1
  H  1070  1  0.93311100  0.22011100  0.01087300  1
  H  1071  1  0.86529600  0.08388300  0.02825800  1
  H  1072  1  0.86027000  0.07613900  0.98906200  1
  H  1074  1  0.91535300  0.13414600  0.05378800  1
  H  1076  1  0.88476900  0.08943100  0.95206100  1
  H  1087  1  0.07663200  0.79270900  0.97032800  1
  H  1088  1  0.07178800  0.78472900  0.01082200  1
  H  1089  1  0.13959500  0.92094800  0.02826600  1
  H  1090  1  0.14462200  0.92872900  0.98907200  1
  H  1092  1  0.08952000  0.87062700  0.05377800  1
  H  1094  1  0.12020200  0.91546500  0.95204100  1
  H  1105  1  0.92823400  0.79269000  0.03449300  1
  H  1106  1  0.93308400  0.78473600  0.99399500  1
  H  1107  1  0.86530200  0.92097800  0.97659400  1
  H  1108  1  0.86027300  0.92873400  0.01578900  1
  H  1110  1  0.91535300  0.87071300  0.95106700  1
  H  1112  1  0.88470700  0.91544600  0.05280100  1
  H  1123  1  0.54983600  0.72647300  0.69801700  1
  H  1124  1  0.49379100  0.71755600  0.70442500  1
  H  1125  1  0.46407300  0.76870700  0.60246500  1
  H  1126  1  0.51816000  0.77716600  0.59639600  1
  H  1128  1  0.42999600  0.73222700  0.65211200  1
  H  1130  1  0.57180100  0.78361900  0.61381300  1
  H  1141  1  0.45503400  0.27834400  0.69804400  1
  H  1142  1  0.51107900  0.28726100  0.70445300  1
  H  1143  1  0.54079400  0.23618000  0.60247500  1
  H  1144  1  0.48670700  0.22771900  0.59640800  1
  H  1146  1  0.57485800  0.27265500  0.65212500  1
  H  1148  1  0.43308100  0.22125000  0.61380800  1
  H  1159  1  0.45500900  0.72642800  0.30687000  1
  H  1160  1  0.51105500  0.71755600  0.30043700  1
  H  1161  1  0.54082600  0.76877500  0.40237100  1
  H  1162  1  0.48673500  0.77719600  0.40846200  1
  H  1164  1  0.57487000  0.73226200  0.35272600  1
  H  1166  1  0.43306600  0.78367500  0.39098200  1
  H  1177  1  0.54983700  0.27832300  0.30682500  1
  H  1178  1  0.49379200  0.28724900  0.30041800  1
  H  1179  1  0.46408400  0.23617300  0.40239800  1
  H  1180  1  0.51817300  0.22770500  0.40846300  1
  H  1182  1  0.43002400  0.27267600  0.35276100  1
  H  1184  1  0.57180000  0.22123700  0.39105900  1
  H  1195  1  0.84730200  0.55362600  0.60693200  1
  H  1196  1  0.85609000  0.49756000  0.60065100  1
  H  1197  1  0.71665400  0.46784300  0.64305500  1
  H  1198  1  0.70842700  0.52178600  0.64898800  1
  H  1200  1  0.78504700  0.43222300  0.61624200  1
  H  1202  1  0.73321100  0.57438800  0.65331300  1
  H  1213  1  0.84733400  0.45122800  0.39790900  1
  H  1214  1  0.85611600  0.50729400  0.40419400  1
  H  1215  1  0.71665900  0.53699400  0.36181200  1
  H  1216  1  0.70843900  0.48305200  0.35587500  1
  H  1218  1  0.78506900  0.57262100  0.38860100  1
  H  1220  1  0.73322800  0.43046600  0.35154700  1
  H  1231  1  0.15757100  0.45121800  0.60693400  1
  H  1232  1  0.14875500  0.50728700  0.60068100  1
  H  1233  1  0.28820300  0.53702700  0.64306000  1
  H  1234  1  0.29645800  0.48308500  0.64896500  1
  H  1236  1  0.21976200  0.57264700  0.61630200  1
  H  1238  1  0.27165700  0.43046800  0.65328600  1
  H  1249  1  0.15756500  0.55364000  0.39792100  1
  H  1250  1  0.14877200  0.49757400  0.40420400  1
  H  1251  1  0.28820600  0.46784100  0.36180200  1
  H  1252  1  0.29644200  0.52178300  0.35586800  1
  H  1254  1  0.21976000  0.43222100  0.38854800  1
  H  1256  1  0.27166900  0.57438600  0.35154200  1
  H  1267  1  0.57666800  0.71221300  0.53473000  1
  H  1268  1  0.57167700  0.72031600  0.49425600  1
  H  1269  1  0.64020800  0.58454800  0.47647100  1
  H  1270  1  0.64539300  0.57666200  0.51563200  1
  H  1272  1  0.58987000  0.63510100  0.45111800  1
  H  1274  1  0.62131500  0.58957100  0.55270100  1
  H  1285  1  0.42821000  0.71221500  0.47014300  1
  H  1286  1  0.43318900  0.72030200  0.51061900  1
  H  1287  1  0.36462100  0.58454400  0.52836800  1
  H  1288  1  0.35944800  0.57667400  0.48920300  1
  H  1290  1  0.41496400  0.63508000  0.55372700  1
  H  1292  1  0.38358000  0.58959000  0.45214700  1
  H  1303  1  0.57667600  0.29267200  0.47011600  1
  H  1304  1  0.57170800  0.28454700  0.51058900  1
  H  1305  1  0.64027000  0.42029400  0.52839300  1
  H  1306  1  0.64544200  0.42820100  0.48923000  1
  H  1308  1  0.58990700  0.36971800  0.55373500  1
  H  1310  1  0.62138600  0.41530800  0.45214700  1
  H  1321  1  0.42818300  0.29264100  0.53472200  1
  H  1322  1  0.43315900  0.28455000  0.49424600  1
  H  1323  1  0.36463200  0.42032700  0.47648700  1
  H  1324  1  0.35945500  0.42820300  0.51565200  1
  H  1326  1  0.41496500  0.36979200  0.45112900  1
  H  1328  1  0.38351800  0.41528500  0.55271800  1
  C  1  1  0.16068700  0.20281900  0.12938700  1
  C  2  1  0.18069000  0.22351500  0.11767100  1
  C  3  1  0.22343000  0.18206100  0.11693500  1
  C  4  1  0.20374200  0.16105600  0.12863300  1
  C  5  1  0.21431700  0.13002300  0.13247200  1
  C  6  1  0.24327500  0.11906000  0.12433900  1
  C  7  1  0.26239600  0.14022000  0.11259200  1
  C  8  1  0.25294600  0.17144300  0.10939600  1
  C  9  1  0.16899400  0.25299900  0.11091700  1
  C  10  1  0.13762300  0.26141300  0.11477200  1
  C  11  1  0.11729800  0.24084900  0.12611300  1
  C  12  1  0.12945800  0.21227900  0.13386700  1
  C  13  1  0.14963500  0.14850600  0.12274900  1
  C  14  1  0.12992400  0.12727700  0.13421600  1
  C  15  1  0.14995300  0.14727500  0.17166100  1
  C  16  1  0.17031400  0.16852400  0.16076700  1
  C  17  1  0.14961000  0.14608800  0.19526600  1
  C  18  1  0.16911000  0.16553900  0.20807700  1
  C  19  1  0.18953000  0.18707400  0.19774200  1
  C  20  1  0.19001200  0.18791700  0.17413000  1
  C  21  1  0.14885300  0.14894100  0.09893900  1
  C  22  1  0.12961500  0.12868500  0.08644400  1
  C  23  1  0.11011500  0.10782700  0.09827500  1
  C  24  1  0.11034200  0.10710800  0.12177000  1
  C  37  1  0.17113400  0.17028700  0.13551900  1
  C  38  1  0.12905600  0.12576100  0.15903800  1
  C  41  1  0.21318000  0.21445500  0.11145100  1
  C  48  1  0.84418000  0.80204400  0.12937500  1
  C  49  1  0.82418200  0.78134700  0.11765600  1
  C  50  1  0.78143500  0.82279600  0.11692000  1
  C  51  1  0.80112200  0.84380400  0.12861500  1
  C  52  1  0.79054400  0.87483800  0.13244900  1
  C  53  1  0.76159000  0.88580000  0.12431300  1
  C  54  1  0.74246600  0.86463600  0.11257200  1
  C  55  1  0.75192000  0.83341200  0.10937500  1
  C  56  1  0.83588000  0.75186500  0.11090300  1
  C  57  1  0.86725100  0.74345300  0.11476300  1
  C  58  1  0.88757100  0.76401600  0.12610700  1
  C  59  1  0.87540800  0.79258700  0.13386000  1
  C  60  1  0.85523000  0.85635700  0.12273500  1
  C  61  1  0.87493100  0.87759400  0.13420400  1
  C  62  1  0.85489700  0.85759900  0.17164700  1
  C  63  1  0.83454400  0.83634300  0.16075200  1
  C  64  1  0.85523600  0.85878600  0.19525500  1
  C  65  1  0.83573400  0.83933500  0.20806200  1
  C  66  1  0.81531500  0.81780200  0.19772500  1
  C  67  1  0.81484300  0.81695100  0.17411300  1
  C  68  1  0.85601800  0.85592000  0.09892600  1
  C  69  1  0.87526700  0.87616800  0.08643400  1
  C  70  1  0.89473700  0.89705400  0.09826500  1
  C  71  1  0.89450800  0.89776900  0.12176100  1
  C  84  1  0.83373000  0.83457600  0.13550500  1
  C  85  1  0.87579400  0.87911300  0.15902600  1
  C  88  1  0.79169100  0.79040400  0.11143300  1
  C  95  1  0.84417700  0.20281400  0.87547700  1
  C  96  1  0.82417700  0.22350800  0.88719800  1
  C  97  1  0.78143500  0.18205400  0.88793100  1
  C  98  1  0.80112600  0.16104600  0.87623900  1
  C  99  1  0.79055200  0.13001000  0.87240500  1
  C  100  1  0.76158900  0.11905100  0.88053100  1
  C  101  1  0.74246600  0.14021400  0.89227100  1
  C  102  1  0.75193200  0.17142600  0.89549000  1
  C  103  1  0.83588000  0.25298500  0.89396100  1
  C  104  1  0.86724800  0.26140100  0.89010100  1
  C  105  1  0.88757300  0.24083100  0.87877000  1
  C  106  1  0.87540700  0.21227300  0.87099400  1
  C  107  1  0.85523400  0.14850100  0.88211900  1
  C  108  1  0.87494200  0.12726900  0.87065100  1
  C  109  1  0.85490600  0.14726400  0.83320800  1
  C  110  1  0.83454700  0.16851300  0.84410100  1
  C  111  1  0.85525200  0.14608100  0.80960000  1
  C  112  1  0.83575400  0.16553300  0.79679100  1
  C  113  1  0.81531000  0.18704200  0.80712800  1
  C  114  1  0.81484100  0.18790000  0.83074000  1
  C  115  1  0.85602200  0.14894000  0.90592900  1
  C  116  1  0.87527700  0.12869800  0.91842200  1
  C  117  1  0.89476300  0.10782500  0.90659200  1
  C  118  1  0.89452400  0.10709800  0.88309500  1
  C  131  1  0.83373100  0.17027900  0.86934800  1
  C  132  1  0.87580700  0.12575100  0.84583000  1
  C  135  1  0.79168400  0.21445000  0.89341200  1
  C  142  1  0.16068900  0.80204400  0.87547700  1
  C  143  1  0.18069300  0.78133800  0.88718300  1
  C  144  1  0.22343700  0.82278900  0.88792600  1
  C  145  1  0.20375000  0.84380200  0.87623600  1
  C  146  1  0.21432900  0.87483400  0.87240000  1
  C  147  1  0.24329300  0.88578800  0.88052600  1
  C  148  1  0.26241200  0.86462400  0.89227300  1
  C  149  1  0.25294200  0.83341000  0.89548500  1
  C  150  1  0.16900600  0.75184100  0.89391600  1
  C  151  1  0.13763400  0.74343000  0.89006200  1
  C  152  1  0.11729600  0.76401400  0.87875300  1
  C  153  1  0.12945400  0.79258900  0.87100900  1
  C  154  1  0.14964300  0.85635700  0.88211300  1
  C  155  1  0.12993900  0.87758900  0.87064300  1
  C  156  1  0.14997100  0.85758700  0.83320300  1
  C  157  1  0.17032700  0.83633400  0.84409700  1
  C  158  1  0.14962800  0.85876700  0.80959500  1
  C  159  1  0.16912800  0.83931600  0.79678800  1
  C  160  1  0.18956500  0.81780200  0.80712600  1
  C  161  1  0.19003000  0.81694400  0.83073700  1
  C  162  1  0.14885800  0.85592700  0.90592400  1
  C  163  1  0.12961900  0.87618500  0.91841600  1
  C  164  1  0.11012100  0.89704200  0.90658000  1
  C  165  1  0.11035300  0.89776000  0.88308500  1
  C  178  1  0.17114200  0.83457400  0.86934500  1
  C  179  1  0.12907600  0.87910600  0.84582100  1
  C  182  1  0.21318700  0.79039200  0.89340000  1
  C  189  1  0.20352700  0.16116200  0.87508500  1
  C  190  1  0.22436700  0.18116400  0.88666800  1
  C  191  1  0.18271800  0.22371100  0.88795900  1
  C  192  1  0.16161900  0.20400200  0.87637500  1
  C  193  1  0.13049200  0.21446000  0.87281300  1
  C  194  1  0.11948900  0.24334600  0.88106000  1
  C  195  1  0.14076100  0.26249000  0.89269000  1
  C  196  1  0.17205800  0.25312500  0.89567900  1
  C  197  1  0.25400000  0.16949300  0.89311600  1
  C  198  1  0.26241900  0.13815600  0.88909200  1
  C  199  1  0.24168000  0.11785800  0.87789000  1
  C  200  1  0.21296600  0.12999400  0.87042300  1
  C  201  1  0.14933500  0.14981600  0.88210400  1
  C  202  1  0.12772100  0.13041900  0.87071700  1
  C  203  1  0.14726500  0.15069500  0.83320900  1
  C  204  1  0.16873900  0.17089200  0.84403400  1
  C  205  1  0.14580700  0.15050200  0.80960700  1
  C  206  1  0.16525700  0.16993100  0.79673900  1
  C  207  1  0.18697900  0.19021200  0.80701300  1
  C  208  1  0.18804700  0.19060100  0.83061800  1
  C  209  1  0.15028800  0.14866400  0.90589700  1
  C  210  1  0.13004200  0.12945100  0.91840200  1
  C  211  1  0.10865900  0.11041400  0.90671400  1
  C  212  1  0.10753400  0.11091900  0.88322700  1
  C  225  1  0.17086400  0.17150100  0.86927000  1
  C  226  1  0.12577400  0.12985400  0.84590200  1
  C  229  1  0.21526200  0.21356600  0.89310900  1
  C  236  1  0.80133400  0.84367800  0.87507700  1
  C  237  1  0.78050900  0.82368500  0.88668100  1
  C  238  1  0.82217400  0.78114900  0.88796900  1
  C  239  1  0.84325800  0.80085600  0.87636900  1
  C  240  1  0.87438400  0.79039900  0.87279000  1
  C  241  1  0.88540600  0.76153200  0.88105700  1
  C  242  1  0.86414700  0.74238500  0.89269700  1
  C  243  1  0.83284800  0.75174300  0.89569000  1
  C  244  1  0.75087700  0.83534800  0.89313400  1
  C  245  1  0.74246800  0.86669100  0.88912700  1
  C  246  1  0.76314600  0.88696400  0.87784600  1
  C  247  1  0.79187800  0.87483800  0.87040100  1
  C  248  1  0.85552000  0.85504600  0.88209400  1
  C  249  1  0.87713000  0.87444800  0.87070700  1
  C  250  1  0.85759000  0.85416000  0.83319900  1
  C  251  1  0.83612200  0.83395900  0.84402600  1
  C  252  1  0.85904800  0.85435200  0.80959900  1
  C  253  1  0.83960600  0.83491100  0.79673200  1
  C  254  1  0.81786500  0.81465100  0.80700600  1
  C  255  1  0.81681400  0.81424900  0.83061200  1
  C  256  1  0.85456900  0.85620100  0.90588900  1
  C  257  1  0.87481000  0.87542000  0.91839200  1
  C  258  1  0.89618600  0.89446200  0.90670400  1
  C  259  1  0.89731000  0.89395500  0.88321700  1
  C  272  1  0.83400000  0.83335400  0.86926200  1
  C  273  1  0.87907600  0.87501100  0.84589300  1
  C  276  1  0.78963200  0.79128800  0.89312900  1
  C  283  1  0.20353100  0.84368700  0.12977400  1
  C  284  1  0.22436400  0.82368900  0.11818000  1
  C  285  1  0.18271200  0.78114400  0.11689400  1
  C  286  1  0.16162000  0.80085200  0.12848600  1
  C  287  1  0.13049300  0.79039200  0.13205600  1
  C  288  1  0.11947700  0.76151800  0.12379400  1
  C  289  1  0.14074500  0.74238000  0.11215700  1
  C  290  1  0.17204700  0.75173400  0.10917600  1
  C  291  1  0.25399600  0.83535900  0.11172800  1
  C  292  1  0.26240800  0.86670000  0.11574400  1
  C  293  1  0.24170000  0.88698000  0.12699000  1
  C  294  1  0.21297400  0.87485200  0.13444200  1
  C  295  1  0.14934000  0.85503900  0.12275500  1
  C  296  1  0.12773000  0.87444100  0.13414300  1
  C  297  1  0.14727200  0.85416300  0.17165100  1
  C  298  1  0.16874300  0.83396400  0.16082600  1
  C  299  1  0.14581400  0.85435400  0.19525100  1
  C  300  1  0.16525300  0.83491500  0.20811900  1
  C  301  1  0.18699300  0.81465100  0.19784700  1
  C  302  1  0.18805500  0.81425600  0.17424200  1
  C  303  1  0.15029000  0.85618900  0.09896100  1
  C  304  1  0.13003200  0.87539000  0.08645500  1
  C  305  1  0.10866900  0.89444800  0.09814500  1
  C  306  1  0.10754800  0.89394600  0.12163200  1
  C  319  1  0.17086700  0.83335400  0.13558900  1
  C  320  1  0.12578500  0.87500900  0.15895700  1
  C  323  1  0.21525600  0.79128500  0.11174300  1
  C  330  1  0.80133000  0.16118400  0.12979000  1
  C  331  1  0.78049800  0.18118800  0.11820000  1
  C  332  1  0.82216000  0.22372200  0.11690700  1
  C  333  1  0.84325000  0.20401300  0.12850100  1
  C  334  1  0.87437700  0.21446300  0.13207500  1
  C  335  1  0.88540500  0.24330600  0.12376400  1
  C  336  1  0.86413800  0.26247400  0.11215300  1
  C  337  1  0.83283000  0.25312900  0.10918400  1
  C  338  1  0.75086600  0.16952200  0.11174600  1
  C  339  1  0.74245000  0.13818200  0.11576000  1
  C  340  1  0.76315600  0.11789700  0.12700400  1
  C  341  1  0.79188300  0.13002000  0.13445600  1
  C  342  1  0.85552000  0.14982200  0.12277000  1
  C  343  1  0.87712600  0.13041400  0.13415700  1
  C  344  1  0.85758900  0.15069400  0.17166600  1
  C  345  1  0.83612400  0.17090100  0.16084100  1
  C  346  1  0.85904800  0.15049600  0.19526600  1
  C  347  1  0.83961400  0.16994100  0.20813600  1
  C  348  1  0.81789100  0.19022100  0.19786400  1
  C  349  1  0.81681800  0.19061100  0.17425800  1
  C  350  1  0.85456900  0.14867300  0.09897600  1
  C  351  1  0.87482800  0.12947500  0.08646900  1
  C  352  1  0.89619100  0.11041600  0.09815800  1
  C  353  1  0.89730600  0.11090900  0.12164500  1
  C  366  1  0.83399900  0.17151200  0.13560500  1
  C  367  1  0.87906900  0.12984300  0.15897000  1
  C  370  1  0.78961300  0.21358700  0.11175800  1
  C  377  1  0.65974800  0.70326100  0.62960400  1
  C  378  1  0.67963800  0.72417700  0.61798200  1
  C  379  1  0.72279800  0.68317200  0.61733900  1
  C  380  1  0.70326800  0.66199200  0.62900800  1
  C  381  1  0.71413200  0.63105100  0.63282500  1
  C  382  1  0.74317200  0.62033200  0.62468300  1
  C  383  1  0.76212000  0.64166900  0.61295900  1
  C  384  1  0.75241800  0.67282500  0.60980900  1
  C  385  1  0.66773400  0.75357800  0.61124500  1
  C  386  1  0.63628400  0.76171400  0.61504400  1
  C  387  1  0.61606600  0.74093100  0.62628300  1
  C  388  1  0.62841000  0.71241200  0.63400100  1
  C  389  1  0.64940100  0.64878600  0.62287700  1
  C  390  1  0.63035900  0.62683000  0.63422400  1
  C  391  1  0.65021000  0.64661200  0.67176900  1
  C  392  1  0.66958800  0.66889800  0.66101600  1
  C  393  1  0.65000900  0.64501600  0.69536200  1
  C  394  1  0.66872200  0.66504900  0.70830700  1
  C  395  1  0.68854600  0.68726200  0.69811900  1
  C  396  1  0.68830300  0.68906000  0.67452700  1
  C  397  1  0.64859200  0.64943400  0.59906700  1
  C  398  1  0.62988900  0.62879800  0.58646700  1
  C  399  1  0.61095700  0.60731100  0.59819400  1
  C  400  1  0.61128200  0.60630400  0.62168100  1
  C  413  1  0.67049700  0.67083800  0.63576600  1
  C  414  1  0.62986600  0.62471900  0.65902600  1
  C  417  1  0.71225000  0.71545900  0.61184300  1
  C  424  1  0.34511500  0.30158400  0.62961200  1
  C  425  1  0.32523000  0.28066500  0.61799100  1
  C  426  1  0.28206500  0.32166100  0.61734900  1
  C  427  1  0.30159300  0.34284600  0.62901400  1
  C  428  1  0.29072500  0.37378700  0.63282600  1
  C  429  1  0.26168800  0.38450600  0.62467900  1
  C  430  1  0.24273800  0.36316400  0.61296300  1
  C  431  1  0.25244400  0.33200800  0.60981200  1
  C  432  1  0.33713800  0.25126400  0.61125500  1
  C  433  1  0.36858600  0.24313100  0.61505900  1
  C  434  1  0.38880100  0.26391600  0.62629800  1
  C  435  1  0.37645600  0.29243500  0.63401400  1
  C  436  1  0.35546000  0.35605900  0.62288500  1
  C  437  1  0.37448600  0.37802700  0.63423400  1
  C  438  1  0.35463300  0.35824400  0.67177700  1
  C  439  1  0.33526900  0.33594600  0.66102400  1
  C  440  1  0.35482500  0.35985200  0.69537100  1
  C  441  1  0.33612300  0.33981200  0.70831500  1
  C  442  1  0.31633000  0.31756800  0.69812900  1
  C  443  1  0.31656100  0.31577800  0.67453500  1
  C  444  1  0.35627500  0.35540600  0.59907600  1
  C  445  1  0.37498300  0.37604000  0.58647900  1
  C  446  1  0.39388200  0.39755700  0.59820500  1
  C  447  1  0.39355500  0.39856400  0.62169100  1
  C  460  1  0.33436400  0.33400400  0.63577500  1
  C  461  1  0.37497000  0.38014600  0.65903400  1
  C  464  1  0.29261700  0.28937800  0.61185000  1
  C  471  1  0.34511400  0.70327000  0.37523900  1
  C  472  1  0.32522400  0.72418700  0.38685900  1
  C  473  1  0.28206400  0.68318400  0.38749900  1
  C  474  1  0.30159600  0.66199900  0.37583700  1
  C  475  1  0.29073500  0.63105600  0.37202700  1
  C  476  1  0.26168900  0.62033900  0.38016200  1
  C  477  1  0.24273400  0.64168100  0.39187600  1
  C  478  1  0.25245700  0.67282500  0.39504900  1
  C  479  1  0.33713500  0.75358000  0.39360600  1
  C  480  1  0.36858300  0.76172100  0.38980400  1
  C  481  1  0.38880000  0.74092900  0.37857700  1
  C  482  1  0.37645400  0.71242100  0.37084100  1
  C  483  1  0.35546600  0.64879800  0.38197000  1
  C  484  1  0.37449800  0.62683400  0.37062400  1
  C  485  1  0.35464700  0.64660800  0.33308000  1
  C  486  1  0.33527300  0.66890300  0.34382900  1
  C  487  1  0.35484300  0.64500200  0.30948600  1
  C  488  1  0.33613500  0.66503500  0.29653800  1
  C  489  1  0.31634100  0.68727900  0.30672300  1
  C  490  1  0.31656800  0.68906700  0.33031700  1
  C  491  1  0.35627900  0.64945200  0.40577900  1
  C  492  1  0.37499200  0.62882600  0.41837900  1
  C  493  1  0.39390500  0.60732100  0.40665400  1
  C  494  1  0.39357300  0.60630400  0.38316700  1
  C  507  1  0.33436700  0.67084500  0.36907700  1
  C  508  1  0.37498600  0.62471200  0.34582400  1
  C  511  1  0.29260700  0.71547100  0.39299100  1
  C  518  1  0.65975100  0.30159500  0.37525800  1
  C  519  1  0.67964600  0.28067000  0.38686700  1
  C  520  1  0.72280600  0.32167000  0.38751400  1
  C  521  1  0.70327800  0.34285800  0.37585400  1
  C  522  1  0.71414400  0.37380100  0.37204200  1
  C  523  1  0.74319200  0.38451000  0.38017600  1
  C  524  1  0.76213800  0.36316900  0.39189700  1
  C  525  1  0.75241500  0.33202400  0.39506500  1
  C  526  1  0.66775000  0.25125500  0.39358400  1
  C  527  1  0.63629700  0.24312100  0.38978700  1
  C  528  1  0.61606700  0.26392500  0.37858200  1
  C  529  1  0.62840800  0.29245000  0.37087300  1
  C  530  1  0.64941100  0.35607000  0.38198300  1
  C  531  1  0.63037900  0.37803400  0.37063400  1
  C  532  1  0.65022800  0.35824900  0.33309100  1
  C  533  1  0.66959800  0.33595300  0.34384400  1
  C  534  1  0.65003600  0.35985400  0.30949700  1
  C  535  1  0.66874100  0.33981400  0.29655300  1
  C  536  1  0.68853400  0.31757100  0.30674100  1
  C  537  1  0.68830300  0.31578500  0.33033300  1
  C  538  1  0.64859600  0.35542000  0.40579200  1
  C  539  1  0.62990000  0.37606300  0.41839100  1
  C  540  1  0.61097300  0.39755200  0.40666300  1
  C  541  1  0.61129900  0.39856200  0.38317600  1
  C  554  1  0.67050500  0.33401600  0.36909400  1
  C  555  1  0.62989200  0.38014900  0.34583400  1
  C  558  1  0.71226100  0.28938100  0.39300100  1
  C  565  1  0.70394000  0.66016600  0.37480000  1
  C  566  1  0.72500800  0.68006600  0.38627300  1
  C  567  1  0.68381100  0.72303400  0.38747400  1
  C  568  1  0.66252800  0.70348300  0.37592600  1
  C  569  1  0.63149100  0.71423700  0.37239600  1
  C  570  1  0.62074000  0.74320500  0.38065500  1
  C  571  1  0.64219600  0.76217700  0.39225300  1
  C  572  1  0.67342700  0.75255400  0.39518600  1
  C  573  1  0.75456500  0.66819300  0.39269600  1
  C  574  1  0.76270800  0.63677500  0.38873200  1
  C  575  1  0.74174800  0.61657600  0.37764500  1
  C  576  1  0.71307400  0.62888700  0.37022800  1
  C  577  1  0.64958600  0.64953400  0.38191400  1
  C  578  1  0.62724700  0.63081200  0.37065900  1
  C  579  1  0.64656100  0.65091100  0.33305100  1
  C  580  1  0.66908100  0.67010900  0.34371700  1
  C  581  1  0.64466500  0.65087600  0.30946700  1
  C  582  1  0.66467200  0.66952500  0.29645100  1
  C  583  1  0.68715700  0.68912500  0.30655700  1
  C  584  1  0.68916500  0.68880700  0.33013900  1
  C  585  1  0.65074800  0.64835800  0.40570600  1
  C  586  1  0.63011300  0.62970900  0.41832800  1
  C  587  1  0.60812300  0.61123300  0.40675300  1
  C  588  1  0.60671100  0.61182700  0.38327900  1
  C  601  1  0.67138600  0.67081300  0.36895300  1
  C  602  1  0.62469900  0.63062800  0.34587500  1
  C  605  1  0.71625000  0.71259400  0.39262900  1
  C  612  1  0.30091600  0.34468300  0.37480300  1
  C  613  1  0.27986200  0.32479300  0.38629400  1
  C  614  1  0.32107500  0.28183600  0.38750200  1
  C  615  1  0.34234700  0.30138500  0.37594200  1
  C  616  1  0.37338300  0.29063300  0.37239900  1
  C  617  1  0.38414900  0.26168400  0.38068200  1
  C  618  1  0.36270700  0.24271700  0.39229700  1
  C  619  1  0.33146900  0.25232300  0.39522000  1
  C  620  1  0.25030200  0.33665900  0.39271200  1
  C  621  1  0.24216900  0.36808100  0.38876200  1
  C  622  1  0.26307800  0.38825700  0.37760500  1
  C  623  1  0.29176800  0.37595300  0.37021400  1
  C  624  1  0.35526500  0.35534100  0.38192300  1
  C  625  1  0.37760400  0.37406000  0.37067000  1
  C  626  1  0.35830500  0.35395000  0.33306100  1
  C  627  1  0.33578500  0.33474700  0.34372700  1
  C  628  1  0.36019800  0.35398500  0.30947700  1
  C  629  1  0.34019000  0.33533600  0.29646100  1
  C  630  1  0.31773200  0.31570300  0.30656700  1
  C  631  1  0.31571000  0.31604000  0.33015000  1
  C  632  1  0.35409400  0.35652400  0.40571400  1
  C  633  1  0.37471400  0.37519100  0.41833600  1
  C  634  1  0.39672100  0.39365100  0.40676500  1
  C  635  1  0.39814000  0.39304800  0.38329100  1
  C  648  1  0.33347600  0.33405100  0.36896300  1
  C  649  1  0.38016100  0.37423800  0.34588500  1
  C  652  1  0.28863400  0.29227000  0.39265900  1
  C  659  1  0.70395000  0.34467800  0.63006700  1
  C  660  1  0.72501100  0.32478300  0.61858700  1
  C  661  1  0.68381000  0.28181700  0.61738400  1
  C  662  1  0.66253200  0.30136900  0.62893600  1
  C  663  1  0.63149500  0.29061500  0.63247400  1
  C  664  1  0.62073400  0.26165400  0.62420000  1
  C  665  1  0.64218500  0.24269100  0.61259500  1
  C  666  1  0.67342300  0.25230000  0.60967200  1
  C  667  1  0.75456600  0.33665400  0.61216100  1
  C  668  1  0.76270200  0.36807400  0.61611600  1
  C  669  1  0.74177000  0.38825900  0.62724300  1
  C  670  1  0.71308500  0.37595600  0.63464500  1
  C  671  1  0.64959700  0.35532000  0.62294700  1
  C  672  1  0.62725500  0.37404200  0.63419800  1
  C  673  1  0.64656200  0.35394600  0.67181000  1
  C  674  1  0.66908100  0.33474500  0.66114600  1
  C  675  1  0.64466400  0.35398800  0.69539400  1
  C  676  1  0.66467600  0.33534600  0.70841200  1
  C  677  1  0.68714200  0.31571900  0.69830900  1
  C  678  1  0.68916100  0.31604200  0.67472700  1
  C  679  1  0.65076800  0.35649800  0.59915600  1
  C  680  1  0.63013200  0.37514500  0.58653200  1
  C  681  1  0.60813800  0.39362300  0.59810200  1
  C  682  1  0.60672200  0.39303000  0.62157600  1
  C  695  1  0.67139200  0.33403900  0.63591000  1
  C  696  1  0.62470100  0.37422900  0.65898300  1
  C  699  1  0.71624900  0.29225600  0.61223100  1
  C  706  1  0.30091300  0.66017800  0.63006700  1
  C  707  1  0.27985100  0.68007500  0.61858700  1
  C  708  1  0.32106000  0.72303200  0.61737600  1
  C  709  1  0.34233400  0.70348300  0.62893400  1
  C  710  1  0.37337300  0.71423000  0.63247500  1
  C  711  1  0.38414500  0.74315400  0.62414600  1
  C  712  1  0.36269400  0.76214400  0.61256500  1
  C  713  1  0.33145100  0.75254500  0.60965700  1
  C  714  1  0.25028700  0.66821100  0.61217600  1
  C  715  1  0.24215600  0.63678700  0.61611800  1
  C  716  1  0.26308600  0.61660200  0.62724500  1
  C  717  1  0.29177400  0.62890300  0.63464700  1
  C  718  1  0.35526400  0.64952900  0.62294400  1
  C  719  1  0.37760800  0.63081000  0.63419400  1
  C  720  1  0.35831000  0.65090600  0.67180700  1
  C  721  1  0.33578500  0.67010700  0.66114400  1
  C  722  1  0.36021000  0.65086600  0.69539100  1
  C  723  1  0.34019600  0.66950400  0.70841100  1
  C  724  1  0.31771900  0.68911600  0.69830800  1
  C  725  1  0.31570600  0.68880500  0.67472700  1
  C  726  1  0.35409000  0.64834900  0.59915300  1
  C  727  1  0.37473000  0.62970900  0.58652700  1
  C  728  1  0.39672900  0.61123800  0.59809700  1
  C  729  1  0.39814300  0.61182400  0.62157100  1
  C  742  1  0.33347300  0.67081300  0.63590800  1
  C  743  1  0.38016800  0.63062600  0.65897800  1
  C  746  1  0.28861800  0.71259900  0.61222600  1
  C  753  1  0.22926000  0.23596900  0.23914800  1
  C  754  1  0.22256600  0.26525300  0.24923300  1
  C  755  1  0.24575700  0.28162600  0.26180000  1
  C  756  1  0.27606700  0.26883600  0.26482200  1
  C  757  1  0.28255000  0.23980200  0.25442800  1
  C  758  1  0.25964200  0.22360500  0.24204600  1
  C  760  1  0.20937000  0.32327400  0.26798100  1
  C  761  1  0.18653000  0.30711600  0.25575100  1
  C  767  1  0.20598400  0.21850900  0.22854900  1
  C  769  1  0.30023900  0.28485800  0.27560700  1
  C  771  1  0.77558000  0.76889900  0.23912300  1
  C  772  1  0.78228800  0.73962000  0.24921300  1
  C  773  1  0.75910700  0.72323800  0.26178200  1
  C  774  1  0.72879300  0.73601800  0.26480700  1
  C  775  1  0.72229700  0.76505200  0.25441800  1
  C  776  1  0.74519300  0.78125100  0.24202600  1
  C  778  1  0.79550800  0.68160400  0.26796100  1
  C  779  1  0.81834100  0.69777100  0.25572800  1
  C  785  1  0.79885700  0.78636800  0.22853400  1
  C  787  1  0.70462800  0.71998700  0.27559500  1
  C  789  1  0.77557400  0.23594800  0.76573000  1
  C  790  1  0.78227700  0.26522700  0.75563700  1
  C  791  1  0.75909100  0.28160900  0.74307500  1
  C  792  1  0.72876700  0.26884300  0.74007500  1
  C  793  1  0.72228300  0.23979500  0.75044700  1
  C  794  1  0.74518900  0.22359000  0.76282500  1
  C  796  1  0.79549600  0.32323800  0.73688200  1
  C  797  1  0.81833600  0.30706500  0.74910400  1
  C  803  1  0.79885100  0.21847800  0.77631600  1
  C  805  1  0.70460900  0.28486300  0.72927000  1
  C  807  1  0.22928700  0.76888900  0.76572300  1
  C  808  1  0.22258400  0.73960800  0.75563500  1
  C  809  1  0.24577100  0.72322400  0.74307500  1
  C  810  1  0.27609200  0.73599500  0.74007300  1
  C  811  1  0.28258300  0.76503300  0.75045200  1
  C  812  1  0.25967800  0.78124000  0.76283200  1
  C  814  1  0.20936100  0.68159900  0.73687600  1
  C  815  1  0.18652300  0.69777300  0.74909900  1
  C  821  1  0.20601500  0.78636300  0.77631200  1
  C  823  1  0.30025500  0.71997700  0.72927200  1
  C  825  1  0.23601300  0.22957700  0.76552100  1
  C  826  1  0.26531500  0.22275100  0.75550500  1
  C  827  1  0.28179800  0.24583500  0.74291300  1
  C  828  1  0.26910400  0.27616800  0.73979400  1
  C  829  1  0.24005400  0.28278300  0.75011900  1
  C  830  1  0.22374700  0.25998000  0.76252800  1
  C  832  1  0.32337300  0.20931300  0.73690600  1
  C  833  1  0.30710600  0.18657500  0.74916000  1
  C  839  1  0.21845300  0.20641300  0.77616000  1
  C  841  1  0.28525000  0.30024400  0.72899600  1
  C  843  1  0.76884000  0.77525900  0.76552600  1
  C  844  1  0.73954200  0.78208300  0.75550700  1
  C  845  1  0.72306200  0.75899800  0.74291100  1
  C  846  1  0.73575800  0.72867000  0.73978900  1
  C  847  1  0.76480800  0.72205500  0.75011300  1
  C  848  1  0.78110600  0.74485500  0.76253100  1
  C  850  1  0.68148400  0.79552000  0.73690100  1
  C  851  1  0.69774700  0.81825700  0.74915700  1
  C  857  1  0.78639800  0.79843000  0.77615900  1
  C  859  1  0.71961900  0.70459100  0.72898600  1
  C  861  1  0.23601200  0.77525200  0.23932900  1
  C  862  1  0.26531000  0.78208100  0.24935200  1
  C  863  1  0.28179800  0.75899300  0.26193900  1
  C  864  1  0.26911800  0.72865100  0.26503600  1
  C  865  1  0.24005100  0.72204600  0.25473200  1
  C  866  1  0.22374400  0.74485100  0.24232700  1
  C  868  1  0.32336400  0.79552500  0.26796100  1
  C  869  1  0.30708700  0.81826700  0.25571600  1
  C  875  1  0.21845000  0.79842300  0.22869900  1
  C  877  1  0.28525200  0.70458400  0.27585500  1
  C  879  1  0.76885600  0.22959600  0.23934900  1
  C  880  1  0.73955300  0.22277000  0.24936300  1
  C  881  1  0.72306600  0.24585600  0.26195200  1
  C  882  1  0.73575100  0.27619400  0.26505400  1
  C  883  1  0.76481200  0.28280600  0.25474600  1
  C  884  1  0.78111900  0.26000300  0.24233900  1
  C  886  1  0.68150300  0.20932300  0.26797200  1
  C  887  1  0.69777700  0.18658200  0.25572600  1
  C  893  1  0.78642500  0.20643100  0.22871800  1
  C  895  1  0.71962400  0.30026500  0.27587400  1
  C  897  1  0.96906500  0.25149600  0.13547000  1
  C  898  1  0.99140500  0.24478300  0.15241900  1
  C  899  1  0.02395800  0.24990200  0.14879100  1
  C  900  1  0.03494200  0.26178700  0.12809600  1
  C  901  1  0.01254500  0.26896200  0.11150000  1
  C  902  1  0.98042900  0.26382500  0.11506000  1
  C  904  1  0.03486600  0.23126200  0.18574800  1
  C  905  1  0.00290200  0.22606900  0.18933800  1
  C  911  1  0.93736500  0.24419400  0.13832400  1
  C  913  1  0.06656300  0.26592400  0.12326400  1
  C  915  1  0.03580800  0.75335800  0.13547000  1
  C  916  1  0.01346700  0.76007100  0.15241900  1
  C  917  1  0.98091500  0.75495700  0.14878900  1
  C  918  1  0.96993000  0.74308600  0.12809000  1
  C  919  1  0.99232600  0.73592900  0.11149000  1
  C  920  1  0.02444200  0.74104800  0.11505600  1
  C  922  1  0.97000800  0.77358000  0.18575100  1
  C  923  1  0.00197300  0.77876900  0.18934300  1
  C  929  1  0.06750800  0.76066700  0.13832600  1
  C  931  1  0.93830400  0.73894400  0.12326100  1
  C  933  1  0.03582400  0.25154000  0.86939500  1
  C  934  1  0.01347300  0.24479500  0.85246000  1
  C  935  1  0.98091900  0.24988500  0.85610200  1
  C  936  1  0.96994600  0.26176600  0.87680000  1
  C  937  1  0.99234900  0.26896500  0.89338500  1
  C  938  1  0.02446700  0.26386200  0.88980900  1
  C  940  1  0.96999100  0.23121500  0.81915500  1
  C  941  1  0.00195600  0.22605100  0.81555000  1
  C  947  1  0.06752400  0.24424300  0.86653200  1
  C  949  1  0.93832700  0.26586300  0.88165300  1
  C  951  1  0.96907400  0.75336100  0.86938400  1
  C  952  1  0.99141300  0.76005700  0.85243100  1
  C  953  1  0.02396400  0.75493100  0.85605800  1
  C  954  1  0.03494800  0.74306300  0.87675700  1
  C  955  1  0.01255100  0.73589200  0.89335300  1
  C  956  1  0.98043800  0.74103800  0.88979500  1
  C  958  1  0.03486900  0.77354800  0.81909400  1
  C  959  1  0.00290600  0.77874300  0.81550500  1
  C  965  1  0.93737500  0.76067400  0.86653200  1
  C  967  1  0.06657200  0.73892100  0.88158500  1
  C  969  1  0.26218800  0.97011000  0.12858200  1
  C  970  1  0.28523600  0.99259300  0.12264500  1
  C  971  1  0.28009900  0.02520300  0.12615200  1
  C  972  1  0.25179000  0.03606300  0.13569700  1
  C  973  1  0.22915700  0.01357900  0.14183600  1
  C  974  1  0.23418600  0.98148800  0.13831300  1
  C  976  1  0.33070500  0.03630800  0.11104500  1
  C  977  1  0.33580300  0.00430700  0.10749200  1
  C  983  1  0.26638600  0.93808500  0.12436300  1
  C  985  1  0.24501700  0.06748800  0.13935100  1
  C  987  1  0.26220900  0.03473800  0.87626800  1
  C  988  1  0.28525900  0.01225900  0.88220300  1
  C  989  1  0.28012600  0.97964600  0.87869600  1
  C  990  1  0.25181700  0.96878300  0.86915500  1
  C  991  1  0.22917600  0.99126300  0.86302200  1
  C  992  1  0.23420300  0.02335700  0.86653900  1
  C  994  1  0.33073600  0.96854900  0.89379900  1
  C  995  1  0.33583100  0.00055100  0.89735200  1
  C  1001  1  0.26639500  0.06676200  0.88049600  1
  C  1003  1  0.24504100  0.93735600  0.86551100  1
  C  1005  1  0.74266000  0.03477100  0.12859500  1
  C  1006  1  0.71962100  0.01228500  0.12264900  1
  C  1007  1  0.72477300  0.97967200  0.12613500  1
  C  1008  1  0.75308900  0.96881600  0.13566900  1
  C  1009  1  0.77571900  0.99130000  0.14181300  1
  C  1010  1  0.77067500  0.02339500  0.13831200  1
  C  1012  1  0.67416600  0.96856300  0.11103400  1
  C  1013  1  0.66905200  0.00056500  0.10749900  1
  C  1019  1  0.73845300  0.06679700  0.12438800  1
  C  1021  1  0.75990000  0.93739100  0.13928800  1
  C  1023  1  0.74267100  0.97010100  0.87627900  1
  C  1024  1  0.71962600  0.99258300  0.88221800  1
  C  1025  1  0.72476500  0.02519400  0.87871500  1
  C  1026  1  0.75307400  0.03605500  0.86917000  1
  C  1027  1  0.77570600  0.01357000  0.86302700  1
  C  1028  1  0.77067600  0.98147700  0.86654700  1
  C  1030  1  0.67416100  0.03630000  0.89382400  1
  C  1031  1  0.66906100  0.00429900  0.89737600  1
  C  1037  1  0.73847100  0.93807300  0.88048900  1
  C  1039  1  0.75985200  0.06748000  0.86551800  1
  C  1041  1  0.11805400  0.12854200  0.97838100  1
  C  1042  1  0.10725600  0.15141400  0.99368800  1
  C  1043  1  0.11029300  0.14683200  0.01721100  1
  C  1044  1  0.12401400  0.11911900  0.02585000  1
  C  1045  1  0.13508900  0.09673700  0.01031100  1
  C  1046  1  0.13228400  0.10134800  0.98709600  1
  C  1048  1  0.08488200  0.19598500  0.02346000  1
  C  1049  1  0.08209800  0.20052400  0.00033100  1
  C  1055  1  0.11159200  0.13066900  0.95565200  1
  C  1057  1  0.12417100  0.11155600  0.04856900  1
  C  1059  1  0.88678000  0.12853300  0.02648900  1
  C  1060  1  0.89759200  0.15140500  0.01118600  1
  C  1061  1  0.89456300  0.14683100  0.98766000  1
  C  1062  1  0.88084800  0.11911800  0.97901600  1
  C  1063  1  0.86976700  0.09673200  0.99455000  1
  C  1064  1  0.87252200  0.10135700  0.01776800  1
  C  1066  1  0.91999200  0.19597600  0.98142300  1
  C  1067  1  0.92276700  0.20051000  0.00455200  1
  C  1073  1  0.89325400  0.13066000  0.04921500  1
  C  1075  1  0.88071700  0.11155600  0.95629700  1
  C  1077  1  0.11807400  0.87631800  0.02647600  1
  C  1078  1  0.10727100  0.85345500  0.01116200  1
  C  1079  1  0.11030100  0.85804700  0.98763900  1
  C  1080  1  0.12399100  0.88578100  0.97900700  1
  C  1081  1  0.13509100  0.90814400  0.99455000  1
  C  1082  1  0.13230000  0.90351400  0.01776400  1
  C  1084  1  0.08489500  0.80889400  0.98138100  1
  C  1085  1  0.08213300  0.80433400  0.00451000  1
  C  1091  1  0.11161000  0.87416300  0.04920200  1
  C  1093  1  0.12418900  0.89332800  0.95628500  1
  C  1095  1  0.88679100  0.87632900  0.97837300  1
  C  1096  1  0.89759200  0.85345700  0.99367600  1
  C  1097  1  0.89456300  0.85803300  0.01720100  1
  C  1098  1  0.88086600  0.88576000  0.02583900  1
  C  1099  1  0.86975500  0.90813000  0.01030500  1
  C  1100  1  0.87253400  0.90351000  0.98708800  1
  C  1102  1  0.91996400  0.80887600  0.02344300  1
  C  1103  1  0.92273900  0.80433900  0.00031400  1
  C  1109  1  0.89325600  0.87421000  0.95564400  1
  C  1111  1  0.88069600  0.89331400  0.04856000  1
  C  1113  1  0.46778500  0.75163300  0.63575000  1
  C  1114  1  0.49016500  0.74489500  0.65266700  1
  C  1115  1  0.52271800  0.74990100  0.64897300  1
  C  1116  1  0.53366100  0.76168400  0.62823900  1
  C  1117  1  0.51123200  0.76887100  0.61166800  1
  C  1118  1  0.47911300  0.76385300  0.61529600  1
  C  1120  1  0.53370600  0.73135000  0.68594300  1
  C  1121  1  0.50173900  0.72625500  0.68959400  1
  C  1127  1  0.43607300  0.74444600  0.63868000  1
  C  1129  1  0.56527000  0.76578600  0.62337000  1
  C  1131  1  0.53708500  0.25320900  0.63577100  1
  C  1132  1  0.51470400  0.25994300  0.65269000  1
  C  1133  1  0.48215000  0.25493900  0.64899500  1
  C  1134  1  0.47120700  0.24317000  0.62825600  1
  C  1135  1  0.49363500  0.23600200  0.61168100  1
  C  1136  1  0.52575600  0.24100100  0.61531600  1
  C  1138  1  0.47116500  0.27347300  0.68596800  1
  C  1139  1  0.50313000  0.27856600  0.68962100  1
  C  1145  1  0.56879500  0.26040800  0.63870100  1
  C  1147  1  0.43959700  0.23906600  0.62339000  1
  C  1149  1  0.53709800  0.75168700  0.36909400  1
  C  1150  1  0.51470600  0.74492100  0.35218700  1
  C  1151  1  0.48215300  0.74990100  0.35589500  1
  C  1152  1  0.47121900  0.76167900  0.37663200  1
  C  1153  1  0.49365500  0.76888900  0.39319200  1
  C  1154  1  0.52577600  0.76389700  0.38955000  1
  C  1156  1  0.47114600  0.73132500  0.31893600  1
  C  1157  1  0.50311300  0.72625500  0.31526900  1
  C  1163  1  0.56880800  0.74449500  0.36615500  1
  C  1165  1  0.43961500  0.76574600  0.38152000  1
  C  1167  1  0.46779500  0.25321800  0.36910700  1
  C  1168  1  0.49017200  0.25994000  0.35218500  1
  C  1169  1  0.52272600  0.25492900  0.35587700  1
  C  1170  1  0.53366900  0.24316100  0.37661600  1
  C  1171  1  0.51124100  0.23597400  0.39318700  1
  C  1172  1  0.47912400  0.24100600  0.38956200  1
  C  1174  1  0.53370800  0.27345200  0.31890200  1
  C  1175  1  0.50174300  0.27855400  0.31525000  1
  C  1181  1  0.43608500  0.26042200  0.36618200  1
  C  1183  1  0.56528100  0.23905200  0.38147800  1
  C  1185  1  0.76213500  0.47141700  0.62873900  1
  C  1186  1  0.78521300  0.49385500  0.62277500  1
  C  1187  1  0.78016400  0.52646900  0.62632000  1
  C  1188  1  0.75191800  0.53736600  0.63593300  1
  C  1189  1  0.72924000  0.51493000  0.64207600  1
  C  1190  1  0.73417900  0.48283200  0.63851300  1
  C  1192  1  0.83073600  0.53749000  0.61112800  1
  C  1193  1  0.83575400  0.50548500  0.60754200  1
  C  1199  1  0.76627400  0.43939200  0.62452600  1
  C  1201  1  0.74524600  0.56878800  0.63965500  1
  C  1203  1  0.76215000  0.53342700  0.37611500  1
  C  1204  1  0.78523300  0.51099400  0.38207500  1
  C  1205  1  0.78018900  0.47837800  0.37853000  1
  C  1206  1  0.75194000  0.46747700  0.36892000  1
  C  1207  1  0.72925500  0.48991200  0.36278400  1
  C  1208  1  0.73419300  0.52200800  0.36634400  1
  C  1210  1  0.83076500  0.46736200  0.39371500  1
  C  1211  1  0.83577900  0.49936900  0.39730300  1
  C  1217  1  0.76627700  0.56545300  0.38033900  1
  C  1219  1  0.74526700  0.43605200  0.36520500  1
  C  1221  1  0.24271700  0.53344600  0.62875400  1
  C  1222  1  0.21964400  0.51100400  0.62278500  1
  C  1223  1  0.22471000  0.47838900  0.62631300  1
  C  1224  1  0.25296400  0.46749500  0.63591500  1
  C  1225  1  0.27564000  0.48993500  0.64205700  1
  C  1226  1  0.27068200  0.52203300  0.63851400  1
  C  1228  1  0.17413400  0.46735700  0.61113300  1
  C  1229  1  0.16910000  0.49936400  0.60756000  1
  C  1235  1  0.23856300  0.56547400  0.62455200  1
  C  1237  1  0.25967400  0.43607500  0.63960500  1
  C  1239  1  0.24272500  0.47142200  0.37611500  1
  C  1240  1  0.21964800  0.49386000  0.38207800  1
  C  1241  1  0.22470100  0.52647400  0.37853300  1
  C  1242  1  0.25294600  0.53736800  0.36892000  1
  C  1243  1  0.27562200  0.51493000  0.36277600  1
  C  1244  1  0.27068300  0.48283500  0.36634200  1
  C  1246  1  0.17413000  0.53750100  0.39372500  1
  C  1247  1  0.16910900  0.50549700  0.39731300  1
  C  1253  1  0.23857800  0.43939400  0.38031900  1
  C  1255  1  0.25962300  0.56879000  0.36519600  1
  C  1257  1  0.61845500  0.62906000  0.47836700  1
  C  1258  1  0.60756100  0.65180100  0.49374000  1
  C  1259  1  0.61067300  0.64713600  0.51725200  1
  C  1260  1  0.62457700  0.61946700  0.52581800  1
  C  1261  1  0.63574500  0.59722100  0.51021100  1
  C  1262  1  0.63285800  0.60191200  0.48701000  1
  C  1264  1  0.58499500  0.69611800  0.52363500  1
  C  1265  1  0.58214100  0.70074400  0.50051900  1
  C  1271  1  0.61193200  0.63127100  0.45564500  1
  C  1273  1  0.62487200  0.61180300  0.54852500  1
  C  1275  1  0.38636000  0.62906000  0.52648700  1
  C  1276  1  0.39727500  0.65180100  0.51111600  1
  C  1277  1  0.39417000  0.64714500  0.48760400  1
  C  1278  1  0.38026800  0.61948100  0.47903000  1
  C  1279  1  0.36909100  0.59723300  0.49463000  1
  C  1280  1  0.37192700  0.60193300  0.51783500  1
  C  1282  1  0.41987300  0.69611800  0.48123500  1
  C  1283  1  0.42271800  0.70073400  0.50435100  1
  C  1289  1  0.39289700  0.63126400  0.54920500  1
  C  1291  1  0.37999700  0.61182000  0.45632300  1
  C  1293  1  0.61849300  0.37579900  0.52649200  1
  C  1294  1  0.60758700  0.35306700  0.51111100  1
  C  1295  1  0.61069100  0.35774100  0.48760100  1
  C  1296  1  0.62457000  0.38542600  0.47904000  1
  C  1297  1  0.63576800  0.40765200  0.49464700  1
  C  1298  1  0.63289600  0.40294700  0.51784800  1
  C  1300  1  0.58500900  0.30875900  0.48121300  1
  C  1301  1  0.58217600  0.30412000  0.50432800  1
  C  1307  1  0.61196600  0.37356900  0.54921200  1
  C  1309  1  0.62490400  0.39307200  0.45633000  1
  C  1311  1  0.38637500  0.37581100  0.47837700  1
  C  1312  1  0.39727400  0.35306700  0.49374700  1
  C  1313  1  0.39417100  0.35772300  0.51725900  1
  C  1314  1  0.38028700  0.38540100  0.52582700  1
  C  1315  1  0.36908200  0.40763500  0.51022800  1
  C  1316  1  0.37194300  0.40294200  0.48702300  1
  C  1318  1  0.41984300  0.30873600  0.52363000  1
  C  1319  1  0.42269000  0.30411700  0.50051400  1
  C  1325  1  0.39290300  0.37361400  0.45565500  1
  C  1327  1  0.37997900  0.39305100  0.54853700  1
  N  44  1  0.20949700  0.20502100  0.20941500  1
  N  45  1  0.08676900  0.24521800  0.12904500  1
  N  46  1  0.25095300  0.08879200  0.12473900  1
  N  47  1  0.12937200  0.13162800  0.06418100  1
  N  91  1  0.79535300  0.79984400  0.20939500  1
  N  92  1  0.91809900  0.75964800  0.12904800  1
  N  93  1  0.75392800  0.91607300  0.12469400  1
  N  94  1  0.87551000  0.87323500  0.06417000  1
  N  138  1  0.79535000  0.20500300  0.79545600  1
  N  139  1  0.91811400  0.24516400  0.87587500  1
  N  140  1  0.75390900  0.08878400  0.88013000  1
  N  141  1  0.87550200  0.13162600  0.94068600  1
  N  185  1  0.20952100  0.79984000  0.79545300  1
  N  186  1  0.08677100  0.75963400  0.87580700  1
  N  187  1  0.25098000  0.91605400  0.88012500  1
  N  188  1  0.12936300  0.87324200  0.94067800  1
  N  232  1  0.20499200  0.21006300  0.79529100  1
  N  233  1  0.24562300  0.08722500  0.87528700  1
  N  234  1  0.08917000  0.25102800  0.88073400  1
  N  235  1  0.13299900  0.12849500  0.94061300  1
  N  279  1  0.79986100  0.79478900  0.79528900  1
  N  280  1  0.75923300  0.91760600  0.87527400  1
  N  281  1  0.91572500  0.75385600  0.88072300  1
  N  282  1  0.87185100  0.87637600  0.94060300  1
  N  326  1  0.20500100  0.79479100  0.20956400  1
  N  327  1  0.24563100  0.91761700  0.12958800  1
  N  328  1  0.08915300  0.75385600  0.12413100  1
  N  329  1  0.13300800  0.87636500  0.06424700  1
  N  373  1  0.79987600  0.21007200  0.20958200  1
  N  374  1  0.75922200  0.08726200  0.12959700  1
  N  375  1  0.91572800  0.25097700  0.12411400  1
  N  376  1  0.87185500  0.12851000  0.06426000  1
  N  420  1  0.70563700  0.70774600  0.70999300  1
  N  421  1  0.58551600  0.74514700  0.62921300  1
  N  422  1  0.75097200  0.59009200  0.62499700  1
  N  423  1  0.62961700  0.63188300  0.56421100  1
  N  467  1  0.29922600  0.29709600  0.71000100  1
  N  468  1  0.41935000  0.25970000  0.62923800  1
  N  469  1  0.25390800  0.41475200  0.62497200  1
  N  470  1  0.37525300  0.37296400  0.56422100  1
  N  514  1  0.29924100  0.70775100  0.29484500  1
  N  515  1  0.41936200  0.74511200  0.37568200  1
  N  516  1  0.25388800  0.59009900  0.37984800  1
  N  517  1  0.37524500  0.63189700  0.44063700  1
  N  561  1  0.70562800  0.29709800  0.29486200  1
  N  562  1  0.58552200  0.25969700  0.37563800  1
  N  563  1  0.75099900  0.41474800  0.37986000  1
  N  564  1  0.62961800  0.37298000  0.44064700  1
  N  608  1  0.70767400  0.70610800  0.29463300  1
  N  609  1  0.74554800  0.58592000  0.37505000  1
  N  610  1  0.59044900  0.75100200  0.38042900  1
  N  611  1  0.63320500  0.62874200  0.44053300  1
  N  655  1  0.29720300  0.29873400  0.29464800  1
  N  656  1  0.25930800  0.41892000  0.37503500  1
  N  657  1  0.41444500  0.25389100  0.38044800  1
  N  658  1  0.37162900  0.37614300  0.44054200  1
  N  702  1  0.70766600  0.29874800  0.71023300  1
  N  703  1  0.74555600  0.41891700  0.62983100  1
  N  704  1  0.59043600  0.25388000  0.62443500  1
  N  705  1  0.63323300  0.37611700  0.56432600  1
  N  749  1  0.29720000  0.70609200  0.71023300  1
  N  750  1  0.25930000  0.58594100  0.62982900  1
  N  751  1  0.41444400  0.75093700  0.62439400  1
  N  752  1  0.37162800  0.62874900  0.56432300  1
  N  759  1  0.23791800  0.30999300  0.27050000  1
  N  762  1  0.19398900  0.27894200  0.24687100  1
  N  777  1  0.76695800  0.69487500  0.27048100  1
  N  780  1  0.81087100  0.72594000  0.24684900  1
  N  795  1  0.76693900  0.30997400  0.73437300  1
  N  798  1  0.81086400  0.27890000  0.75799100  1
  N  813  1  0.23792000  0.69486300  0.73437000  1
  N  816  1  0.19399400  0.72594000  0.75798400  1
  N  831  1  0.31017700  0.23788100  0.73429000  1
  N  834  1  0.27891800  0.19415000  0.75796600  1
  N  849  1  0.69468200  0.76695200  0.73428500  1
  N  852  1  0.72593400  0.81068500  0.75796600  1
  N  867  1  0.31017700  0.76695000  0.27056500  1
  N  870  1  0.27890600  0.81068700  0.24690300  1
  N  885  1  0.69469000  0.23789700  0.27057800  1
  N  888  1  0.72596000  0.19416100  0.24691400  1
  N  903  1  0.04404300  0.24289900  0.16574800  1
  N  906  1  0.98265700  0.23300300  0.17265300  1
  N  921  1  0.96082900  0.76195500  0.16574900  1
  N  924  1  0.02221700  0.77183900  0.17265600  1
  N  939  1  0.96082300  0.24285200  0.83915600  1
  N  942  1  0.02221200  0.23301300  0.83222400  1
  N  957  1  0.04404800  0.76192200  0.83909800  1
  N  960  1  0.98266200  0.77182500  0.83219400  1
  N  975  1  0.30322100  0.04544900  0.12019600  1
  N  978  1  0.31303600  0.98390000  0.11340400  1
  N  993  1  0.30325400  0.95940600  0.88465200  1
  N  996  1  0.31305900  0.02095400  0.89144200  1
  N  1011  1  0.70165700  0.95942200  0.12017300  1
  N  1014  1  0.69181500  0.02097500  0.11341900  1
  N  1029  1  0.70164500  0.04544000  0.88467300  1
  N  1032  1  0.69182800  0.98389300  0.89146100  1
  N  1047  1  0.09865300  0.16943300  0.03092900  1
  N  1050  1  0.09321300  0.17813900  0.98641800  1
  N  1065  1  0.90621600  0.16943000  0.97394700  1
  N  1068  1  0.91164100  0.17812500  0.01846000  1
  N  1083  1  0.09865500  0.83545300  0.97391700  1
  N  1086  1  0.09324200  0.82671800  0.01842500  1
  N  1101  1  0.90620500  0.83543200  0.03091600  1
  N  1104  1  0.91162700  0.82673000  0.98640400  1
  N  1119  1  0.54284200  0.74289700  0.66590700  1
  N  1122  1  0.48145600  0.73319900  0.67293600  1
  N  1137  1  0.46202600  0.26193400  0.66593000  1
  N  1140  1  0.52341300  0.27162900  0.67296100  1
  N  1155  1  0.46201700  0.74287300  0.33897300  1
  N  1158  1  0.52340500  0.73322300  0.33191700  1
  N  1173  1  0.54284700  0.26191800  0.33894000  1
  N  1176  1  0.48146100  0.27162400  0.33191400  1
  N  1191  1  0.80330600  0.54667800  0.62033900  1
  N  1194  1  0.81296100  0.48511800  0.61347700  1
  N  1209  1  0.80333300  0.45817200  0.38450700  1
  N  1212  1  0.81298100  0.51973300  0.39137100  1
  N  1227  1  0.20157400  0.45817400  0.62033100  1
  N  1230  1  0.19188700  0.51973600  0.61350000  1
  N  1245  1  0.20156100  0.54668500  0.38451400  1
  N  1248  1  0.19190000  0.48512800  0.39137600  1
  N  1263  1  0.59893300  0.66961400  0.53102900  1
  N  1266  1  0.59335300  0.67847900  0.48654900  1
  N  1281  1  0.40592700  0.66962300  0.47383300  1
  N  1284  1  0.41149000  0.67847200  0.51831600  1
  N  1299  1  0.59893900  0.33527100  0.47382300  1
  N  1302  1  0.59339100  0.32638200  0.51830100  1
  N  1317  1  0.40591600  0.33524300  0.53103000  1
  N  1320  1  0.41147800  0.32638900  0.48654700  1
