# generated using pymatgen
data_H14C18N7
_symmetry_space_group_name_H-M   'P 1'
_cell_length_a   55.14720000
_cell_length_b   55.14710000
_cell_length_c   65.41410000
_cell_angle_alpha   90.00060000
_cell_angle_beta   90.00000000
_cell_angle_gamma   90.00000000
_symmetry_Int_Tables_number   1
_chemical_formula_structural   H14C18N7
_chemical_formula_sum   'H448 C576 N224'
_cell_volume   198937.89423810
_cell_formula_units_Z   32
loop_
 _symmetry_equiv_pos_site_id
 _symmetry_equiv_pos_as_xyz
  1  'x, y, z'
loop_
 _atom_site_type_symbol
 _atom_site_label
 _atom_site_symmetry_multiplicity
 _atom_site_fract_x
 _atom_site_fract_y
 _atom_site_fract_z
 _atom_site_occupancy
  H  7  1  0.16670600  0.41722300  0.90053400  1
  H  8  1  0.19028400  0.36037900  0.93808800  1
  H  15  1  0.13654500  0.41772200  0.81579300  1
  H  16  1  0.19250300  0.39416200  0.85444700  1
  H  19  1  0.16138700  0.34640600  0.86014600  1
  H  20  1  0.17152600  0.32428200  0.87475500  1
  H  21  1  0.09859800  0.39514300  0.87735500  1
  H  22  1  0.12041200  0.38492000  0.89225100  1
  H  33  1  0.33259500  0.53317600  0.40055300  1
  H  34  1  0.30910900  0.59005100  0.43811000  1
  H  41  1  0.36286500  0.53272800  0.31581400  1
  H  42  1  0.30684600  0.55613900  0.35446900  1
  H  45  1  0.33795400  0.60397500  0.36015000  1
  H  46  1  0.32786300  0.62611600  0.37476800  1
  H  47  1  0.40075500  0.55541000  0.37737100  1
  H  48  1  0.37891500  0.56557100  0.39227200  1
  H  59  1  0.80792400  0.89321700  0.14903700  1
  H  60  1  0.86549300  0.91676200  0.18583900  1
  H  67  1  0.80582000  0.86065900  0.06514700  1
  H  68  1  0.83200300  0.91699500  0.10205200  1
  H  71  1  0.87840600  0.88485000  0.10868700  1
  H  72  1  0.90080600  0.89497200  0.12300900  1
  H  73  1  0.82687500  0.82419900  0.12782000  1
  H  74  1  0.83819900  0.84612500  0.14200500  1
  H  85  1  0.69155000  0.05723300  0.64902200  1
  H  86  1  0.63398400  0.03365500  0.68581700  1
  H  93  1  0.69359900  0.08978900  0.56511200  1
  H  94  1  0.66747200  0.03345700  0.60204600  1
  H  97  1  0.62106200  0.06560900  0.60867900  1
  H  98  1  0.59866500  0.05547200  0.62299600  1
  H  99  1  0.67258800  0.12626100  0.62779600  1
  H  100  1  0.66129600  0.10433300  0.64199600  1
  H  111  1  0.33124800  0.41862100  0.60513700  1
  H  112  1  0.30729200  0.36298600  0.56632400  1
  H  119  1  0.36598400  0.41569900  0.68848800  1
  H  120  1  0.30842900  0.39315700  0.65123900  1
  H  123  1  0.34021900  0.34627500  0.64264400  1
  H  124  1  0.32988300  0.32459300  0.62766000  1
  H  125  1  0.40120600  0.39652200  0.62490700  1
  H  126  1  0.37879700  0.38678800  0.61041300  1
  H  137  1  0.16823700  0.53180300  0.10508000  1
  H  138  1  0.19209700  0.58749000  0.06627900  1
  H  145  1  0.13349700  0.53467300  0.18844100  1
  H  146  1  0.19104200  0.55722300  0.15118800  1
  H  149  1  0.15922000  0.60411500  0.14262800  1
  H  150  1  0.16951000  0.62581900  0.12764300  1
  H  151  1  0.09825500  0.55388600  0.12487800  1
  H  152  1  0.12066000  0.56362500  0.11038100  1
  H  163  1  0.69094000  0.89481900  0.35071500  1
  H  164  1  0.63333800  0.91985500  0.31468100  1
  H  171  1  0.69474300  0.86076900  0.43368300  1
  H  172  1  0.66646000  0.91736800  0.39820900  1
  H  175  1  0.62057200  0.88489100  0.39095700  1
  H  176  1  0.59813400  0.89567500  0.37701200  1
  H  177  1  0.67314600  0.82524700  0.37083600  1
  H  178  1  0.66101700  0.84721000  0.35717400  1
  H  189  1  0.80854900  0.05564200  0.85070600  1
  H  190  1  0.86612600  0.03056400  0.81466100  1
  H  197  1  0.80476700  0.08960300  0.93369500  1
  H  198  1  0.83299100  0.03302300  0.89816700  1
  H  201  1  0.87892800  0.06547500  0.89095000  1
  H  202  1  0.90135500  0.05467600  0.87699900  1
  H  203  1  0.82641400  0.12518800  0.87088300  1
  H  204  1  0.83851400  0.10322900  0.85719900  1
  H  215  1  0.83146200  0.53331900  0.10046400  1
  H  216  1  0.80807400  0.59108400  0.06380000  1
  H  223  1  0.86361800  0.53109700  0.18459600  1
  H  224  1  0.80740300  0.55726400  0.14755800  1
  H  227  1  0.83945700  0.60357900  0.14115100  1
  H  228  1  0.82938800  0.62604400  0.12687900  1
  H  229  1  0.90028600  0.55210500  0.12201000  1
  H  230  1  0.87841300  0.56342200  0.10776300  1
  H  241  1  0.66808100  0.41717000  0.60050400  1
  H  242  1  0.69141700  0.35938600  0.56384500  1
  H  249  1  0.63587100  0.41936900  0.68464000  1
  H  250  1  0.69210400  0.39323800  0.64760300  1
  H  253  1  0.66002700  0.34692200  0.64119500  1
  H  254  1  0.67006700  0.32444700  0.62692000  1
  H  255  1  0.59922400  0.39835700  0.62204600  1
  H  256  1  0.62110500  0.38705800  0.60779900  1
  H  267  1  0.19199500  0.05919300  0.85070200  1
  H  268  1  0.13589500  0.03138900  0.81441000  1
  H  275  1  0.19312900  0.09041800  0.93484400  1
  H  276  1  0.16767300  0.03413900  0.89754800  1
  H  279  1  0.12109200  0.06497800  0.89079400  1
  H  280  1  0.09933600  0.05295300  0.87684500  1
  H  281  1  0.17219400  0.12713600  0.87224800  1
  H  282  1  0.16106500  0.10522200  0.85793100  1
  H  293  1  0.30745000  0.89122500  0.35077500  1
  H  294  1  0.36350600  0.91897700  0.31440200  1
  H  301  1  0.30642000  0.86001300  0.43491100  1
  H  302  1  0.33184300  0.91627100  0.39757600  1
  H  305  1  0.37842400  0.88538600  0.39077200  1
  H  306  1  0.40016700  0.89737600  0.37678700  1
  H  307  1  0.32726400  0.82326700  0.37230000  1
  H  308  1  0.33837300  0.84517500  0.35796600  1
  H  319  1  0.66714800  0.53383900  0.39857800  1
  H  320  1  0.69272600  0.59142000  0.43438200  1
  H  327  1  0.63368400  0.53059800  0.31513500  1
  H  328  1  0.69011500  0.55816800  0.35117200  1
  H  331  1  0.65755100  0.60411400  0.35816900  1
  H  332  1  0.66855100  0.62652900  0.37201600  1
  H  333  1  0.59769700  0.55190900  0.37788000  1
  H  334  1  0.61962700  0.56372300  0.39177300  1
  H  345  1  0.83230900  0.41658800  0.89857700  1
  H  346  1  0.80676800  0.35900100  0.93439200  1
  H  353  1  0.86586300  0.41996500  0.81521600  1
  H  354  1  0.80942700  0.39216900  0.85112500  1
  H  357  1  0.84194700  0.34630600  0.85817900  1
  H  358  1  0.83095800  0.32389000  0.87203100  1
  H  359  1  0.90176200  0.39867000  0.87799400  1
  H  360  1  0.87983800  0.38675900  0.89183500  1
  H  371  1  0.30854700  0.06028100  0.64645400  1
  H  372  1  0.36447400  0.03404700  0.68375900  1
  H  379  1  0.30628000  0.09188000  0.56326200  1
  H  380  1  0.33354900  0.03576900  0.59983100  1
  H  383  1  0.37982400  0.06659200  0.60706900  1
  H  384  1  0.40158400  0.05514100  0.62137100  1
  H  385  1  0.32802600  0.12859800  0.62562500  1
  H  386  1  0.33978700  0.10678900  0.63967600  1
  H  397  1  0.19093500  0.89019100  0.14641600  1
  H  398  1  0.13503000  0.91635600  0.18378500  1
  H  405  1  0.19313000  0.85861400  0.06322400  1
  H  406  1  0.16592900  0.91470400  0.09985100  1
  H  409  1  0.11961700  0.88383200  0.10709800  1
  H  410  1  0.09786200  0.89524900  0.12142600  1
  H  411  1  0.17141800  0.82184900  0.12557900  1
  H  412  1  0.15968800  0.84365300  0.13965500  1
  H  423  1  0.27862000  0.38380200  0.70077500  1
  H  430  1  0.19317400  0.43528600  0.78408500  1
  H  431  1  0.24301700  0.38021000  0.79939000  1
  H  432  1  0.29061700  0.45624900  0.71853600  1
  H  434  1  0.21951600  0.44832300  0.73555700  1
  H  435  1  0.19775300  0.45542400  0.75196600  1
  H  437  1  0.25038100  0.36007000  0.71970400  1
  H  438  1  0.23519100  0.37096600  0.73951000  1
  H  441  1  0.30080600  0.43684800  0.68112700  1
  H  442  1  0.21133300  0.39114400  0.82320300  1
  H  449  1  0.22078700  0.56667300  0.20081000  1
  H  456  1  0.30630900  0.51515300  0.28404300  1
  H  457  1  0.25634000  0.57009000  0.29941400  1
  H  458  1  0.20901000  0.49411600  0.21835200  1
  H  460  1  0.28001800  0.50215300  0.23549200  1
  H  461  1  0.30178500  0.49506500  0.25190100  1
  H  463  1  0.24902500  0.59036800  0.21976000  1
  H  464  1  0.26423500  0.57943200  0.23954200  1
  H  467  1  0.19886200  0.51366700  0.18095800  1
  H  468  1  0.28809300  0.55926500  0.32318100  1
  H  475  1  0.83937000  0.00838300  0.95075100  1
  H  482  1  0.78973200  0.92130200  0.03431000  1
  H  483  1  0.85447700  0.96025300  0.04434300  1
  H  484  1  0.77424600  0.02821200  0.98010700  1
  H  486  1  0.77326000  0.95360800  0.98919300  1
  H  487  1  0.76542800  0.93182700  0.00536100  1
  H  489  1  0.86104100  0.97409600  0.96306400  1
  H  490  1  0.85151100  0.95775100  0.98273000  1
  H  493  1  0.79173400  0.05424700  0.95291200  1
  H  494  1  0.84317500  0.92823900  0.06754300  1
  H  501  1  0.66003400  0.94193200  0.45080600  1
  H  508  1  0.70969200  0.02906000  0.53431400  1
  H  509  1  0.64488000  0.99022400  0.54436100  1
  H  510  1  0.72517600  0.92214900  0.48015500  1
  H  512  1  0.72608600  0.99672100  0.48919600  1
  H  513  1  0.73394500  0.01851600  0.50534200  1
  H  515  1  0.63837700  0.97624400  0.46308400  1
  H  516  1  0.64789500  0.99258500  0.48275700  1
  H  519  1  0.70770600  0.89610600  0.45295400  1
  H  520  1  0.65621300  0.02226200  0.56752600  1
  H  527  1  0.71507600  0.56502200  0.29852700  1
  H  534  1  0.80271900  0.51513100  0.21537700  1
  H  535  1  0.76408500  0.58001700  0.20517100  1
  H  536  1  0.69552800  0.49985800  0.26911800  1
  H  538  1  0.77011900  0.49882900  0.26039200  1
  H  539  1  0.79194600  0.49089400  0.24430200  1
  H  541  1  0.74946200  0.58668700  0.28639700  1
  H  542  1  0.76596100  0.57715300  0.26682600  1
  H  545  1  0.66920600  0.51742400  0.29610000  1
  H  546  1  0.79614600  0.56856400  0.18207200  1
  H  553  1  0.78456100  0.38533000  0.79847300  1
  H  560  1  0.69680100  0.43530700  0.71543700  1
  H  561  1  0.73536100  0.37038400  0.70520000  1
  H  562  1  0.80402900  0.45055000  0.76911400  1
  H  564  1  0.72947500  0.45158700  0.76041700  1
  H  565  1  0.70763400  0.45953900  0.74434700  1
  H  567  1  0.75009300  0.36374300  0.78642500  1
  H  568  1  0.73356300  0.37329900  0.76687900  1
  H  571  1  0.83039800  0.43294900  0.79605600  1
  H  572  1  0.70324900  0.38183500  0.68215600  1
  H  579  1  0.15964600  0.94073100  0.04773500  1
  H  586  1  0.20960300  0.02913900  0.96526000  1
  H  587  1  0.14480200  0.99042700  0.95483200  1
  H  588  1  0.22464100  0.92107000  0.01809300  1
  H  590  1  0.22604200  0.99609700  0.01002200  1
  H  591  1  0.23390500  0.01812900  0.99410200  1
  H  593  1  0.13824900  0.97545700  0.03596300  1
  H  594  1  0.14792200  0.99216000  0.01656000  1
  H  597  1  0.20703500  0.89458800  0.04489900  1
  H  598  1  0.15623700  0.02260300  0.93187700  1
  H  605  1  0.33978900  0.00973300  0.54777300  1
  H  612  1  0.28986300  0.92144000  0.46520100  1
  H  613  1  0.35483600  0.95991300  0.45491300  1
  H  614  1  0.27489900  0.02949100  0.51801700  1
  H  616  1  0.27345200  0.95449900  0.50996000  1
  H  617  1  0.26556000  0.93248700  0.49403100  1
  H  619  1  0.36113400  0.97494300  0.53607100  1
  H  620  1  0.35149800  0.95827500  0.51663500  1
  H  623  1  0.29243900  0.05592100  0.54488400  1
  H  624  1  0.34331600  0.92781900  0.43190200  1
  H  631  1  0.80724700  0.88801400  0.21969700  1
  H  638  1  0.71499600  0.93852500  0.29812400  1
  H  639  1  0.70859500  0.86638500  0.27746900  1
  H  640  1  0.75888800  0.94141200  0.19812700  1
  H  642  1  0.75826000  0.95615200  0.26038900  1
  H  643  1  0.74187500  0.96520100  0.28021600  1
  H  645  1  0.80129200  0.87195200  0.25307700  1
  H  646  1  0.77881100  0.88086200  0.26809100  1
  H  649  1  0.78873700  0.92088000  0.17472400  1
  H  650  1  0.69418400  0.87920900  0.31220900  1
  H  657  1  0.69227500  0.06253500  0.71963700  1
  H  664  1  0.78440500  0.01194700  0.79815400  1
  H  665  1  0.79087600  0.08406200  0.77745800  1
  H  666  1  0.74050000  0.00895200  0.69817700  1
  H  668  1  0.74110800  0.99433400  0.76044500  1
  H  669  1  0.75749900  0.98528200  0.78026800  1
  H  671  1  0.69817500  0.07854800  0.75303900  1
  H  672  1  0.72062400  0.06960400  0.76807300  1
  H  675  1  0.71073800  0.02956600  0.67472100  1
  H  676  1  0.80523100  0.07123400  0.81222700  1
  H  683  1  0.34037800  0.50339000  0.45066300  1
  H  690  1  0.28877600  0.41976400  0.53530400  1
  H  691  1  0.34484100  0.46892000  0.54961400  1
  H  692  1  0.26859000  0.51697600  0.46951800  1
  H  694  1  0.27576200  0.44544900  0.48650700  1
  H  695  1  0.26845400  0.42408100  0.50322300  1
  H  697  1  0.36397200  0.47484200  0.46938800  1
  H  698  1  0.35318000  0.45998900  0.48942400  1
  H  701  1  0.28628100  0.52845200  0.43291900  1
  H  702  1  0.33254800  0.43844000  0.57433800  1
  H  709  1  0.15906300  0.44709400  0.95056100  1
  H  716  1  0.21068500  0.53062700  0.03526900  1
  H  717  1  0.15442900  0.48165100  0.04948600  1
  H  718  1  0.23076400  0.43333700  0.96956200  1
  H  720  1  0.22367100  0.50493800  0.98646600  1
  H  721  1  0.23101100  0.52628900  0.00319100  1
  H  723  1  0.13549900  0.47573400  0.96921300  1
  H  724  1  0.14627100  0.49057100  0.98926400  1
  H  727  1  0.21313700  0.42181100  0.93296200  1
  H  728  1  0.16675600  0.51209000  0.07423000  1
  H  735  1  0.21792200  0.06497200  0.79853300  1
  H  742  1  0.30322500  0.01633200  0.71321300  1
  H  743  1  0.26462300  0.08158900  0.70469100  1
  H  744  1  0.19709600  0.00064800  0.76840800  1
  H  746  1  0.27167800  0.99918800  0.75854700  1
  H  747  1  0.29308100  0.99151600  0.74196500  1
  H  749  1  0.25228300  0.08654100  0.78624800  1
  H  750  1  0.26828800  0.07725200  0.76630300  1
  H  753  1  0.17179800  0.01738900  0.79622400  1
  H  754  1  0.29524600  0.06974500  0.68025500  1
  H  761  1  0.28144000  0.88553200  0.29856600  1
  H  768  1  0.19629300  0.93425700  0.21313900  1
  H  769  1  0.23496200  0.86902600  0.20468700  1
  H  770  1  0.30224900  0.94994900  0.26857800  1
  H  772  1  0.22766900  0.95138800  0.25856400  1
  H  773  1  0.20632200  0.95906000  0.24193300  1
  H  775  1  0.24702400  0.86405500  0.28628500  1
  H  776  1  0.23104000  0.87339000  0.26634200  1
  H  779  1  0.32754200  0.93315000  0.29636600  1
  H  780  1  0.20451300  0.88096300  0.18011100  1
  H  787  1  0.66266500  0.41719800  0.52965000  1
  H  794  1  0.71182300  0.51020900  0.45112300  1
  H  795  1  0.63957600  0.51536400  0.47173500  1
  H  796  1  0.71547600  0.46627500  0.55108100  1
  H  798  1  0.73014800  0.46720400  0.48882900  1
  H  799  1  0.73893400  0.48377600  0.46902700  1
  H  801  1  0.64647400  0.42288800  0.49628300  1
  H  802  1  0.65508300  0.44544000  0.48122200  1
  H  805  1  0.69553300  0.43621700  0.57454900  1
  H  806  1  0.65218400  0.52997200  0.43696800  1
  H  813  1  0.83683000  0.53328300  0.02960300  1
  H  820  1  0.78764700  0.44016400  0.95117700  1
  H  821  1  0.85995300  0.43512500  0.97166400  1
  H  822  1  0.78406600  0.48418400  0.05108200  1
  H  824  1  0.76938500  0.48323500  0.98884800  1
  H  825  1  0.76057200  0.46664100  0.96906900  1
  H  827  1  0.85295200  0.52762300  0.99620900  1
  H  828  1  0.84435700  0.50504400  0.98117100  1
  H  831  1  0.80401400  0.51426600  0.07453000  1
  H  832  1  0.84729500  0.42044600  0.93694900  1
  H  839  1  0.16312500  0.28561000  0.92457700  1
  H  846  1  0.22680900  0.16296500  0.94553000  1
  H  847  1  0.18185300  0.16932700  0.89368600  1
  H  848  1  0.23923600  0.28392900  0.91917500  1
  H  850  1  0.22855600  0.22623800  0.95628800  1
  H  851  1  0.23811900  0.19900300  0.96329100  1
  H  853  1  0.14190700  0.24829300  0.92845300  1
  H  854  1  0.15591200  0.22175300  0.92930900  1
  H  857  1  0.21573900  0.32324400  0.92632500  1
  H  858  1  0.21691200  0.12686500  0.92522700  1
  H  865  1  0.33629500  0.66478900  0.42459300  1
  H  872  1  0.27264700  0.78746300  0.44557800  1
  H  873  1  0.31769900  0.78109400  0.39379600  1
  H  874  1  0.26018200  0.66651600  0.41920600  1
  H  876  1  0.27085000  0.72419100  0.45632100  1
  H  877  1  0.26128100  0.75142700  0.46331300  1
  H  879  1  0.35751200  0.70208100  0.42859300  1
  H  880  1  0.34351400  0.72862200  0.42948100  1
  H  883  1  0.28363900  0.62718300  0.42630000  1
  H  884  1  0.28262700  0.82357000  0.42532700  1
  H  891  1  0.93947200  0.88824700  0.17322600  1
  H  898  1  0.06256700  0.95111400  0.19416500  1
  H  899  1  0.05607400  0.90508700  0.14299000  1
  H  900  1  0.94205000  0.96416400  0.16622900  1
  H  902  1  0.99920400  0.95380500  0.20449400  1
  H  903  1  0.02648000  0.96322900  0.21153100  1
  H  905  1  0.97650000  0.86679300  0.17812100  1
  H  906  1  0.00315000  0.88058600  0.17909000  1
  H  909  1  0.90243400  0.94137900  0.17318400  1
  H  910  1  0.09872700  0.94023500  0.17433400  1
  H  917  1  0.56000200  0.06216000  0.67321300  1
  H  924  1  0.43691800  0.99924000  0.69407700  1
  H  925  1  0.44340300  0.04532000  0.64293600  1
  H  926  1  0.55743900  0.98624600  0.66619600  1
  H  928  1  0.50027200  0.99664200  0.70445400  1
  H  929  1  0.47300000  0.98719600  0.71148100  1
  H  931  1  0.52296800  0.08360400  0.67810100  1
  H  932  1  0.49631700  0.06981200  0.67904300  1
  H  935  1  0.59705300  0.00905200  0.67318100  1
  H  936  1  0.40075500  0.01013900  0.67425800  1
  H  943  1  0.33616800  0.28816400  0.57687900  1
  H  950  1  0.27288100  0.16581100  0.55327100  1
  H  951  1  0.31946000  0.17041400  0.60422600  1
  H  952  1  0.26025100  0.28530600  0.58369400  1
  H  954  1  0.27048200  0.22946600  0.54436000  1
  H  955  1  0.26085100  0.20246900  0.53678500  1
  H  957  1  0.35767000  0.25133100  0.57123000  1
  H  958  1  0.34392700  0.22470100  0.56966600  1
  H  961  1  0.28301700  0.32520100  0.57761400  1
  H  962  1  0.28397500  0.12895400  0.57179400  1
  H  969  1  0.16321900  0.66226800  0.07683300  1
  H  976  1  0.22656100  0.78463000  0.05323600  1
  H  977  1  0.17978200  0.78005000  0.10406100  1
  H  978  1  0.23912900  0.66516800  0.08368400  1
  H  980  1  0.22898000  0.72097600  0.04433700  1
  H  981  1  0.23864700  0.74796900  0.03679000  1
  H  983  1  0.14172900  0.69907000  0.07102900  1
  H  984  1  0.15547300  0.72569900  0.06943700  1
  H  987  1  0.21638600  0.62525800  0.07762000  1
  H  988  1  0.21535300  0.82149700  0.07166400  1
  H  995  1  0.55954300  0.89020900  0.32708800  1
  H  1002  1  0.43681300  0.95292700  0.30441400  1
  H  1003  1  0.44201200  0.90654400  0.35546300  1
  H  1004  1  0.55643800  0.96607200  0.33434200  1
  H  1006  1  0.50040300  0.95554300  0.29515000  1
  H  1007  1  0.47331200  0.96504500  0.28769200  1
  H  1009  1  0.52273000  0.86858700  0.32163700  1
  H  1010  1  0.49603300  0.88224500  0.32034400  1
  H  1013  1  0.59625000  0.94357900  0.32759300  1
  H  1014  1  0.40017300  0.94187500  0.32335100  1
  H  1021  1  0.93995000  0.06013600  0.82708800  1
  H  1028  1  0.06265900  0.99733400  0.80452200  1
  H  1029  1  0.05743900  0.04374800  0.85555300  1
  H  1030  1  0.94298000  0.98426800  0.83431900  1
  H  1032  1  0.99908300  0.99481500  0.79518500  1
  H  1033  1  0.02617400  0.98529700  0.78774100  1
  H  1035  1  0.97678100  0.08172300  0.82163600  1
  H  1036  1  0.00347000  0.06804100  0.82037700  1
  H  1039  1  0.90319200  0.00681100  0.82753900  1
  H  1040  1  0.09929000  0.00837900  0.82349400  1
  H  1047  1  0.83613200  0.66528900  0.07728500  1
  H  1054  1  0.77225200  0.78751700  0.05495300  1
  H  1055  1  0.81761600  0.78216600  0.10662900  1
  H  1056  1  0.76007300  0.66719300  0.08322900  1
  H  1058  1  0.77052700  0.72403900  0.04505300  1
  H  1059  1  0.76086000  0.75112300  0.03773400  1
  H  1061  1  0.85733900  0.70250100  0.07265800  1
  H  1062  1  0.84333600  0.72902400  0.07147200  1
  H  1065  1  0.78317700  0.62782200  0.07665500  1
  H  1066  1  0.78243500  0.82404300  0.07453700  1
  H  1073  1  0.66332000  0.28520300  0.57733000  1
  H  1080  1  0.72720900  0.16296400  0.55493800  1
  H  1081  1  0.68171800  0.16828900  0.60653700  1
  H  1082  1  0.73937800  0.28325500  0.58324700  1
  H  1084  1  0.72895100  0.22644300  0.54506100  1
  H  1085  1  0.73864200  0.19936400  0.53775400  1
  H  1087  1  0.64211500  0.24802000  0.57256900  1
  H  1088  1  0.65611300  0.22149700  0.57134000  1
  H  1091  1  0.71630500  0.32264400  0.57672900  1
  H  1092  1  0.71694900  0.12642300  0.57445400  1
  H  1099  1  0.66388400  0.66581400  0.42105400  1
  H  1106  1  0.72819500  0.78772800  0.44320300  1
  H  1107  1  0.68247700  0.78278800  0.39171800  1
  H  1108  1  0.73986400  0.66750900  0.41439400  1
  H  1110  1  0.72982700  0.72419300  0.45283500  1
  H  1111  1  0.73959900  0.75121000  0.46022600  1
  H  1113  1  0.64283100  0.70307800  0.42585900  1
  H  1114  1  0.65692000  0.72956400  0.42692000  1
  H  1117  1  0.71672600  0.62820400  0.42130400  1
  H  1118  1  0.71798400  0.82437900  0.42380600  1
  H  1125  1  0.83564200  0.28463200  0.92115200  1
  H  1132  1  0.77128300  0.16270100  0.94320300  1
  H  1133  1  0.81721000  0.16761700  0.89184700  1
  H  1134  1  0.75967800  0.28288400  0.91436700  1
  H  1136  1  0.76970600  0.22623200  0.95285600  1
  H  1137  1  0.75989900  0.19922100  0.96023200  1
  H  1139  1  0.85669900  0.24739000  0.92605100  1
  H  1140  1  0.84262000  0.22089500  0.92709400  1
  H  1143  1  0.78276900  0.32220600  0.92128000  1
  H  1144  1  0.78159800  0.12603800  0.92388200  1
  H  1151  1  0.44069500  0.38854400  0.67403500  1
  H  1158  1  0.56301200  0.45266000  0.69529000  1
  H  1159  1  0.55705800  0.40789400  0.64330200  1
  H  1160  1  0.44208100  0.46469100  0.66896100  1
  H  1162  1  0.49970500  0.45406700  0.70589500  1
  H  1163  1  0.52687000  0.46373400  0.71298400  1
  H  1165  1  0.47809900  0.36744000  0.67769200  1
  H  1166  1  0.50459000  0.38153400  0.67854500  1
  H  1169  1  0.40292500  0.44125600  0.67591800  1
  H  1170  1  0.59926600  0.44293900  0.67512500  1
  H  1177  1  0.05878200  0.56184000  0.17400200  1
  H  1184  1  0.93644500  0.49770600  0.19521500  1
  H  1185  1  0.94244000  0.54256900  0.14329000  1
  H  1186  1  0.05739700  0.48569100  0.16894100  1
  H  1188  1  0.99974500  0.49626300  0.20584400  1
  H  1189  1  0.97257400  0.48658300  0.21290400  1
  H  1191  1  0.02138800  0.58292200  0.17776900  1
  H  1192  1  0.99490000  0.56882100  0.17864000  1
  H  1195  1  0.09655300  0.50912600  0.17588100  1
  H  1196  1  0.90020000  0.50749800  0.17506900  1
  H  1203  1  0.06129200  0.38903700  0.82778800  1
  H  1210  1  0.93910700  0.45297000  0.80510000  1
  H  1211  1  0.94420100  0.40758300  0.85677100  1
  H  1212  1  0.05933300  0.46511900  0.83339400  1
  H  1214  1  0.00258800  0.45450500  0.79527300  1
  H  1215  1  0.97554200  0.46423900  0.78792500  1
  H  1217  1  0.02410600  0.36776900  0.82324100  1
  H  1218  1  0.99756900  0.38173500  0.82197700  1
  H  1221  1  0.09883800  0.44193600  0.82708600  1
  H  1222  1  0.90252500  0.44289100  0.82454400  1
  H  1229  1  0.43803200  0.56158200  0.32770600  1
  H  1236  1  0.56026100  0.49770700  0.30496900  1
  H  1237  1  0.55529600  0.54335300  0.35648900  1
  H  1238  1  0.44019700  0.48552200  0.33348000  1
  H  1240  1  0.49676900  0.49623100  0.29520500  1
  H  1241  1  0.52379500  0.48645700  0.28784200  1
  H  1243  1  0.47515400  0.58292700  0.32304800  1
  H  1244  1  0.50172500  0.56902400  0.32178100  1
  H  1247  1  0.40063000  0.50856400  0.32719200  1
  H  1248  1  0.59688800  0.50791000  0.32424500  1
  C  1  1  0.16694800  0.38281300  0.88607200  1
  C  2  1  0.17089900  0.39921600  0.90229200  1
  C  3  1  0.17992600  0.39113100  0.92118500  1
  C  4  1  0.18481600  0.36634100  0.92399500  1
  C  5  1  0.18147300  0.34961500  0.90784200  1
  C  6  1  0.17210000  0.35763800  0.88868300  1
  C  9  1  0.15761500  0.39258500  0.86755500  1
  C  10  1  0.13244600  0.39717100  0.86439300  1
  C  11  1  0.12498000  0.40726300  0.84535600  1
  C  12  1  0.14224100  0.41154300  0.82976300  1
  C  13  1  0.16701700  0.40648700  0.83269700  1
  C  14  1  0.17450300  0.39751300  0.85188400  1
  C  27  1  0.33237600  0.56758000  0.38608600  1
  C  28  1  0.32839400  0.55118000  0.40230500  1
  C  29  1  0.31938400  0.55927300  0.42120300  1
  C  30  1  0.31455300  0.58407800  0.42401400  1
  C  31  1  0.31791100  0.60079900  0.40786000  1
  C  32  1  0.32725900  0.59276000  0.38869600  1
  C  35  1  0.34172900  0.55780200  0.36757800  1
  C  36  1  0.36691100  0.55328700  0.36441700  1
  C  37  1  0.37440400  0.54321000  0.34537800  1
  C  38  1  0.35715000  0.53886100  0.32979300  1
  C  39  1  0.33236200  0.54386100  0.33272600  1
  C  40  1  0.32485400  0.55282600  0.35191000  1
  C  53  1  0.84220100  0.89228100  0.13452500  1
  C  54  1  0.82595700  0.89727000  0.15066800  1
  C  55  1  0.83429500  0.90667000  0.16941800  1
  C  56  1  0.85924300  0.91092600  0.17193200  1
  C  57  1  0.87581300  0.90672500  0.15582300  1
  C  58  1  0.86750400  0.89689800  0.13693200  1
  C  61  1  0.83213200  0.88257200  0.11625900  1
  C  62  1  0.82636300  0.85751900  0.11383100  1
  C  63  1  0.81588000  0.84971800  0.09502200  1
  C  64  1  0.81230100  0.86653300  0.07895900  1
  C  65  1  0.81863500  0.89109300  0.08118600  1
  C  66  1  0.82794300  0.89900600  0.10011100  1
  C  79  1  0.65726900  0.05817700  0.63451300  1
  C  80  1  0.67351200  0.05319100  0.65065800  1
  C  81  1  0.66518700  0.04374400  0.66939200  1
  C  82  1  0.64023400  0.03951000  0.67191500  1
  C  83  1  0.62366200  0.04371300  0.65580700  1
  C  84  1  0.63196900  0.05354800  0.63691800  1
  C  87  1  0.66733400  0.06788500  0.61624600  1
  C  88  1  0.67308800  0.09293900  0.61381000  1
  C  89  1  0.68354400  0.10074100  0.59498900  1
  C  90  1  0.68711800  0.08392400  0.57892700  1
  C  91  1  0.68080700  0.05936000  0.58116700  1
  C  92  1  0.67152100  0.05144700  0.60010000  1
  C  105  1  0.33265200  0.38366200  0.61811700  1
  C  106  1  0.32773000  0.40066300  0.60253100  1
  C  107  1  0.31858600  0.39333000  0.58336000  1
  C  108  1  0.31347200  0.36858700  0.58032300  1
  C  109  1  0.31778200  0.35121000  0.59581300  1
  C  110  1  0.32796100  0.35852700  0.61486000  1
  C  113  1  0.34271400  0.39282500  0.63658600  1
  C  114  1  0.36798600  0.39757800  0.63904600  1
  C  115  1  0.37632200  0.40679100  0.65816200  1
  C  116  1  0.35980400  0.41028900  0.67444500  1
  C  117  1  0.33489800  0.40590700  0.67177700  1
  C  118  1  0.32650800  0.39708300  0.65289300  1
  C  131  1  0.16680900  0.56675100  0.11807900  1
  C  132  1  0.17174300  0.54976400  0.10248400  1
  C  133  1  0.18085800  0.55712000  0.08330900  1
  C  134  1  0.18593700  0.58187200  0.08028000  1
  C  135  1  0.18161400  0.59923300  0.09577900  1
  C  136  1  0.17146300  0.59189300  0.11483000  1
  C  139  1  0.15675300  0.55756900  0.13654300  1
  C  140  1  0.13148000  0.55281600  0.13900700  1
  C  141  1  0.12315100  0.54359000  0.15812200  1
  C  142  1  0.13967600  0.54007300  0.17439500  1
  C  143  1  0.16458400  0.54445500  0.17172600  1
  C  144  1  0.17296400  0.55329300  0.15284300  1
  C  157  1  0.65665600  0.89318300  0.36526200  1
  C  158  1  0.67279100  0.89839500  0.34910200  1
  C  159  1  0.66432600  0.90790500  0.33044700  1
  C  160  1  0.63955400  0.91334400  0.32838000  1
  C  161  1  0.62303500  0.90857800  0.34442600  1
  C  162  1  0.63136300  0.89796000  0.36301700  1
  C  165  1  0.66694600  0.88325700  0.38335800  1
  C  166  1  0.67329700  0.85828100  0.38530700  1
  C  167  1  0.68426200  0.85027000  0.40385500  1
  C  168  1  0.68815900  0.86688000  0.42001000  1
  C  169  1  0.68191300  0.89154500  0.41798800  1
  C  170  1  0.67127300  0.89946700  0.39965200  1
  C  183  1  0.84283700  0.05724100  0.86524900  1
  C  184  1  0.82669700  0.05206600  0.84908400  1
  C  185  1  0.83515100  0.04254900  0.83042600  1
  C  186  1  0.85991700  0.03710000  0.82835300  1
  C  187  1  0.87644000  0.04182300  0.84440500  1
  C  188  1  0.86812300  0.05243800  0.86300200  1
  C  191  1  0.83255800  0.06715600  0.88335400  1
  C  192  1  0.82623500  0.09213700  0.88532600  1
  C  193  1  0.81528400  0.10013700  0.90388300  1
  C  194  1  0.81136300  0.08350900  0.92002000  1
  C  195  1  0.81756700  0.05883600  0.91797000  1
  C  196  1  0.82820400  0.05092900  0.89963000  1
  C  209  1  0.83223700  0.56750600  0.11513700  1
  C  210  1  0.82741300  0.55136100  0.09888500  1
  C  211  1  0.81811600  0.55979100  0.08012500  1
  C  212  1  0.81382800  0.58475200  0.07770700  1
  C  213  1  0.81787700  0.60123300  0.09391100  1
  C  214  1  0.82759300  0.59281600  0.11281100  1
  C  217  1  0.84186400  0.55735500  0.13341200  1
  C  218  1  0.86691100  0.55159400  0.13590800  1
  C  219  1  0.87466000  0.54111900  0.15473700  1
  C  220  1  0.85779000  0.53756800  0.17076700  1
  C  221  1  0.83323000  0.54389500  0.16848800  1
  C  222  1  0.82538100  0.55317700  0.14953200  1
  C  235  1  0.66728000  0.38298900  0.61517900  1
  C  236  1  0.67214700  0.39913100  0.59893400  1
  C  237  1  0.68143800  0.39069700  0.58017300  1
  C  238  1  0.68567600  0.36572600  0.57775300  1
  C  239  1  0.68160300  0.34924600  0.59395400  1
  C  240  1  0.67189500  0.35767300  0.61285400  1
  C  243  1  0.65764800  0.39314600  0.63344900  1
  C  244  1  0.63259600  0.39889400  0.63594500  1
  C  245  1  0.62484100  0.40936100  0.65477500  1
  C  246  1  0.64171200  0.41294100  0.67080000  1
  C  247  1  0.66626800  0.40660100  0.66852700  1
  C  248  1  0.67412700  0.39732700  0.64957100  1
  C  261  1  0.15761000  0.05887300  0.86510400  1
  C  262  1  0.17408400  0.05454700  0.84899700  1
  C  263  1  0.16643400  0.04401600  0.83053600  1
  C  264  1  0.14177800  0.03790700  0.82817600  1
  C  265  1  0.12490500  0.04180100  0.84413100  1
  C  266  1  0.13263900  0.05264800  0.86281200  1
  C  269  1  0.16731400  0.06865300  0.88349600  1
  C  270  1  0.17290700  0.09372500  0.88606600  1
  C  271  1  0.18322200  0.10147600  0.90495900  1
  C  272  1  0.18676600  0.08459100  0.92097900  1
  C  273  1  0.18061300  0.06000400  0.91861800  1
  C  274  1  0.17152600  0.05215600  0.89960100  1
  C  287  1  0.34186300  0.89152200  0.36513100  1
  C  288  1  0.32536400  0.89584700  0.34904200  1
  C  289  1  0.33299300  0.90634200  0.33056200  1
  C  290  1  0.35764700  0.91244400  0.32817200  1
  C  291  1  0.37454700  0.90855100  0.34410800  1
  C  292  1  0.36683800  0.89771900  0.36280200  1
  C  295  1  0.33218900  0.88175100  0.38353700  1
  C  296  1  0.32659700  0.85667900  0.38611700  1
  C  297  1  0.31631000  0.84893700  0.40502300  1
  C  298  1  0.31278500  0.86582800  0.42104200  1
  C  299  1  0.31892800  0.89041500  0.41866700  1
  C  300  1  0.32799500  0.89825400  0.39964000  1
  C  313  1  0.66567100  0.56807500  0.38394900  1
  C  314  1  0.67077100  0.55198000  0.40016600  1
  C  315  1  0.68041000  0.56044800  0.41878100  1
  C  316  1  0.68606600  0.58519000  0.42074000  1
  C  317  1  0.68137300  0.60168200  0.40465300  1
  C  318  1  0.67063600  0.59334200  0.38611400  1
  C  321  1  0.65586700  0.55778000  0.36579700  1
  C  322  1  0.63086500  0.55162900  0.36363000  1
  C  323  1  0.62293900  0.54089400  0.34495600  1
  C  324  1  0.63969600  0.53701700  0.32889500  1
  C  325  1  0.66439500  0.54303900  0.33112900  1
  C  326  1  0.67220300  0.55346100  0.34958800  1
  C  339  1  0.83381200  0.38234900  0.88395500  1
  C  340  1  0.82868300  0.39844800  0.90016200  1
  C  341  1  0.81905400  0.38997800  0.91878000  1
  C  342  1  0.81342000  0.36523300  0.92074500  1
  C  343  1  0.81813300  0.34874100  0.90466400  1
  C  344  1  0.82886400  0.35708000  0.88612200  1
  C  347  1  0.84363500  0.39265000  0.86581200  1
  C  348  1  0.86862500  0.39887700  0.86369300  1
  C  349  1  0.87655800  0.40967000  0.84504600  1
  C  350  1  0.85983000  0.41353400  0.82896300  1
  C  351  1  0.83515300  0.40738100  0.83113400  1
  C  352  1  0.82733000  0.39692900  0.84957500  1
  C  365  1  0.34312000  0.06051500  0.63253000  1
  C  366  1  0.32652400  0.05631500  0.64856800  1
  C  367  1  0.33421700  0.04696300  0.66754300  1
  C  368  1  0.35874900  0.04061100  0.66992900  1
  C  369  1  0.37571600  0.04414700  0.65397500  1
  C  370  1  0.36812800  0.05467000  0.63512100  1
  C  373  1  0.33346400  0.07023000  0.61409500  1
  C  374  1  0.32746600  0.09524000  0.61169200  1
  C  375  1  0.31674700  0.10297600  0.59295300  1
  C  376  1  0.31275000  0.08603600  0.57705400  1
  C  377  1  0.31867800  0.06134700  0.57952000  1
  C  378  1  0.32906700  0.05371200  0.59803900  1
  C  391  1  0.15634600  0.88993100  0.13253000  1
  C  392  1  0.17295700  0.89413500  0.14855500  1
  C  393  1  0.16528200  0.90347200  0.16754000  1
  C  394  1  0.14074400  0.90978600  0.16995300  1
  C  395  1  0.12376100  0.90625500  0.15401000  1
  C  396  1  0.13133500  0.89575000  0.13514500  1
  C  399  1  0.16598100  0.88022600  0.11408300  1
  C  400  1  0.17196400  0.85521500  0.11166000  1
  C  401  1  0.18265300  0.84748800  0.09290800  1
  C  402  1  0.18665500  0.86444200  0.07702100  1
  C  403  1  0.18076600  0.88913600  0.07951300  1
  C  404  1  0.17039000  0.89676000  0.09804100  1
  C  417  1  0.28768300  0.42026900  0.70706900  1
  C  418  1  0.28247500  0.43972000  0.72032900  1
  C  420  1  0.25525500  0.41524400  0.74004100  1
  C  421  1  0.25919600  0.39501500  0.72694700  1
  C  422  1  0.27561900  0.39803400  0.71053300  1
  C  424  1  0.24106800  0.41405900  0.75799900  1
  C  425  1  0.22056600  0.42889400  0.76217400  1
  C  426  1  0.20816800  0.42501100  0.78088100  1
  C  427  1  0.21567900  0.40708900  0.79504100  1
  C  428  1  0.23649300  0.39346500  0.78993200  1
  C  439  1  0.20347900  0.40219300  0.81318100  1
  C  440  1  0.30328500  0.42305900  0.69073500  1
  C  443  1  0.21184400  0.53014900  0.20698900  1
  C  444  1  0.21709400  0.51066300  0.22020000  1
  C  446  1  0.24420500  0.53515200  0.24000800  1
  C  447  1  0.24022300  0.55541800  0.22696300  1
  C  448  1  0.22381900  0.55241500  0.21053400  1
  C  450  1  0.25836900  0.53631500  0.25798300  1
  C  451  1  0.27890100  0.52151400  0.26214200  1
  C  452  1  0.29128100  0.52538400  0.28086000  1
  C  453  1  0.28372800  0.54326700  0.29504200  1
  C  454  1  0.26288000  0.55684900  0.28995000  1
  C  465  1  0.29593200  0.54818000  0.31317900  1
  C  466  1  0.19628000  0.52737400  0.19062900  1
  C  469  1  0.80624600  0.02163200  0.96272200  1
  C  470  1  0.78914300  0.01735600  0.97837300  1
  C  472  1  0.81177500  0.98367800  0.99133400  1
  C  473  1  0.82968000  0.98663000  0.97589800  1
  C  474  1  0.82645900  0.00580500  0.96179300  1
  C  476  1  0.81410300  0.96729200  0.00779800  1
  C  477  1  0.79692000  0.94908000  0.01295800  1
  C  478  1  0.80179600  0.93463400  0.03040500  1
  C  479  1  0.82290200  0.93801000  0.04242600  1
  C  480  1  0.83893000  0.95664400  0.03637400  1
  C  491  1  0.82834000  0.92413000  0.05957200  1
  C  492  1  0.80344300  0.04115500  0.94945900  1
  C  495  1  0.69315600  0.92869300  0.46278700  1
  C  496  1  0.71025600  0.93297500  0.47844100  1
  C  498  1  0.68759300  0.96662500  0.49141200  1
  C  499  1  0.66970300  0.96368200  0.47596300  1
  C  500  1  0.67293600  0.94450900  0.46185600  1
  C  502  1  0.68527000  0.98305900  0.50784500  1
  C  503  1  0.70247300  0.00126100  0.51298700  1
  C  504  1  0.69760800  0.01574300  0.53041600  1
  C  505  1  0.67648800  0.01242000  0.54243000  1
  C  506  1  0.66043800  0.99379800  0.53639400  1
  C  517  1  0.67106400  0.02633200  0.55956100  1
  C  518  1  0.69598900  0.90919300  0.44950600  1
  C  521  1  0.70193400  0.53188700  0.28651000  1
  C  522  1  0.70635400  0.51476900  0.27089600  1
  C  524  1  0.74012000  0.53741200  0.25808000  1
  C  525  1  0.73703300  0.55532000  0.27349900  1
  C  526  1  0.71774500  0.55210500  0.28750500  1
  C  528  1  0.75668400  0.53970900  0.24172300  1
  C  529  1  0.77485600  0.52245100  0.23662800  1
  C  530  1  0.78942200  0.52725800  0.21923400  1
  C  531  1  0.78619800  0.54836200  0.20718200  1
  C  532  1  0.76759700  0.56446600  0.21316700  1
  C  543  1  0.80017000  0.55371800  0.19006000  1
  C  544  1  0.68229800  0.52908500  0.29966500  1
  C  547  1  0.79765800  0.41849600  0.78648000  1
  C  548  1  0.79321400  0.43563000  0.77088400  1
  C  550  1  0.75944600  0.41298300  0.75807700  1
  C  551  1  0.76256000  0.39505900  0.77348000  1
  C  552  1  0.78186200  0.39826500  0.78747100  1
  C  554  1  0.74285800  0.41069800  0.74173600  1
  C  555  1  0.72469200  0.42796800  0.73665800  1
  C  556  1  0.71009600  0.42317200  0.71927800  1
  C  557  1  0.71328000  0.40206100  0.70722800  1
  C  558  1  0.73187400  0.38594000  0.71319600  1
  C  569  1  0.69927800  0.39671100  0.69012200  1
  C  570  1  0.81729700  0.42130200  0.79963300  1
  C  573  1  0.19266800  0.92748000  0.03555800  1
  C  574  1  0.20983300  0.93200800  0.02000500  1
  C  576  1  0.18746000  0.96613500  0.00756900  1
  C  577  1  0.16953000  0.96297400  0.02295400  1
  C  578  1  0.17259200  0.94345900  0.03674800  1
  C  580  1  0.18516600  0.98279500  0.99129500  1
  C  581  1  0.20237500  0.00105600  0.98632600  1
  C  582  1  0.19751300  0.01577600  0.96903600  1
  C  583  1  0.17640200  0.01260700  0.95698200  1
  C  584  1  0.16035200  0.99390300  0.96284000  1
  C  595  1  0.17099500  0.02670300  0.93995500  1
  C  596  1  0.19527900  0.90759700  0.04847300  1
  C  599  1  0.30683000  0.02304700  0.53552500  1
  C  600  1  0.28970300  0.01855300  0.51993400  1
  C  602  1  0.31207400  0.98441600  0.50752100  1
  C  603  1  0.32995300  0.98752200  0.52295600  1
  C  604  1  0.32687800  0.00703700  0.53675100  1
  C  606  1  0.31437500  0.96771300  0.49127800  1
  C  607  1  0.29712500  0.94950300  0.48627900  1
  C  608  1  0.30199000  0.93475700  0.46900600  1
  C  609  1  0.32315300  0.93784500  0.45700100  1
  C  610  1  0.33924900  0.95649400  0.46288800  1
  C  621  1  0.32855700  0.92373000  0.43998300  1
  C  622  1  0.30419500  0.04291400  0.54845700  1
  C  625  1  0.78572800  0.91517500  0.20580100  1
  C  626  1  0.76499700  0.92966800  0.20907900  1
  C  628  1  0.75833100  0.91234500  0.24212700  1
  C  629  1  0.77913900  0.89731300  0.24005700  1
  C  630  1  0.79249800  0.89906400  0.22165700  1
  C  632  1  0.74191700  0.91060300  0.25860900  1
  C  633  1  0.73586900  0.92999300  0.27199600  1
  C  634  1  0.71912700  0.92507200  0.28790100  1
  C  635  1  0.70871500  0.90181800  0.29047700  1
  C  636  1  0.71538200  0.88360600  0.27642700  1
  C  647  1  0.69372600  0.89609100  0.30674400  1
  C  648  1  0.79775800  0.91573500  0.18717500  1
  C  651  1  0.71372700  0.03528100  0.70579900  1
  C  652  1  0.73441500  0.02073700  0.70910700  1
  C  654  1  0.74110600  0.03811500  0.74213400  1
  C  655  1  0.72033600  0.05319400  0.74003200  1
  C  656  1  0.70698300  0.05143600  0.72162900  1
  C  658  1  0.75752000  0.03985600  0.75861500  1
  C  659  1  0.76355000  0.02047400  0.77201500  1
  C  660  1  0.78031000  0.02538600  0.78790700  1
  C  661  1  0.79074600  0.04863200  0.79047000  1
  C  662  1  0.78408900  0.06684000  0.77641400  1
  C  673  1  0.80571900  0.05436200  0.80674700  1
  C  674  1  0.70170600  0.03470400  0.68717000  1
  C  677  1  0.30422100  0.51324400  0.45743700  1
  C  678  1  0.28496700  0.50845700  0.47102400  1
  C  680  1  0.30929100  0.48080800  0.49042000  1
  C  681  1  0.32931900  0.48430000  0.47703200  1
  C  682  1  0.32627100  0.50070500  0.46061000  1
  C  684  1  0.31057400  0.46680400  0.50846500  1
  C  685  1  0.29544900  0.44662100  0.51298300  1
  C  686  1  0.29929200  0.43450500  0.53182100  1
  C  687  1  0.31744900  0.44199600  0.54577200  1
  C  688  1  0.33140200  0.46245700  0.54031200  1
  C  699  1  0.32218200  0.43011500  0.56407700  1
  C  700  1  0.30137200  0.52914100  0.44127000  1
  C  703  1  0.19517200  0.43714300  0.95741400  1
  C  704  1  0.21440100  0.44188700  0.97103800  1
  C  706  1  0.19009900  0.46962000  0.99036700  1
  C  707  1  0.17010200  0.46618400  0.97693600  1
  C  708  1  0.17315000  0.44975100  0.96053300  1
  C  710  1  0.18879800  0.48365800  0.00839500  1
  C  711  1  0.20396900  0.50379700  0.01293300  1
  C  712  1  0.20012400  0.51592600  0.03176500  1
  C  713  1  0.18191300  0.50849400  0.04568800  1
  C  714  1  0.16790400  0.48807700  0.04020200  1
  C  725  1  0.17718100  0.52037800  0.06399000  1
  C  726  1  0.19801700  0.42119800  0.94127900  1
  C  729  1  0.20416600  0.03224400  0.78618400  1
  C  730  1  0.20813400  0.01538700  0.77028300  1
  C  732  1  0.24185500  0.03796600  0.75735000  1
  C  733  1  0.23928000  0.05556800  0.77307800  1
  C  734  1  0.22023300  0.05225700  0.78728900  1
  C  736  1  0.25800200  0.04053400  0.74075200  1
  C  737  1  0.27596000  0.02331000  0.73508300  1
  C  738  1  0.29010400  0.02844000  0.71751300  1
  C  739  1  0.28665300  0.04981800  0.70585700  1
  C  740  1  0.26826000  0.06585400  0.71238500  1
  C  751  1  0.30020800  0.05546800  0.68858700  1
  C  752  1  0.18466200  0.02943200  0.79947400  1
  C  755  1  0.29518300  0.91830300  0.28629100  1
  C  756  1  0.29121500  0.93520300  0.27042500  1
  C  758  1  0.25752700  0.91263000  0.25742000  1
  C  759  1  0.26009100  0.89499600  0.27312200  1
  C  760  1  0.27912000  0.89828500  0.28735500  1
  C  762  1  0.24143400  0.91006400  0.24078100  1
  C  763  1  0.22348700  0.92728200  0.23507600  1
  C  764  1  0.20940700  0.92215500  0.21746800  1
  C  765  1  0.21290800  0.90078300  0.20581500  1
  C  766  1  0.23129200  0.88475700  0.21237800  1
  C  777  1  0.19941700  0.89513600  0.18851000  1
  C  778  1  0.31469100  0.92107900  0.29958500  1
  C  781  1  0.68956900  0.43907800  0.54349100  1
  C  782  1  0.70379900  0.45998400  0.54015300  1
  C  784  1  0.68634700  0.46637200  0.50710300  1
  C  785  1  0.67157900  0.44538300  0.50923700  1
  C  786  1  0.67353200  0.43207700  0.52765400  1
  C  788  1  0.68433600  0.48278100  0.49062100  1
  C  789  1  0.70362600  0.48918000  0.47724300  1
  C  790  1  0.69844000  0.50586600  0.46135000  1
  C  791  1  0.67501200  0.51587400  0.45874700  1
  C  792  1  0.65691100  0.50888100  0.47278900  1
  C  803  1  0.66903700  0.53075700  0.44246100  1
  C  804  1  0.69030000  0.42712300  0.56216200  1
  C  807  1  0.80997100  0.51137500  0.04347500  1
  C  808  1  0.79575400  0.49045600  0.04015300  1
  C  810  1  0.81320000  0.48405300  0.00710600  1
  C  811  1  0.82793400  0.50507300  0.00921100  1
  C  812  1  0.82598300  0.51838900  0.02762300  1
  C  814  1  0.81519300  0.46766200  0.99061100  1
  C  815  1  0.79588500  0.46123700  0.97726200  1
  C  816  1  0.80105300  0.44454700  0.96136800  1
  C  817  1  0.82448700  0.43456400  0.95873400  1
  C  818  1  0.84261300  0.44159300  0.97274000  1
  C  829  1  0.83044500  0.41966800  0.94245300  1
  C  830  1  0.80922700  0.52335600  0.06213400  1
  C  833  1  0.20109600  0.28923300  0.92151500  1
  C  834  1  0.22274900  0.27564500  0.92076300  1
  C  836  1  0.20116000  0.23810800  0.92360400  1
  C  837  1  0.17861600  0.25059400  0.92473800  1
  C  838  1  0.17912200  0.27622900  0.92360400  1
  C  840  1  0.20330100  0.21254700  0.92333100  1
  C  841  1  0.21709900  0.19879800  0.93758700  1
  C  842  1  0.21735700  0.17325300  0.93519400  1
  C  843  1  0.20436800  0.16150700  0.91937800  1
  C  844  1  0.19148400  0.17645900  0.90560400  1
  C  855  1  0.20418500  0.13633500  0.91797500  1
  C  856  1  0.20166600  0.31433500  0.92046200  1
  C  859  1  0.29832000  0.66119000  0.42153600  1
  C  860  1  0.27667600  0.67479000  0.42079500  1
  C  862  1  0.29828400  0.71231300  0.42365800  1
  C  863  1  0.32082200  0.69981200  0.42478600  1
  C  864  1  0.32030300  0.67418100  0.42362300  1
  C  866  1  0.29615700  0.73787600  0.42339200  1
  C  867  1  0.28234300  0.75162800  0.43763300  1
  C  868  1  0.28209600  0.77717300  0.43524300  1
  C  869  1  0.29512800  0.78891900  0.41945100  1
  C  870  1  0.30802800  0.77396500  0.40569200  1
  C  881  1  0.29533700  0.81409400  0.41806100  1
  C  882  1  0.29773600  0.63608800  0.42047000  1
  C  885  1  0.93631500  0.92615100  0.16926300  1
  C  886  1  0.95012900  0.94764800  0.16829600  1
  C  888  1  0.98734900  0.92578500  0.17219100  1
  C  889  1  0.97462500  0.90340100  0.17360600  1
  C  890  1  0.94903300  0.90411700  0.17205200  1
  C  892  1  0.01291600  0.92764200  0.17207300  1
  C  893  1  0.02669200  0.94161200  0.18618300  1
  C  894  1  0.05225400  0.94155000  0.18392100  1
  C  895  1  0.06396600  0.92809100  0.16836400  1
  C  896  1  0.04897400  0.91505900  0.15472000  1
  C  907  1  0.08914000  0.92761300  0.16706500  1
  C  908  1  0.91125400  0.92695400  0.16785100  1
  C  911  1  0.56316600  0.02425900  0.66923800  1
  C  912  1  0.54935500  0.00276100  0.66824900  1
  C  914  1  0.51213000  0.02461800  0.67212600  1
  C  915  1  0.52485000  0.04700100  0.67356900  1
  C  916  1  0.55044300  0.04628800  0.67202600  1
  C  918  1  0.48656300  0.02276000  0.67201300  1
  C  919  1  0.47278900  0.00877700  0.68611500  1
  C  920  1  0.44722900  0.00883000  0.68384800  1
  C  921  1  0.43551500  0.02229700  0.66829800  1
  C  922  1  0.45050400  0.03534600  0.65466500  1
  C  933  1  0.41034000  0.02276700  0.66699200  1
  C  934  1  0.58822600  0.02346000  0.66782200  1
  C  937  1  0.29825600  0.29118700  0.58082400  1
  C  938  1  0.27678100  0.27731100  0.58148800  1
  C  940  1  0.29868600  0.24021000  0.57684500  1
  C  941  1  0.32105400  0.25301200  0.57573700  1
  C  942  1  0.32030300  0.27855900  0.57782300  1
  C  944  1  0.29683300  0.21462800  0.57631900  1
  C  945  1  0.28268200  0.20135900  0.56198700  1
  C  946  1  0.28264200  0.17573000  0.56365800  1
  C  947  1  0.29614800  0.16342800  0.57886000  1
  C  948  1  0.30941900  0.17792700  0.59272400  1
  C  959  1  0.29635200  0.13819600  0.57965000  1
  C  960  1  0.29743000  0.31621600  0.58276600  1
  C  963  1  0.20112900  0.65926500  0.08079800  1
  C  964  1  0.22259700  0.67315200  0.08146100  1
  C  966  1  0.20067900  0.71024000  0.07677100  1
  C  967  1  0.17832000  0.69742300  0.07565600  1
  C  968  1  0.17907800  0.67188400  0.07778100  1
  C  970  1  0.20252500  0.73582400  0.07623400  1
  C  971  1  0.21672900  0.74908700  0.06193800  1
  C  972  1  0.21677300  0.77471600  0.06360600  1
  C  973  1  0.20320500  0.78702700  0.07876700  1
  C  974  1  0.18987600  0.77253400  0.09259300  1
  C  985  1  0.20300000  0.81226000  0.07954800  1
  C  986  1  0.20196900  0.63424100  0.08276500  1
  C  989  1  0.56243700  0.92810400  0.33126300  1
  C  990  1  0.54848700  0.94951800  0.33214700  1
  C  992  1  0.51146100  0.92748800  0.32762200  1
  C  993  1  0.52432400  0.90517600  0.32632100  1
  C  994  1  0.54988000  0.90602000  0.32823400  1
  C  996  1  0.48588900  0.92925400  0.32725200  1
  C  997  1  0.47246800  0.94330500  0.31295500  1
  C  998  1  0.44685900  0.94326500  0.31477900  1
  C  999  1  0.43474800  0.92975400  0.33008600  1
  C  1000  1  0.44939700  0.91657700  0.34389800  1
  C  1011  1  0.40953900  0.92941000  0.33100500  1
  C  1012  1  0.58748800  0.92906000  0.33280900  1
  C  1015  1  0.93702000  0.02224100  0.83124700  1
  C  1016  1  0.95095200  0.00081700  0.83214900  1
  C  1018  1  0.98800400  0.02282000  0.82768100  1
  C  1019  1  0.97515800  0.04514100  0.82635500  1
  C  1020  1  0.94959900  0.04431700  0.82823900  1
  C  1022  1  0.01357400  0.02104100  0.82732500  1
  C  1023  1  0.02700000  0.00698400  0.81303600  1
  C  1024  1  0.05261000  0.00701400  0.81487500  1
  C  1025  1  0.06471200  0.02053200  0.83018000  1
  C  1026  1  0.05005800  0.03371400  0.84398500  1
  C  1037  1  0.08991900  0.02087400  0.83111100  1
  C  1038  1  0.91196900  0.02131000  0.83277800  1
  C  1041  1  0.79819000  0.66177900  0.08072300  1
  C  1042  1  0.77656000  0.67541300  0.08141300  1
  C  1044  1  0.79815000  0.71283800  0.07777300  1
  C  1045  1  0.82067100  0.70030800  0.07668700  1
  C  1046  1  0.82015400  0.67470600  0.07825000  1
  C  1048  1  0.79602100  0.73839600  0.07766700  1
  C  1049  1  0.78208900  0.75185200  0.06330900  1
  C  1050  1  0.78180600  0.77743800  0.06536600  1
  C  1051  1  0.79488600  0.78949500  0.08096400  1
  C  1052  1  0.80790500  0.77481300  0.09485500  1
  C  1063  1  0.79503600  0.81469500  0.08205000  1
  C  1064  1  0.79754600  0.63669300  0.08204200  1
  C  1067  1  0.70126400  0.28869300  0.58075700  1
  C  1068  1  0.72288700  0.27504600  0.58142800  1
  C  1070  1  0.70128000  0.23763400  0.57775900  1
  C  1071  1  0.67876600  0.25017800  0.57668500  1
  C  1072  1  0.67929100  0.27577700  0.57828700  1
  C  1074  1  0.70339800  0.21207500  0.57763800  1
  C  1075  1  0.71736000  0.19862300  0.56329700  1
  C  1076  1  0.71764500  0.17303700  0.56535100  1
  C  1077  1  0.70452400  0.16097100  0.58091800  1
  C  1078  1  0.69146800  0.17564800  0.59479100  1
  C  1089  1  0.70436400  0.13577000  0.58198800  1
  C  1090  1  0.70192500  0.31377700  0.58210100  1
  C  1093  1  0.70176900  0.66219600  0.41724900  1
  C  1094  1  0.72342200  0.67577500  0.41634800  1
  C  1096  1  0.70198200  0.71325300  0.42021500  1
  C  1097  1  0.67944000  0.70078600  0.42149600  1
  C  1098  1  0.67987000  0.67518500  0.41992000  1
  C  1100  1  0.70418800  0.73879700  0.42038000  1
  C  1101  1  0.71823400  0.75213800  0.43473700  1
  C  1102  1  0.71857500  0.77773100  0.43277700  1
  C  1103  1  0.70542000  0.78990600  0.41728900  1
  C  1104  1  0.69226200  0.77533700  0.40340500  1
  C  1115  1  0.70529100  0.81510900  0.41633400  1
  C  1116  1  0.70233000  0.63710200  0.41600500  1
  C  1119  1  0.79776300  0.28822300  0.91727800  1
  C  1120  1  0.77612300  0.27462800  0.91633900  1
  C  1122  1  0.79757900  0.23716800  0.92025300  1
  C  1123  1  0.82010700  0.24964900  0.92158000  1
  C  1124  1  0.81966500  0.27524800  0.91999100  1
  C  1126  1  0.79538800  0.21162000  0.92043800  1
  C  1127  1  0.78129700  0.19828700  0.93476500  1
  C  1128  1  0.78096100  0.17269100  0.93281000  1
  C  1129  1  0.79417100  0.16050800  0.91736000  1
  C  1130  1  0.80738300  0.17507100  0.90350900  1
  C  1141  1  0.79428600  0.13530400  0.91640200  1
  C  1142  1  0.79719200  0.31331700  0.91602700  1
  C  1145  1  0.43690500  0.42651900  0.67116300  1
  C  1146  1  0.45042400  0.44821900  0.67044000  1
  C  1148  1  0.48805800  0.42676200  0.67309900  1
  C  1149  1  0.47565300  0.40416600  0.67415300  1
  C  1150  1  0.45000900  0.40458100  0.67309600  1
  C  1152  1  0.51361700  0.42902800  0.67288100  1
  C  1153  1  0.52725300  0.44282800  0.68721300  1
  C  1154  1  0.55280800  0.44321100  0.68489400  1
  C  1155  1  0.56468200  0.43033800  0.66907700  1
  C  1156  1  0.54983600  0.41745200  0.65522300  1
  C  1167  1  0.58986900  0.43023400  0.66777800  1
  C  1168  1  0.41178400  0.42704500  0.67023500  1
  C  1171  1  0.06257100  0.52386300  0.17113600  1
  C  1172  1  0.04905400  0.50216300  0.17041900  1
  C  1174  1  0.01142000  0.52362000  0.17308000  1
  C  1175  1  0.02382500  0.54621600  0.17413800  1
  C  1176  1  0.04946700  0.54580300  0.17306400  1
  C  1178  1  0.98586000  0.52135500  0.17285000  1
  C  1179  1  0.97221100  0.50753200  0.18715800  1
  C  1180  1  0.94665800  0.50715200  0.18482300  1
  C  1181  1  0.93479700  0.52006800  0.16902500  1
  C  1182  1  0.94965300  0.53297500  0.15519300  1
  C  1193  1  0.90961000  0.52019500  0.16772400  1
  C  1194  1  0.08769200  0.52333900  0.17020000  1
  C  1197  1  0.06478700  0.42700300  0.83101000  1
  C  1198  1  0.05112900  0.44862000  0.83161400  1
  C  1200  1  0.01370000  0.42698100  0.82806300  1
  C  1201  1  0.02625900  0.40446700  0.82708600  1
  C  1202  1  0.05186400  0.40501500  0.82865200  1
  C  1204  1  0.98812700  0.42911000  0.82791300  1
  C  1205  1  0.97472300  0.44305100  0.81352300  1
  C  1206  1  0.94913300  0.44340400  0.81554300  1
  C  1207  1  0.93699500  0.43036100  0.83111900  1
  C  1208  1  0.95161400  0.41728400  0.84502000  1
  C  1219  1  0.91178200  0.43030500  0.83215200  1
  C  1220  1  0.08987000  0.42764700  0.83249500  1
  C  1223  1  0.43464100  0.52361800  0.33102800  1
  C  1224  1  0.44835700  0.50204000  0.33166900  1
  C  1226  1  0.48572200  0.52376000  0.32800400  1
  C  1227  1  0.47310300  0.54623800  0.32698800  1
  C  1228  1  0.44750300  0.54563200  0.32859700  1
  C  1230  1  0.51129900  0.52168700  0.32778300  1
  C  1231  1  0.52466900  0.50769200  0.31340800  1
  C  1232  1  0.55026400  0.50734400  0.31538600  1
  C  1233  1  0.56244400  0.52045100  0.33090300  1
  C  1234  1  0.54785600  0.53360300  0.34477700  1
  C  1245  1  0.58766000  0.52046100  0.33191800  1
  C  1246  1  0.40956000  0.52291300  0.33253400  1
  N  17  1  0.16802100  0.34146100  0.87325200  1
  N  18  1  0.11580200  0.39204800  0.87924300  1
  N  23  1  0.18190200  0.40993600  0.81689400  1
  N  24  1  0.10147700  0.41064300  0.84171100  1
  N  25  1  0.18484900  0.32604100  0.91109300  1
  N  26  1  0.18084200  0.40643900  0.93668300  1
  N  43  1  0.33135000  0.60893300  0.37326400  1
  N  44  1  0.38354300  0.55845900  0.37926200  1
  N  49  1  0.31749000  0.54040100  0.31691600  1
  N  50  1  0.39791500  0.53991300  0.34172100  1
  N  51  1  0.31456000  0.62437400  0.41111800  1
  N  52  1  0.31848800  0.54398500  0.43671300  1
  N  69  1  0.88353900  0.89186900  0.12159700  1
  N  70  1  0.83076600  0.84130600  0.12917200  1
  N  75  1  0.81552000  0.90584400  0.06529600  1
  N  76  1  0.81140700  0.82623200  0.09212500  1
  N  77  1  0.89944200  0.90981300  0.15899600  1
  N  78  1  0.81998600  0.90896100  0.18559500  1
  N  95  1  0.61593200  0.05857500  0.62158500  1
  N  96  1  0.66869300  0.10915500  0.62915000  1
  N  101  1  0.68391500  0.04459700  0.56528300  1
  N  102  1  0.68801900  0.12422700  0.59208900  1
  N  103  1  0.60003400  0.04060700  0.65897400  1
  N  104  1  0.67947600  0.04146900  0.68558200  1
  N  121  1  0.33307800  0.34176800  0.62961500  1
  N  122  1  0.38396200  0.39330200  0.62350200  1
  N  127  1  0.31981700  0.40711400  0.68744500  1
  N  128  1  0.39995500  0.41004800  0.66120800  1
  N  129  1  0.31451700  0.32774000  0.59195000  1
  N  130  1  0.31518800  0.40824100  0.56757900  1
  N  147  1  0.16633500  0.60864000  0.12959200  1
  N  148  1  0.11550000  0.55710500  0.12346900  1
  N  153  1  0.17964900  0.54323300  0.18740500  1
  N  154  1  0.09951800  0.54033700  0.16117200  1
  N  155  1  0.18486700  0.62270700  0.09192400  1
  N  156  1  0.18424500  0.54222400  0.06751700  1
  N  173  1  0.61539700  0.89246000  0.37828100  1
  N  174  1  0.66884100  0.84228700  0.36981200  1
  N  179  1  0.68360200  0.90770700  0.43291900  1
  N  180  1  0.68877900  0.82674700  0.40650700  1
  N  181  1  0.59939600  0.91178400  0.34137600  1
  N  182  1  0.67910600  0.91160600  0.31473500  1
  N  199  1  0.88409400  0.05790000  0.87827200  1
  N  200  1  0.83070800  0.10814600  0.86984600  1
  N  205  1  0.81584800  0.04265400  0.93288300  1
  N  206  1  0.81077600  0.12365800  0.90655400  1
  N  207  1  0.90007500  0.03858500  0.84136000  1
  N  208  1  0.82036700  0.03885900  0.81471400  1
  N  225  1  0.83249400  0.60877000  0.12823700  1
  N  226  1  0.88318600  0.55600600  0.12061400  1
  N  231  1  0.81842500  0.54082900  0.18436400  1
  N  232  1  0.89814800  0.53668100  0.15772000  1
  N  233  1  0.81472900  0.62488700  0.09084500  1
  N  234  1  0.81597500  0.54558200  0.06385800  1
  N  251  1  0.66697000  0.34172300  0.62827600  1
  N  252  1  0.61632700  0.39447100  0.62064900  1
  N  257  1  0.68107400  0.40965900  0.68440300  1
  N  258  1  0.60134700  0.41376700  0.65776200  1
  N  259  1  0.68473300  0.32559300  0.59088300  1
  N  260  1  0.68356200  0.40489500  0.56389800  1
  N  277  1  0.11638500  0.05712300  0.87811300  1
  N  278  1  0.16847000  0.11000400  0.87078500  1
  N  283  1  0.18374800  0.04512600  0.93443000  1
  N  284  1  0.18762300  0.12495900  0.90798500  1
  N  285  1  0.10143700  0.03719400  0.84126400  1
  N  286  1  0.18281600  0.04228100  0.81578400  1
  N  303  1  0.38311300  0.89323800  0.37808500  1
  N  304  1  0.33100900  0.84039600  0.37083600  1
  N  309  1  0.31579900  0.90530600  0.43447200  1
  N  310  1  0.31188900  0.82546000  0.40805400  1
  N  311  1  0.39801300  0.91314800  0.34121500  1
  N  312  1  0.31658200  0.90813700  0.31583900  1
  N  329  1  0.66524000  0.60927900  0.37079800  1
  N  330  1  0.61475700  0.55608700  0.37904100  1
  N  335  1  0.68070000  0.54138500  0.31629300  1
  N  336  1  0.59939100  0.53659100  0.34211900  1
  N  337  1  0.68491100  0.62530600  0.40753300  1
  N  338  1  0.68426900  0.54569300  0.43450000  1
  N  355  1  0.83428000  0.34113900  0.87081700  1
  N  356  1  0.88471100  0.39444500  0.87912400  1
  N  361  1  0.81887200  0.40903100  0.81627700  1
  N  362  1  0.90009900  0.41404900  0.84224800  1
  N  363  1  0.81461500  0.32511300  0.90756100  1
  N  364  1  0.81520400  0.40473500  0.93449900  1
  N  381  1  0.38449500  0.05904700  0.61989400  1
  N  382  1  0.33202400  0.11151500  0.62695800  1
  N  387  1  0.31679200  0.04482000  0.56489800  1
  N  388  1  0.31231700  0.12648100  0.59004400  1
  N  389  1  0.39912800  0.03943800  0.65700500  1
  N  390  1  0.31935500  0.04366800  0.68333400  1
  N  407  1  0.11495600  0.89137400  0.11992700  1
  N  408  1  0.16740800  0.83892700  0.12691900  1
  N  413  1  0.18266900  0.90568100  0.06490500  1
  N  414  1  0.18707900  0.82398300  0.08998200  1
  N  415  1  0.10035100  0.91095900  0.15705300  1
  N  416  1  0.18015000  0.90677900  0.18332900  1
  N  419  1  0.26703300  0.43643300  0.73621000  1
  N  429  1  0.24807600  0.39732400  0.77202500  1
  N  433  1  0.21207400  0.44579400  0.74884000  1
  N  436  1  0.24758500  0.37340300  0.72917000  1
  N  445  1  0.23250200  0.51394000  0.23610700  1
  N  455  1  0.25131800  0.55300600  0.27203000  1
  N  459  1  0.28744200  0.50466800  0.24878400  1
  N  462  1  0.25175000  0.57706200  0.22926700  1
  N  471  1  0.79260600  0.99913900  0.99194800  1
  N  481  1  0.83401600  0.97028900  0.01973100  1
  N  485  1  0.77670200  0.94467900  0.00165900  1
  N  488  1  0.84927700  0.97181300  0.97399300  1
  N  497  1  0.70678100  0.95119200  0.49201600  1
  N  507  1  0.66534700  0.98011300  0.51977200  1
  N  511  1  0.72271300  0.00560300  0.50169800  1
  N  514  1  0.65010000  0.97849300  0.47404800  1
  N  523  1  0.72467700  0.51822800  0.25741800  1
  N  533  1  0.75383600  0.55961600  0.22975900  1
  N  537  1  0.77911300  0.50221800  0.24795000  1
  N  540  1  0.75183200  0.57491900  0.27548300  1
  N  549  1  0.77487700  0.43217600  0.75741900  1
  N  559  1  0.74566800  0.39078400  0.72977100  1
  N  563  1  0.72046300  0.44820500  0.74798200  1
  N  566  1  0.74778300  0.37543800  0.77544900  1
  N  575  1  0.20651300  0.95054700  0.00671600  1
  N  585  1  0.16525000  0.98000400  0.97933500  1
  N  589  1  0.22260800  0.00523900  0.99766400  1
  N  592  1  0.15004000  0.97789100  0.02507800  1
  N  601  1  0.29303200  0.00001300  0.50664600  1
  N  611  1  0.33434200  0.97042600  0.47936100  1
  N  615  1  0.27683400  0.94540900  0.49756500  1
  N  618  1  0.34941200  0.97257300  0.52512400  1
  N  627  1  0.75218700  0.92758600  0.22665400  1
  N  637  1  0.73136100  0.88859100  0.26134000  1
  N  641  1  0.74604200  0.95238900  0.27060200  1
  N  644  1  0.78677300  0.88176900  0.25487200  1
  N  653  1  0.74721900  0.02282300  0.72668600  1
  N  663  1  0.76809700  0.06186200  0.76133400  1
  N  667  1  0.75334200  0.99809000  0.77064400  1
  N  670  1  0.71274600  0.06880600  0.75481400  1
  N  679  1  0.28827400  0.49300400  0.48688700  1
  N  689  1  0.32756300  0.47378700  0.52228300  1
  N  693  1  0.27828400  0.43819300  0.49986500  1
  N  696  1  0.35076100  0.47232700  0.47903100  1
  N  705  1  0.21109700  0.45737300  0.98688200  1
  N  715  1  0.17175500  0.47672900  0.02218500  1
  N  719  1  0.22120800  0.51215200  0.99984900  1
  N  722  1  0.14868800  0.47821700  0.97888400  1
  N  731  1  0.22621600  0.01895200  0.75660400  1
  N  741  1  0.25491100  0.06070100  0.72914600  1
  N  745  1  0.28039700  0.00281600  0.74601200  1
  N  748  1  0.25431400  0.07497800  0.77513400  1
  N  757  1  0.27315300  0.93165700  0.25672000  1
  N  767  1  0.24457800  0.88990700  0.22917400  1
  N  771  1  0.21899900  0.94776500  0.24600500  1
  N  774  1  0.24508100  0.87555900  0.27511700  1
  N  783  1  0.70152600  0.47273500  0.52256000  1
  N  793  1  0.66215400  0.49297300  0.48787300  1
  N  797  1  0.72618800  0.47937900  0.47863400  1
  N  800  1  0.65610300  0.43752300  0.49445500  1
  N  809  1  0.79802100  0.47769700  0.02256500  1
  N  819  1  0.83738300  0.45749600  0.98782800  1
  N  823  1  0.77330700  0.47099300  0.97870000  1
  N  826  1  0.84338700  0.51294100  0.99441600  1
  N  835  1  0.22196800  0.25111300  0.92159800  1
  N  845  1  0.19143500  0.20081400  0.90805600  1
  N  849  1  0.22916300  0.20893900  0.95357900  1
  N  852  1  0.15697300  0.23917700  0.92738100  1
  N  861  1  0.27747000  0.69932100  0.42164500  1
  N  871  1  0.30806100  0.74960800  0.40813800  1
  N  875  1  0.27025000  0.74149000  0.45361000  1
  N  878  1  0.34247300  0.71122000  0.42742000  1
  N  887  1  0.97462500  0.94665600  0.16953100  1
  N  897  1  0.02461200  0.91531400  0.15704900  1
  N  901  1  0.01653800  0.95414700  0.20190800  1
  N  904  1  0.98577900  0.88174100  0.17687300  1
  N  913  1  0.52485700  0.00374700  0.66947300  1
  N  923  1  0.47486600  0.03509500  0.65699300  1
  N  927  1  0.48295000  0.99621200  0.70182000  1
  N  930  1  0.51369100  0.06865900  0.67683900  1
  N  939  1  0.27780600  0.25285500  0.57973700  1
  N  949  1  0.30924900  0.20236400  0.59097000  1
  N  953  1  0.27005000  0.21206300  0.54657900  1
  N  956  1  0.34273700  0.24199500  0.57225900  1
  N  965  1  0.22156300  0.69760600  0.07968900  1
  N  975  1  0.19005100  0.74809300  0.09084700  1
  N  979  1  0.22941300  0.73837700  0.04656100  1
  N  982  1  0.15663300  0.70843400  0.07216900  1
  N  991  1  0.52402500  0.94840800  0.33054600  1
  N  1001  1  0.47381400  0.91682900  0.34200400  1
  N  1005  1  0.48301300  0.95591300  0.29745600  1
  N  1008  1  0.51335200  0.88347800  0.32280300  1
  N  1017  1  0.97541700  0.00190700  0.83057600  1
  N  1027  1  0.02564200  0.03346600  0.84208000  1
  N  1031  1  0.01646000  0.99435300  0.79754500  1
  N  1034  1  0.98615200  0.06683300  0.82285800  1
  N  1043  1  0.77735300  0.69991500  0.08015500  1
  N  1053  1  0.80798000  0.75041800  0.09272300  1
  N  1057  1  0.76991300  0.74138900  0.04752700  1
  N  1060  1  0.84229000  0.71164700  0.07369000  1
  N  1069  1  0.72208400  0.25054600  0.58015000  1
  N  1079  1  0.69139900  0.20004300  0.59266700  1
  N  1083  1  0.72956800  0.20909500  0.54753600  1
  N  1086  1  0.65714000  0.23884800  0.57369600  1
  N  1095  1  0.72271300  0.70027800  0.41763000  1
  N  1105  1  0.69214200  0.75093200  0.40543700  1
  N  1109  1  0.73046900  0.74155400  0.45043000  1
  N  1112  1  0.65789200  0.71218500  0.42469700  1
  N  1121  1  0.77684300  0.25012600  0.91763500  1
  N  1131  1  0.80749200  0.19947800  0.90553100  1
  N  1135  1  0.76898400  0.20888200  0.95040800  1
  N  1138  1  0.84165500  0.23826700  0.92482000  1
  N  1147  1  0.47496000  0.44752600  0.67121600  1
  N  1157  1  0.52546700  0.41728100  0.65760400  1
  N  1161  1  0.51700700  0.45477400  0.70322000  1
  N  1164  1  0.48715600  0.38254500  0.67667100  1
  N  1173  1  0.02451700  0.50285400  0.17119500  1
  N  1183  1  0.97401900  0.53313600  0.15758700  1
  N  1187  1  0.98244600  0.49555700  0.20315600  1
  N  1190  1  0.01231700  0.56783700  0.17664200  1
  N  1199  1  0.02662300  0.44779800  0.83036100  1
  N  1209  1  0.97602100  0.41716600  0.84293600  1
  N  1213  1  0.98524200  0.45518400  0.79774200  1
  N  1216  1  0.01494200  0.38281600  0.82419700  1
  N  1225  1  0.47285500  0.50291900  0.33036500  1
  N  1235  1  0.52344300  0.53370400  0.34274300  1
  N  1239  1  0.51410800  0.49546600  0.29769700  1
  N  1242  1  0.48435800  0.56790700  0.32402600  1
