# generated using pymatgen
data_H7C13(NO)4
_symmetry_space_group_name_H-M   'P 1'
_cell_length_a   41.47290000
_cell_length_b   48.81240000
_cell_length_c   55.90170000
_cell_angle_alpha   90.00000000
_cell_angle_beta   90.02800000
_cell_angle_gamma   89.96800000
_symmetry_Int_Tables_number   1
_chemical_formula_structural   H7C13(NO)4
_chemical_formula_sum   'H224 C416 N128 O128'
_cell_volume   113166.91102615
_cell_formula_units_Z   32
loop_
 _symmetry_equiv_pos_site_id
 _symmetry_equiv_pos_as_xyz
  1  'x, y, z'
loop_
 _atom_site_type_symbol
 _atom_site_label
 _atom_site_symmetry_multiplicity
 _atom_site_fract_x
 _atom_site_fract_y
 _atom_site_fract_z
 _atom_site_occupancy
  H  7  1  0.90292400  0.12412000  0.10571600  1
  H  16  1  0.90864700  0.14873700  0.17893700  1
  H  19  1  0.83436700  0.13555100  0.17446100  1
  H  20  1  0.87817600  0.07123500  0.13143100  1
  H  21  1  0.79998800  0.16519100  0.08824700  1
  H  22  1  0.99636700  0.08482300  0.18171900  1
  H  33  1  0.08770500  0.85309500  0.10742100  1
  H  42  1  0.08210600  0.82702800  0.18002300  1
  H  45  1  0.15662400  0.84059000  0.17587400  1
  H  46  1  0.11300200  0.90577000  0.13391400  1
  H  47  1  0.19054400  0.81240600  0.08923900  1
  H  48  1  0.02979300  0.91097600  0.20672000  1
  H  59  1  0.90570800  0.85326200  0.41648300  1
  H  68  1  0.91095700  0.82878800  0.34321800  1
  H  71  1  0.83675700  0.84188500  0.34788400  1
  H  72  1  0.88113000  0.90614100  0.39133700  1
  H  73  1  0.80266000  0.81264900  0.43407600  1
  H  74  1  0.96723400  0.90989000  0.31726600  1
  H  85  1  0.09067000  0.12397800  0.41639900  1
  H  94  1  0.08340600  0.15089200  0.34432200  1
  H  97  1  0.15846200  0.13692100  0.34746500  1
  H  98  1  0.11572800  0.07144200  0.38886600  1
  H  99  1  0.19345500  0.16502300  0.43413500  1
  H  100  1  0.02736000  0.06583200  0.32025800  1
  H  111  1  0.08727600  0.85005000  0.91572500  1
  H  120  1  0.08256400  0.82811200  0.84247700  1
  H  123  1  0.15676300  0.84299900  0.84713800  1
  H  124  1  0.11161100  0.90477100  0.89163300  1
  H  125  1  0.19019700  0.80665800  0.93230900  1
  H  126  1  0.99499700  0.89246000  0.83953600  1
  H  137  1  0.90411100  0.12619400  0.91441700  1
  H  146  1  0.90955700  0.14949800  0.84180100  1
  H  149  1  0.83464500  0.13451200  0.84587600  1
  H  150  1  0.87868700  0.07177800  0.88938200  1
  H  151  1  0.80164400  0.16994700  0.93149900  1
  H  152  1  0.96222600  0.06524800  0.81644000  1
  H  163  1  0.08802500  0.12707600  0.60759300  1
  H  172  1  0.08322900  0.14850800  0.68095900  1
  H  175  1  0.15764600  0.13398700  0.67621000  1
  H  176  1  0.11256500  0.07236500  0.63109700  1
  H  177  1  0.19102600  0.17015100  0.59109800  1
  H  178  1  0.02614300  0.06734100  0.70534000  1
  H  189  1  0.90513600  0.85065200  0.60797400  1
  H  198  1  0.91022200  0.82799100  0.68086100  1
  H  201  1  0.83534600  0.84277500  0.67632300  1
  H  202  1  0.87953700  0.90515200  0.63244700  1
  H  203  1  0.80272100  0.80692300  0.59081000  1
  H  204  1  0.96134600  0.91359300  0.70552700  1
  H  215  1  0.40367500  0.62490800  0.10548800  1
  H  224  1  0.40881300  0.64866400  0.17896000  1
  H  227  1  0.33403800  0.63500700  0.17351900  1
  H  228  1  0.37848200  0.57183400  0.13059300  1
  H  229  1  0.32885000  0.69818600  0.08773700  1
  H  230  1  0.49625300  0.58446700  0.18160100  1
  H  241  1  0.58687500  0.35223500  0.10720500  1
  H  250  1  0.58192900  0.32702100  0.18007500  1
  H  253  1  0.65693400  0.34110700  0.17491300  1
  H  254  1  0.61257600  0.40510500  0.13305700  1
  H  255  1  0.66187100  0.27910400  0.08862300  1
  H  256  1  0.52996800  0.41128800  0.20635300  1
  H  267  1  0.40644500  0.35252600  0.41665800  1
  H  276  1  0.41112800  0.32880200  0.34318400  1
  H  279  1  0.33643200  0.34240600  0.34878000  1
  H  280  1  0.38144900  0.40556100  0.39206100  1
  H  281  1  0.33145900  0.27962900  0.43478800  1
  H  282  1  0.46688000  0.41009100  0.31734300  1
  H  293  1  0.58984900  0.62480600  0.41661900  1
  H  302  1  0.58319000  0.65091500  0.34428100  1
  H  305  1  0.65876500  0.63641600  0.34839000  1
  H  306  1  0.61532500  0.57206700  0.38969600  1
  H  307  1  0.66443800  0.69799600  0.43508000  1
  H  308  1  0.52759100  0.56554900  0.32053900  1
  H  319  1  0.58624300  0.34906000  0.91580000  1
  H  328  1  0.58249400  0.32821300  0.84239300  1
  H  331  1  0.65729600  0.34371600  0.84823100  1
  H  332  1  0.61126300  0.40415300  0.89248200  1
  H  333  1  0.65783100  0.27558800  0.93274200  1
  H  334  1  0.49516000  0.39281600  0.83960200  1
  H  345  1  0.40511400  0.62712400  0.91450100  1
  H  354  1  0.40965700  0.64936000  0.84171500  1
  H  357  1  0.33412200  0.63373000  0.84693800  1
  H  358  1  0.37903500  0.57234300  0.89025300  1
  H  359  1  0.33409600  0.70093900  0.93200200  1
  H  360  1  0.46192300  0.56478100  0.81676700  1
  H  371  1  0.58704800  0.62805200  0.60750900  1
  H  380  1  0.58309100  0.64839700  0.68103400  1
  H  383  1  0.65813200  0.63327700  0.67515600  1
  H  384  1  0.61223800  0.57300700  0.63025600  1
  H  385  1  0.65872200  0.70134800  0.59060800  1
  H  386  1  0.52633300  0.56685700  0.70493000  1
  H  397  1  0.40604500  0.34975200  0.60784200  1
  H  406  1  0.41038800  0.32811000  0.68090400  1
  H  409  1  0.33491300  0.34347000  0.67529900  1
  H  410  1  0.37987800  0.40456800  0.63159800  1
  H  411  1  0.33508400  0.27596700  0.59042700  1
  H  412  1  0.46121500  0.41406600  0.70502800  1
  H  423  1  0.88936000  0.19521100  0.01950600  1
  H  427  1  0.82314600  0.10099900  0.98073700  1
  H  429  1  0.88608900  0.11600600  0.95596900  1
  H  431  1  0.87311200  0.18383900  0.06164500  1
  H  438  1  0.10363200  0.78139600  0.02075800  1
  H  442  1  0.16652600  0.87762900  0.98258300  1
  H  444  1  0.10579900  0.86048000  0.95692600  1
  H  446  1  0.11752900  0.79350300  0.06304800  1
  H  453  1  0.89251200  0.78247600  0.50274700  1
  H  457  1  0.82319100  0.87537500  0.54150700  1
  H  459  1  0.88615900  0.86121300  0.56659600  1
  H  461  1  0.87598500  0.79376400  0.46061500  1
  H  468  1  0.10435500  0.19548200  0.50256200  1
  H  472  1  0.16879600  0.10030700  0.54185400  1
  H  474  1  0.10704700  0.11643500  0.56639200  1
  H  476  1  0.11959700  0.18366300  0.46042100  1
  H  483  1  0.39428200  0.69586800  0.01960400  1
  H  487  1  0.32245300  0.60450800  0.98045600  1
  H  489  1  0.38539400  0.61710800  0.95589000  1
  H  491  1  0.37936300  0.68478800  0.06198400  1
  H  498  1  0.59834400  0.28066400  0.02084500  1
  H  502  1  0.66756700  0.37381700  0.98229000  1
  H  504  1  0.60647400  0.35931800  0.95685800  1
  H  506  1  0.61128900  0.29245600  0.06332700  1
  H  513  1  0.39729800  0.28194400  0.50268400  1
  H  517  1  0.32240700  0.37163900  0.54155000  1
  H  519  1  0.38539300  0.36009500  0.56665200  1
  H  521  1  0.38229200  0.29293400  0.46028600  1
  H  528  1  0.59936300  0.69616800  0.50247800  1
  H  532  1  0.67013100  0.60417700  0.54130500  1
  H  534  1  0.60780100  0.61760200  0.56651900  1
  H  536  1  0.61310800  0.68454000  0.46007500  1
  H  543  1  0.95888500  0.98120600  0.18180700  1
  H  547  1  0.01997600  0.97103100  0.08861700  1
  H  549  1  0.05345900  0.94320000  0.12647500  1
  H  551  1  0.94553000  0.03025400  0.17796500  1
  H  558  1  0.95984200  0.99756600  0.34172100  1
  H  562  1  0.02331500  0.00477900  0.43425700  1
  H  564  1  0.05649900  0.03309700  0.39646700  1
  H  566  1  0.94522900  0.94875700  0.34501400  1
  H  573  1  0.03219300  0.99553900  0.84103700  1
  H  577  1  0.97144400  0.00482100  0.93456500  1
  H  579  1  0.93769600  0.03346400  0.89653200  1
  H  581  1  0.04566900  0.94658000  0.84465400  1
  H  588  1  0.03429400  0.98039900  0.68072500  1
  H  592  1  0.97017700  0.97255700  0.58833100  1
  H  594  1  0.93815700  0.94417200  0.62589800  1
  H  596  1  0.04899700  0.02904100  0.67727800  1
  H  603  1  0.45851000  0.48106100  0.18104300  1
  H  607  1  0.52106100  0.47066500  0.08823000  1
  H  609  1  0.55342000  0.44305000  0.12602200  1
  H  611  1  0.44539000  0.53013800  0.17735300  1
  H  618  1  0.45959000  0.49764600  0.34230100  1
  H  622  1  0.52419200  0.50516300  0.43456100  1
  H  624  1  0.55641500  0.53322000  0.39687500  1
  H  626  1  0.44516800  0.44882300  0.34546200  1
  H  633  1  0.53255200  0.49569000  0.84178800  1
  H  637  1  0.47001100  0.50559800  0.93462600  1
  H  639  1  0.43756000  0.53343000  0.89692400  1
  H  641  1  0.54584700  0.44669800  0.84522800  1
  H  648  1  0.53466600  0.48027500  0.67991600  1
  H  652  1  0.47057600  0.47344400  0.58761700  1
  H  654  1  0.43832400  0.44405300  0.62528700  1
  H  656  1  0.54920100  0.52894000  0.67660700  1
  H  663  1  0.69694500  0.21255100  0.14355800  1
  H  667  1  0.82204000  0.28716500  0.11016200  1
  H  669  1  0.82048800  0.21868900  0.12538100  1
  H  671  1  0.66829800  0.25607200  0.13123000  1
  H  678  1  0.29403300  0.76413800  0.14329500  1
  H  682  1  0.16829800  0.68985000  0.11056000  1
  H  684  1  0.17030200  0.75823700  0.12590800  1
  H  686  1  0.32246500  0.72068900  0.13060300  1
  H  693  1  0.69912300  0.76483100  0.38014200  1
  H  697  1  0.82591100  0.69012000  0.41129700  1
  H  699  1  0.82284300  0.75891900  0.39726500  1
  H  701  1  0.67090800  0.72117100  0.39259300  1
  H  708  1  0.29647700  0.21336600  0.37965400  1
  H  712  1  0.16932800  0.28667400  0.41237900  1
  H  714  1  0.17302700  0.21903500  0.39772500  1
  H  716  1  0.32482900  0.25691500  0.39215400  1
  H  723  1  0.29364900  0.76463000  0.87532500  1
  H  727  1  0.16819100  0.68961800  0.90833000  1
  H  729  1  0.16954100  0.75690800  0.89226100  1
  H  731  1  0.32299000  0.72158800  0.88748100  1
  H  738  1  0.69794500  0.21246600  0.87537700  1
  H  742  1  0.82388400  0.28703500  0.90831000  1
  H  744  1  0.82225900  0.22004100  0.89169500  1
  H  746  1  0.66871500  0.25534600  0.88800700  1
  H  753  1  0.29463300  0.21246300  0.64762600  1
  H  757  1  0.16890900  0.28695700  0.61414700  1
  H  759  1  0.17038800  0.22000200  0.63092700  1
  H  761  1  0.32380700  0.25543800  0.63493400  1
  H  768  1  0.69875000  0.76458900  0.64779200  1
  H  772  1  0.82298100  0.68919700  0.61391100  1
  H  774  1  0.82291000  0.75703900  0.63066900  1
  H  776  1  0.66954200  0.72163100  0.63520900  1
  H  783  1  0.95715700  0.16474200  0.26736200  1
  H  787  1  0.03018000  0.06626500  0.25530000  1
  H  789  1  0.05826100  0.10469200  0.29216100  1
  H  791  1  0.93860000  0.15816100  0.22288900  1
  H  798  1  0.02692200  0.78960100  0.25526600  1
  H  802  1  0.99406000  0.90527700  0.26314000  1
  H  804  1  0.94522700  0.81429600  0.30680400  1
  H  806  1  0.05213100  0.81372400  0.21892700  1
  H  813  1  0.02774500  0.79070200  0.76838400  1
  H  817  1  0.99108400  0.90575000  0.76065300  1
  H  819  1  0.94546300  0.81368300  0.71686700  1
  H  821  1  0.05285700  0.81545900  0.80436200  1
  H  828  1  0.96595300  0.18702800  0.76777100  1
  H  832  1  0.99922700  0.07131200  0.76007300  1
  H  834  1  0.04833100  0.16271700  0.71676000  1
  H  836  1  0.94023700  0.16264700  0.80374100  1
  H  843  1  0.45741400  0.66457000  0.26728900  1
  H  847  1  0.53063800  0.56562800  0.25692800  1
  H  849  1  0.55832500  0.60432800  0.29225900  1
  H  851  1  0.43876800  0.65785900  0.22283700  1
  H  858  1  0.52778500  0.29022800  0.25570200  1
  H  862  1  0.49255600  0.40565200  0.26201200  1
  H  864  1  0.44583500  0.31439200  0.30711400  1
  H  866  1  0.55241500  0.31416300  0.21910100  1
  H  873  1  0.52675800  0.29075300  0.76886000  1
  H  877  1  0.49286300  0.40621100  0.76010700  1
  H  879  1  0.44495700  0.31428200  0.71717600  1
  H  881  1  0.55249500  0.31563200  0.80452400  1
  H  888  1  0.46682200  0.68690400  0.76824300  1
  H  892  1  0.49749900  0.57094700  0.75869600  1
  H  894  1  0.54869500  0.66215200  0.71701900  1
  H  896  1  0.44060900  0.66240400  0.80393900  1
  C  1  1  0.87894900  0.13435800  0.13805400  1
  C  2  1  0.88401900  0.13478700  0.11298500  1
  C  3  1  0.86413600  0.14957900  0.09723300  1
  C  4  1  0.83839900  0.16525200  0.10653100  1
  C  5  1  0.83359200  0.16770100  0.13157600  1
  C  6  1  0.85328000  0.15132300  0.14699000  1
  C  9  1  0.90098100  0.11797900  0.15257800  1
  C  10  1  0.91230600  0.09131300  0.14544700  1
  C  11  1  0.93740200  0.07732600  0.15783100  1
  C  12  1  0.95140100  0.09042200  0.17787500  1
  C  13  1  0.93966700  0.11581400  0.18623800  1
  C  14  1  0.91504500  0.12948000  0.17347800  1
  C  27  1  0.11183400  0.84229700  0.13957000  1
  C  28  1  0.10662600  0.84227700  0.11450800  1
  C  29  1  0.12640700  0.82766900  0.09855000  1
  C  30  1  0.15225600  0.81193500  0.10763700  1
  C  31  1  0.15719600  0.80911400  0.13263600  1
  C  32  1  0.13756300  0.82522500  0.14826700  1
  C  35  1  0.09003200  0.85847900  0.15442500  1
  C  36  1  0.07913900  0.88547400  0.14793400  1
  C  37  1  0.05465600  0.89940800  0.16103000  1
  C  38  1  0.04229600  0.88680600  0.18182300  1
  C  39  1  0.05275100  0.86055000  0.18902500  1
  C  40  1  0.07609200  0.84658900  0.17519400  1
  C  53  1  0.88161500  0.84304800  0.38417600  1
  C  54  1  0.88676300  0.84263400  0.40924300  1
  C  55  1  0.86688800  0.82792000  0.42504100  1
  C  56  1  0.84104900  0.81234000  0.41579000  1
  C  57  1  0.83615100  0.80982200  0.39075900  1
  C  58  1  0.85585800  0.82611600  0.37530500  1
  C  61  1  0.90351200  0.85948200  0.36956800  1
  C  62  1  0.91479700  0.88618100  0.37659300  1
  C  63  1  0.93915400  0.90048800  0.36371700  1
  C  64  1  0.95192500  0.88804200  0.34292000  1
  C  65  1  0.94111800  0.86208900  0.33517000  1
  C  66  1  0.91733800  0.84808500  0.34854900  1
  C  79  1  0.11428300  0.13499400  0.38412900  1
  C  80  1  0.10946500  0.13485100  0.40921800  1
  C  81  1  0.12937800  0.14946800  0.42506200  1
  C  82  1  0.15502700  0.16532100  0.41587400  1
  C  83  1  0.15972200  0.16816400  0.39085000  1
  C  84  1  0.13986000  0.15211600  0.37530500  1
  C  87  1  0.09204700  0.11903500  0.36946400  1
  C  88  1  0.08129200  0.09197500  0.37585200  1
  C  89  1  0.05597600  0.07849300  0.36328000  1
  C  90  1  0.04260200  0.09160800  0.34307400  1
  C  91  1  0.05346500  0.11770200  0.33564600  1
  C  92  1  0.07733000  0.13133900  0.34917500  1
  C  105  1  0.11197400  0.84186000  0.88331600  1
  C  106  1  0.10662600  0.84018900  0.90831200  1
  C  107  1  0.12679600  0.82495400  0.92366700  1
  C  108  1  0.15206100  0.80928200  0.91378400  1
  C  109  1  0.15733000  0.80833300  0.88872200  1
  C  110  1  0.13793400  0.82559400  0.87388200  1
  C  113  1  0.08975300  0.85843600  0.86915900  1
  C  114  1  0.07810000  0.88483100  0.87668300  1
  C  115  1  0.05331100  0.89908900  0.86416300  1
  C  116  1  0.03981400  0.88641400  0.84369300  1
  C  117  1  0.05148900  0.86104800  0.83519400  1
  C  118  1  0.07591100  0.84724500  0.84808100  1
  C  131  1  0.87943800  0.13499200  0.88210000  1
  C  132  1  0.88485300  0.13630300  0.90710600  1
  C  133  1  0.86487400  0.15155200  0.92257400  1
  C  134  1  0.83965000  0.16741100  0.91284100  1
  C  135  1  0.83429300  0.16863100  0.88779900  1
  C  136  1  0.85357800  0.15148400  0.87280300  1
  C  139  1  0.90143900  0.11848500  0.86774200  1
  C  140  1  0.91240700  0.09169600  0.87477400  1
  C  141  1  0.93690500  0.07747500  0.86191100  1
  C  142  1  0.94947800  0.08973700  0.84102600  1
  C  143  1  0.93916000  0.11590100  0.83347200  1
  C  144  1  0.91557900  0.13003200  0.84691800  1
  C  157  1  0.11276400  0.13513600  0.64002900  1
  C  158  1  0.10738700  0.13688700  0.61503800  1
  C  159  1  0.12757600  0.15209000  0.59971300  1
  C  160  1  0.15288300  0.16768900  0.60960600  1
  C  161  1  0.15815600  0.16864100  0.63466900  1
  C  162  1  0.13872200  0.15140000  0.64949000  1
  C  165  1  0.09063100  0.11840000  0.65411000  1
  C  166  1  0.07914100  0.09200000  0.64645400  1
  C  167  1  0.05469500  0.07743400  0.65903900  1
  C  168  1  0.04181900  0.08948200  0.67998800  1
  C  169  1  0.05266200  0.11523400  0.68819700  1
  C  170  1  0.07672000  0.12938300  0.67524800  1
  C  183  1  0.88037700  0.84204300  0.64026500  1
  C  184  1  0.88585900  0.84059400  0.61527800  1
  C  185  1  0.86591500  0.82530800  0.59981200  1
  C  186  1  0.84067200  0.80950000  0.60954500  1
  C  187  1  0.83520100  0.80843600  0.63458000  1
  C  188  1  0.85446400  0.82563500  0.64955400  1
  C  191  1  0.90227700  0.85870200  0.65458600  1
  C  192  1  0.91318000  0.88546500  0.64744500  1
  C  193  1  0.93738100  0.89991300  0.66042300  1
  C  194  1  0.94965300  0.88796300  0.68155000  1
  C  195  1  0.93961500  0.86173900  0.68908100  1
  C  196  1  0.91633500  0.84736000  0.67554400  1
  C  209  1  0.37958400  0.63494000  0.13782700  1
  C  210  1  0.38496800  0.63577700  0.11280500  1
  C  211  1  0.36556500  0.65117000  0.09715400  1
  C  212  1  0.34031100  0.66736600  0.10650700  1
  C  213  1  0.33458900  0.66864700  0.13149800  1
  C  214  1  0.35378200  0.65172500  0.14680200  1
  C  217  1  0.40127700  0.61821100  0.15232100  1
  C  218  1  0.41255900  0.59159100  0.14502000  1
  C  219  1  0.43744700  0.57736200  0.15744000  1
  C  220  1  0.45133200  0.59022700  0.17764600  1
  C  221  1  0.43965000  0.61557800  0.18614500  1
  C  222  1  0.41518200  0.62944100  0.17338700  1
  C  235  1  0.61114600  0.34165100  0.13934800  1
  C  236  1  0.60560000  0.34121300  0.11433100  1
  C  237  1  0.62488200  0.32599900  0.09846000  1
  C  238  1  0.65024900  0.30972800  0.10758400  1
  C  239  1  0.65613200  0.30808900  0.13253800  1
  C  240  1  0.63701900  0.32476400  0.14807100  1
  C  243  1  0.58968100  0.35817500  0.15418200  1
  C  244  1  0.57879500  0.38511800  0.14751600  1
  C  245  1  0.55449400  0.39926100  0.16063800  1
  C  246  1  0.54225600  0.38688100  0.18157600  1
  C  247  1  0.55270400  0.36068200  0.18894100  1
  C  248  1  0.57592000  0.34654700  0.17512700  1
  C  261  1  0.38223900  0.34247600  0.38435800  1
  C  262  1  0.38770000  0.34168300  0.40937900  1
  C  263  1  0.36831300  0.32638100  0.42508900  1
  C  264  1  0.34296200  0.31025100  0.41579900  1
  C  265  1  0.33713700  0.30889200  0.39082300  1
  C  266  1  0.35634900  0.32571600  0.37546200  1
  C  269  1  0.40380300  0.35924100  0.36976900  1
  C  270  1  0.41504900  0.38590500  0.37692900  1
  C  271  1  0.43918400  0.40043900  0.36400300  1
  C  272  1  0.45181900  0.38820000  0.34306100  1
  C  273  1  0.44109600  0.36225900  0.33521500  1
  C  274  1  0.41748000  0.34807500  0.34860500  1
  C  287  1  0.61360300  0.63561800  0.38435300  1
  C  288  1  0.60845400  0.63587800  0.40940100  1
  C  289  1  0.62788200  0.65108200  0.42516600  1
  C  290  1  0.65305200  0.66745800  0.41594200  1
  C  291  1  0.65868000  0.66914700  0.39095900  1
  C  292  1  0.63932000  0.65256200  0.37549800  1
  C  295  1  0.59169200  0.61932700  0.36970100  1
  C  296  1  0.58095700  0.59231000  0.37625000  1
  C  297  1  0.55582800  0.57862100  0.36362700  1
  C  298  1  0.54257700  0.59152500  0.34327000  1
  C  299  1  0.55340400  0.61758300  0.33571600  1
  C  300  1  0.57713200  0.63139200  0.34924300  1
  C  313  1  0.61134400  0.34129200  0.88348800  1
  C  314  1  0.60549200  0.33906200  0.90838200  1
  C  315  1  0.62507800  0.32314100  0.92362800  1
  C  316  1  0.64991900  0.30701600  0.91365200  1
  C  317  1  0.65631200  0.30739200  0.88874200  1
  C  318  1  0.63750900  0.32528000  0.87405500  1
  C  321  1  0.58950400  0.35823100  0.86935400  1
  C  322  1  0.57786500  0.38455700  0.87706100  1
  C  323  1  0.55329600  0.39905500  0.86449900  1
  C  324  1  0.53993200  0.38661800  0.84386500  1
  C  325  1  0.55156300  0.36129300  0.83523500  1
  C  326  1  0.57584500  0.34730700  0.84811000  1
  C  339  1  0.38006200  0.63550300  0.88226400  1
  C  340  1  0.38596900  0.63737300  0.90717600  1
  C  341  1  0.36657900  0.65331800  0.92253100  1
  C  342  1  0.34180200  0.66964600  0.91269800  1
  C  343  1  0.33533300  0.66954400  0.88779400  1
  C  344  1  0.35401000  0.65175100  0.87295700  1
  C  347  1  0.40169300  0.61863800  0.86793600  1
  C  348  1  0.41264300  0.59191500  0.87515700  1
  C  349  1  0.43694600  0.57747400  0.86226700  1
  C  350  1  0.44939900  0.58950200  0.84123500  1
  C  351  1  0.43912400  0.61562400  0.83353200  1
  C  352  1  0.41566900  0.62992800  0.84695200  1
  C  365  1  0.61212400  0.63571300  0.63987300  1
  C  366  1  0.60628000  0.63802000  0.61498100  1
  C  367  1  0.62589700  0.65392700  0.59978100  1
  C  368  1  0.65073700  0.67000700  0.60978800  1
  C  369  1  0.65711200  0.66961300  0.63470500  1
  C  370  1  0.63826600  0.65172900  0.64935400  1
  C  373  1  0.59035800  0.61860600  0.65390800  1
  C  374  1  0.57889400  0.59227800  0.64605300  1
  C  375  1  0.55463400  0.57748000  0.65863800  1
  C  376  1  0.54184400  0.58929300  0.67972300  1
  C  377  1  0.55264700  0.61498600  0.68810200  1
  C  378  1  0.57660400  0.62931100  0.67520300  1
  C  391  1  0.38100000  0.34151200  0.64008200  1
  C  392  1  0.38690800  0.33953800  0.61518300  1
  C  393  1  0.36751100  0.32357600  0.59984400  1
  C  394  1  0.34275000  0.30728500  0.60970000  1
  C  395  1  0.33622500  0.30750900  0.63459200  1
  C  396  1  0.35492400  0.32533200  0.64940000  1
  C  399  1  0.40256100  0.35852200  0.65435600  1
  C  400  1  0.41344200  0.38521700  0.64701600  1
  C  401  1  0.43748100  0.39987800  0.65999000  1
  C  402  1  0.44967700  0.38815600  0.68124000  1
  C  403  1  0.43967300  0.36198900  0.68894300  1
  C  404  1  0.41648000  0.34744200  0.67546600  1
  C  417  1  0.87846100  0.14057300  0.98551900  1
  C  419  1  0.88421200  0.17519100  0.01564800  1
  C  420  1  0.87560300  0.15634400  0.03365900  1
  C  422  1  0.86997900  0.12132300  0.00350600  1
  C  424  1  0.86100400  0.09445400  0.99874700  1
  C  428  1  0.87945800  0.13459500  0.96134600  1
  C  430  1  0.87260500  0.16401000  0.05737200  1
  C  432  1  0.11308400  0.83611100  0.98663700  1
  C  434  1  0.10795100  0.80155300  0.01688100  1
  C  435  1  0.11511400  0.82079500  0.03493300  1
  C  437  1  0.12009100  0.85575100  0.00466800  1
  C  439  1  0.12785900  0.88289200  0.99992400  1
  C  443  1  0.11239300  0.84192000  0.96241200  1
  C  445  1  0.11786900  0.81332200  0.05871800  1
  C  447  1  0.87961400  0.83664300  0.53692600  1
  C  449  1  0.88676800  0.80236800  0.50666200  1
  C  450  1  0.87791100  0.82117600  0.48867200  1
  C  452  1  0.87085900  0.85585700  0.51896300  1
  C  454  1  0.86107900  0.88249700  0.52382300  1
  C  458  1  0.88021900  0.84249000  0.56113700  1
  C  460  1  0.87532800  0.81358500  0.46491100  1
  C  462  1  0.11445600  0.14090000  0.53675800  1
  C  464  1  0.10916800  0.17541600  0.50649100  1
  C  465  1  0.11740700  0.15635800  0.48854700  1
  C  467  1  0.12255300  0.12143900  0.51883400  1
  C  469  1  0.13095500  0.09446500  0.52366700  1
  C  473  1  0.11336500  0.13507500  0.56095900  1
  C  475  1  0.12042200  0.16386800  0.46480100  1
  C  477  1  0.37971300  0.64197300  0.98547100  1
  C  479  1  0.38787700  0.67612200  0.01570400  1
  C  480  1  0.37833400  0.65758400  0.03370300  1
  C  482  1  0.37024400  0.62302700  0.00344000  1
  C  484  1  0.35975900  0.59657600  0.99866200  1
  C  488  1  0.38026400  0.63603600  0.96127600  1
  C  490  1  0.37619900  0.66520600  0.05749200  1
  C  492  1  0.61179600  0.33465600  0.98659000  1
  C  494  1  0.60403900  0.30055800  0.01692700  1
  C  495  1  0.61229700  0.31950400  0.03496300  1
  C  497  1  0.61993600  0.35401200  0.00459900  1
  C  499  1  0.62944200  0.38073000  0.99983300  1
  C  503  1  0.61157500  0.34042100  0.96234800  1
  C  505  1  0.61418400  0.31206500  0.05881300  1
  C  507  1  0.38071500  0.33531500  0.53694100  1
  C  509  1  0.39034700  0.30155100  0.50661600  1
  C  510  1  0.38065900  0.32004400  0.48860700  1
  C  512  1  0.37110900  0.35422500  0.51896600  1
  C  514  1  0.35978400  0.38042800  0.52376900  1
  C  518  1  0.38071100  0.34112100  0.56116500  1
  C  520  1  0.37897000  0.31250200  0.46477500  1
  C  522  1  0.61321900  0.64230000  0.53681700  1
  C  524  1  0.60541000  0.67635500  0.50644800  1
  C  525  1  0.61451300  0.65757500  0.48850700  1
  C  527  1  0.62214300  0.62309400  0.51890000  1
  C  529  1  0.63218600  0.59651000  0.52375500  1
  C  533  1  0.61279600  0.63651900  0.56104000  1
  C  535  1  0.61662900  0.66502900  0.46468200  1
  C  537  1  0.01776100  0.96566900  0.14411900  1
  C  539  1  0.97397500  0.98412600  0.16755900  1
  C  540  1  0.97346600  0.00873900  0.15420400  1
  C  542  1  0.01719000  0.99027900  0.13036900  1
  C  544  1  0.03809000  0.99504500  0.11147300  1
  C  548  1  0.03925500  0.94362900  0.14073500  1
  C  550  1  0.95449900  0.03103400  0.16142900  1
  C  552  1  0.01967600  0.01168000  0.37905100  1
  C  554  1  0.97526400  0.99412700  0.35569700  1
  C  555  1  0.97494600  0.96909900  0.36845600  1
  C  557  1  0.01932300  0.98663000  0.39218300  1
  C  559  1  0.04060400  0.98119100  0.41071900  1
  C  563  1  0.04143500  0.03347000  0.38268900  1
  C  565  1  0.95554100  0.94714400  0.36106800  1
  C  567  1  0.97344800  0.01104200  0.87885100  1
  C  569  1  0.01709900  0.99255600  0.85527100  1
  C  570  1  0.01746900  0.96781200  0.86844900  1
  C  572  1  0.97388600  0.98630400  0.89243600  1
  C  574  1  0.95302600  0.98154700  0.91133900  1
  C  578  1  0.95203100  0.03313500  0.88234000  1
  C  580  1  0.03637500  0.94551500  0.86107700  1
  C  582  1  0.97436500  0.96611600  0.64354000  1
  C  584  1  0.01886200  0.98377600  0.66674200  1
  C  585  1  0.01914300  0.00876200  0.65391400  1
  C  587  1  0.97470000  0.99110100  0.63031000  1
  C  589  1  0.95336600  0.99645000  0.61181300  1
  C  593  1  0.95263800  0.94426700  0.64002000  1
  C  595  1  0.03857500  0.03073000  0.66126900  1
  C  597  1  0.51763400  0.46553200  0.14356700  1
  C  599  1  0.47369300  0.48399900  0.16685400  1
  C  600  1  0.47334200  0.50867100  0.15357100  1
  C  602  1  0.51725700  0.49021500  0.12990400  1
  C  604  1  0.53833500  0.49502900  0.11115000  1
  C  608  1  0.53913600  0.44347200  0.14023800  1
  C  610  1  0.45443100  0.53099600  0.16084200  1
  C  612  1  0.51955500  0.51178000  0.37951100  1
  C  614  1  0.47505300  0.49420500  0.35625000  1
  C  615  1  0.47484400  0.46912800  0.36894700  1
  C  617  1  0.51933000  0.48667800  0.39257600  1
  C  619  1  0.54071700  0.48120600  0.41101600  1
  C  623  1  0.54130400  0.53359800  0.38312600  1
  C  625  1  0.45547200  0.44715700  0.36150900  1
  C  627  1  0.47350400  0.51107400  0.87938100  1
  C  629  1  0.51736800  0.49266700  0.85596500  1
  C  630  1  0.51760100  0.46784500  0.86904300  1
  C  632  1  0.47380000  0.48626500  0.89287400  1
  C  634  1  0.45272200  0.48135800  0.91161100  1
  C  638  1  0.45203200  0.53315300  0.88280800  1
  C  640  1  0.53647900  0.44554100  0.86162100  1
  C  642  1  0.47445300  0.46605900  0.64296400  1
  C  644  1  0.51911700  0.48368700  0.66601300  1
  C  645  1  0.51923100  0.50874600  0.65328400  1
  C  647  1  0.47462500  0.49111400  0.62983400  1
  C  649  1  0.45308600  0.49651600  0.61145900  1
  C  653  1  0.45276200  0.44417900  0.63943300  1
  C  655  1  0.53867800  0.53071700  0.66064300  1
  C  657  1  0.77550800  0.22433200  0.13989800  1
  C  659  1  0.71742000  0.22420800  0.14298100  1
  C  660  1  0.71564200  0.25316300  0.14163900  1
  C  662  1  0.77393000  0.25355300  0.13894300  1
  C  664  1  0.80064400  0.26992700  0.13568700  1
  C  668  1  0.80374600  0.20917700  0.13505700  1
  C  670  1  0.68632200  0.26705000  0.13810700  1
  C  672  1  0.21540600  0.75243500  0.14019700  1
  C  674  1  0.27353700  0.75249900  0.14282600  1
  C  675  1  0.27526200  0.72355300  0.14133600  1
  C  677  1  0.21694100  0.72322200  0.13909300  1
  C  679  1  0.19015000  0.70689300  0.13598500  1
  C  683  1  0.18712900  0.76763500  0.13560100  1
  C  685  1  0.30451800  0.70966500  0.13752000  1
  C  687  1  0.77782500  0.75322700  0.38283400  1
  C  689  1  0.71965700  0.75321300  0.38042100  1
  C  690  1  0.71801400  0.72424200  0.38163400  1
  C  692  1  0.77636100  0.72399700  0.38367000  1
  C  694  1  0.80318200  0.70766700  0.38654400  1
  C  698  1  0.80610600  0.76839800  0.38753700  1
  C  700  1  0.68880200  0.71027600  0.38543700  1
  C  702  1  0.21781800  0.22493500  0.38297600  1
  C  704  1  0.27595000  0.22498500  0.38009900  1
  C  705  1  0.27760500  0.25394800  0.38145300  1
  C  707  1  0.21929400  0.25415800  0.38398300  1
  C  709  1  0.19253600  0.27047000  0.38713300  1
  C  713  1  0.18966000  0.20967700  0.38782900  1
  C  715  1  0.30687500  0.26787700  0.38514700  1
  C  717  1  0.21524400  0.75202500  0.87874800  1
  C  719  1  0.27335000  0.75274500  0.87579100  1
  C  720  1  0.27553300  0.72381300  0.87717300  1
  C  722  1  0.21725800  0.72282200  0.87973100  1
  C  724  1  0.19088600  0.70610400  0.88297500  1
  C  728  1  0.18679700  0.76692400  0.88351800  1
  C  730  1  0.30501500  0.71028600  0.88094200  1
  C  732  1  0.77636900  0.22505700  0.87852200  1
  C  734  1  0.71825000  0.22434500  0.87582600  1
  C  735  1  0.71607100  0.25326100  0.87748600  1
  C  737  1  0.77437600  0.25424700  0.87972400  1
  C  739  1  0.80078300  0.27093300  0.88295300  1
  C  743  1  0.80489900  0.21012500  0.88296900  1
  C  745  1  0.68660700  0.26673800  0.88147700  1
  C  747  1  0.21618900  0.22499100  0.64425000  1
  C  749  1  0.27430600  0.22432800  0.64712100  1
  C  750  1  0.27646000  0.25324800  0.64549000  1
  C  752  1  0.21814600  0.25418700  0.64304800  1
  C  754  1  0.19175500  0.27087400  0.63965300  1
  C  758  1  0.18770000  0.21004700  0.63968900  1
  C  760  1  0.30589900  0.26677000  0.64152900  1
  C  762  1  0.77717200  0.75207800  0.64413400  1
  C  764  1  0.71907600  0.75272800  0.64723000  1
  C  765  1  0.71693400  0.72381000  0.64560800  1
  C  767  1  0.77522600  0.72287500  0.64300000  1
  C  769  1  0.80169900  0.70623000  0.63960500  1
  C  773  1  0.80563600  0.76699700  0.63945400  1
  C  775  1  0.68744900  0.71028300  0.64180300  1
  C  777  1  0.02427400  0.12896900  0.27573700  1
  C  779  1  0.97615900  0.15244300  0.26280200  1
  C  780  1  0.97854000  0.14068500  0.23981600  1
  C  782  1  0.02723800  0.11770300  0.25237500  1
  C  784  1  0.05063000  0.09896300  0.24557700  1
  C  788  1  0.04354200  0.12057200  0.29480700  1
  C  790  1  0.95529400  0.14358700  0.22207700  1
  C  792  1  0.97553700  0.83193500  0.28157800  1
  C  794  1  0.01415400  0.80730500  0.25772900  1
  C  795  1  0.01756700  0.82976500  0.24204800  1
  C  797  1  0.97863300  0.85469400  0.26580200  1
  C  799  1  0.96139700  0.87900100  0.26787200  1
  C  803  1  0.95641800  0.83141900  0.30200100  1
  C  805  1  0.03805200  0.82973100  0.22235300  1
  C  807  1  0.97477800  0.83192300  0.74244400  1
  C  809  1  0.01437500  0.80811000  0.76602800  1
  C  810  1  0.01718000  0.83058900  0.78175200  1
  C  812  1  0.97728300  0.85469600  0.75826500  1
  C  814  1  0.95938300  0.87864100  0.75623400  1
  C  818  1  0.95565300  0.83112100  0.72203700  1
  C  820  1  0.03783100  0.83094800  0.80133100  1
  C  822  1  0.01781900  0.14491000  0.74174300  1
  C  824  1  0.97878000  0.16935000  0.76532900  1
  C  825  1  0.97510800  0.14675900  0.78082700  1
  C  827  1  0.01446600  0.12201900  0.75734000  1
  C  829  1  0.03170000  0.09772800  0.75527500  1
  C  833  1  0.03719000  0.14553700  0.72147500  1
  C  835  1  0.95433100  0.14664300  0.80033000  1
  C  837  1  0.52428200  0.62848100  0.27576100  1
  C  839  1  0.47630500  0.65213300  0.26276300  1
  C  840  1  0.47849900  0.64015600  0.23985300  1
  C  842  1  0.52702800  0.61696300  0.25247900  1
  C  844  1  0.55025300  0.59807900  0.24574900  1
  C  848  1  0.54362800  0.62022800  0.29484200  1
  C  850  1  0.45526700  0.64311900  0.22211300  1
  C  852  1  0.47564000  0.33218300  0.28164600  1
  C  854  1  0.51469300  0.30779100  0.25801000  1
  C  855  1  0.51772100  0.33012400  0.24214800  1
  C  857  1  0.47833700  0.35480900  0.26568600  1
  C  859  1  0.46068900  0.37890300  0.26758000  1
  C  863  1  0.45656200  0.33164700  0.30208900  1
  C  865  1  0.53820800  0.33010800  0.22245500  1
  C  867  1  0.47472800  0.33246400  0.74248300  1
  C  869  1  0.51381300  0.30834900  0.76630200  1
  C  870  1  0.51716800  0.33101600  0.78175800  1
  C  872  1  0.47782000  0.35544200  0.75801600  1
  C  874  1  0.46044800  0.37963900  0.75578400  1
  C  878  1  0.45555800  0.33163500  0.72210100  1
  C  880  1  0.53776000  0.33128900  0.80136500  1
  C  882  1  0.51782800  0.64439200  0.74177500  1
  C  884  1  0.47927700  0.66907000  0.76560600  1
  C  885  1  0.47514400  0.64632200  0.78086300  1
  C  887  1  0.51400500  0.62134100  0.75712700  1
  C  889  1  0.53079200  0.59683500  0.75484300  1
  C  893  1  0.53725700  0.64504500  0.72154300  1
  C  895  1  0.45443000  0.64626800  0.80039600  1
  N  23  1  0.95416600  0.12535200  0.20559800  1
  N  24  1  0.95101400  0.05380200  0.14981600  1
  N  25  1  0.80856900  0.18336100  0.13938700  1
  N  26  1  0.86856400  0.14603300  0.07389500  1
  N  49  1  0.03870900  0.85073500  0.20856200  1
  N  50  1  0.04078800  0.92353300  0.15563300  1
  N  51  1  0.18230700  0.79338900  0.14020500  1
  N  52  1  0.12187000  0.83134800  0.07522100  1
  N  75  1  0.95468100  0.85282000  0.31523900  1
  N  76  1  0.95314500  0.92377400  0.37187200  1
  N  77  1  0.81104000  0.79416600  0.38303600  1
  N  78  1  0.87121000  0.83156400  0.44838700  1
  N  101  1  0.03966000  0.12908600  0.31645700  1
  N  102  1  0.04237300  0.05424200  0.36850200  1
  N  103  1  0.18469500  0.18396200  0.38313700  1
  N  104  1  0.12490400  0.14583600  0.44838200  1
  N  127  1  0.03740900  0.85160600  0.81552400  1
  N  128  1  0.03959700  0.92250300  0.87237200  1
  N  129  1  0.18243800  0.79304400  0.88054500  1
  N  130  1  0.12308100  0.82429400  0.94729600  1
  N  153  1  0.95356100  0.12556600  0.81403000  1
  N  154  1  0.95054700  0.05332000  0.86753000  1
  N  155  1  0.80914600  0.18401900  0.87982300  1
  N  156  1  0.86867100  0.15211900  0.94618600  1
  N  179  1  0.03893200  0.12421800  0.70814500  1
  N  180  1  0.04076200  0.05422400  0.65062800  1
  N  181  1  0.18331300  0.18394100  0.64279100  1
  N  182  1  0.12390700  0.15273700  0.57609100  1
  N  205  1  0.95322000  0.85264900  0.70903200  1
  N  206  1  0.95106500  0.92399500  0.65472200  1
  N  207  1  0.81005700  0.79308300  0.64261300  1
  N  208  1  0.86984300  0.82469400  0.57620400  1
  N  231  1  0.45410800  0.62494000  0.20558800  1
  N  232  1  0.45102800  0.55384900  0.14933200  1
  N  233  1  0.30873300  0.68338300  0.13901100  1
  N  234  1  0.36961700  0.64752700  0.07380200  1
  N  257  1  0.53868600  0.35102300  0.20855400  1
  N  258  1  0.54065000  0.42337800  0.15514300  1
  N  259  1  0.68210100  0.29331600  0.13979500  1
  N  260  1  0.62069300  0.32978400  0.07512100  1
  N  283  1  0.45462900  0.35312200  0.31522300  1
  N  284  1  0.45313800  0.42372500  0.37223200  1
  N  285  1  0.31120700  0.29413700  0.38341000  1
  N  286  1  0.37226300  0.33014000  0.44844600  1
  N  309  1  0.53963500  0.62882500  0.31645500  1
  N  310  1  0.54225400  0.55436900  0.36893300  1
  N  311  1  0.68449200  0.68403100  0.38355300  1
  N  312  1  0.62376500  0.64735000  0.44849400  1
  N  335  1  0.53749500  0.35199200  0.81550800  1
  N  336  1  0.53959400  0.42244300  0.87280500  1
  N  337  1  0.68225400  0.29304900  0.88083500  1
  N  338  1  0.62117100  0.32232300  0.94724600  1
  N  361  1  0.45352300  0.62514700  0.81403900  1
  N  362  1  0.45057600  0.55334300  0.86800200  1
  N  363  1  0.30935900  0.68398300  0.88006900  1
  N  364  1  0.37055600  0.65403800  0.94613200  1
  N  387  1  0.53886100  0.62383200  0.70807300  1
  N  388  1  0.54071800  0.55430000  0.65012700  1
  N  389  1  0.68307800  0.68397400  0.64258300  1
  N  390  1  0.62211800  0.65469300  0.57616100  1
  N  413  1  0.45333300  0.35304000  0.70892300  1
  N  414  1  0.45112000  0.42394700  0.65417500  1
  N  415  1  0.31029000  0.29307000  0.64238400  1
  N  416  1  0.37152500  0.32285300  0.57624000  1
  N  418  1  0.88518700  0.16664500  0.99259400  1
  N  421  1  0.86875000  0.13031700  0.02654900  1
  N  433  1  0.10731900  0.80989300  0.99376400  1
  N  436  1  0.12100200  0.84697400  0.02778700  1
  N  448  1  0.88717600  0.81076300  0.52977100  1
  N  451  1  0.87021000  0.84700500  0.49585900  1
  N  463  1  0.10813600  0.16701300  0.52957900  1
  N  466  1  0.12383000  0.13028200  0.49575000  1
  N  478  1  0.38808900  0.66767300  0.99260800  1
  N  481  1  0.36984600  0.63193300  0.02652200  1
  N  493  1  0.60420700  0.30880000  0.99377400  1
  N  496  1  0.61999600  0.34532000  0.02775000  1
  N  508  1  0.38989900  0.30982700  0.52976000  1
  N  511  1  0.37134700  0.34547900  0.49583300  1
  N  523  1  0.60524900  0.66806600  0.52958500  1
  N  526  1  0.62256400  0.63184600  0.49577400  1
  N  538  1  0.99566400  0.96419000  0.16212400  1
  N  541  1  0.99559400  0.01046100  0.13624400  1
  N  553  1  0.99717200  0.01380500  0.36135000  1
  N  556  1  0.99748000  0.96673900  0.38609500  1
  N  568  1  0.99554100  0.01255100  0.86084300  1
  N  571  1  0.99536300  0.96606900  0.88642500  1
  N  583  1  0.99692100  0.96407900  0.66120900  1
  N  586  1  0.99654800  0.01103600  0.63630200  1
  N  598  1  0.49538400  0.46403900  0.16146900  1
  N  601  1  0.49566800  0.51041900  0.13574800  1
  N  613  1  0.49695700  0.51390500  0.36187600  1
  N  616  1  0.49750900  0.46676300  0.38649600  1
  N  628  1  0.49576300  0.51264500  0.86148900  1
  N  631  1  0.49528500  0.46603100  0.88687100  1
  N  643  1  0.49717300  0.46397700  0.66051500  1
  N  646  1  0.49647500  0.51106400  0.63579100  1
  N  658  1  0.74655400  0.21126900  0.14170400  1
  N  661  1  0.74447200  0.26622600  0.13942600  1
  N  673  1  0.24439900  0.76546700  0.14183300  1
  N  676  1  0.24638700  0.71052300  0.13929200  1
  N  688  1  0.74876400  0.76621900  0.38143500  1
  N  691  1  0.74695700  0.71124400  0.38345500  1
  N  703  1  0.24686700  0.21196700  0.38129800  1
  N  706  1  0.24868600  0.26692200  0.38358600  1
  N  718  1  0.24403000  0.76537500  0.87701600  1
  N  721  1  0.24688400  0.71046700  0.87934500  1
  N  733  1  0.74758300  0.21170700  0.87680500  1
  N  736  1  0.74473700  0.26659400  0.87960100  1
  N  748  1  0.24500100  0.21166900  0.64605300  1
  N  751  1  0.24776500  0.26654700  0.64325400  1
  N  763  1  0.74836700  0.76539100  0.64602800  1
  N  766  1  0.74560900  0.71049700  0.64332400  1
  N  778  1  0.99850000  0.14578200  0.27968400  1
  N  781  1  0.00418100  0.12385700  0.23598400  1
  N  793  1  0.99360100  0.80931800  0.27660100  1
  N  796  1  0.99932700  0.85223900  0.24705000  1
  N  808  1  0.99361000  0.80971600  0.74724900  1
  N  811  1  0.99821500  0.85266800  0.77691200  1
  N  823  1  0.99965400  0.16748400  0.74664800  1
  N  826  1  0.99343600  0.12432400  0.77588800  1
  N  838  1  0.49865400  0.64548100  0.27964100  1
  N  841  1  0.50397800  0.62313400  0.23608800  1
  N  853  1  0.49410900  0.30974900  0.27686400  1
  N  856  1  0.49908600  0.35241800  0.24696000  1
  N  868  1  0.49304700  0.31002000  0.74752800  1
  N  871  1  0.49871800  0.35333600  0.77667600  1
  N  883  1  0.50012600  0.66716100  0.74691400  1
  N  886  1  0.49302700  0.62369600  0.77570100  1
  O  8  1  0.81797000  0.17795800  0.09093000  1
  O  15  1  0.97660900  0.07824500  0.18957000  1
  O  17  1  0.84679500  0.15218800  0.17083100  1
  O  18  1  0.89933600  0.07810600  0.12625100  1
  O  34  1  0.17268800  0.79950400  0.09188000  1
  O  41  1  0.01865700  0.89971000  0.19469500  1
  O  43  1  0.14417300  0.82401000  0.17208400  1
  O  44  1  0.09187600  0.89879200  0.12875400  1
  O  60  1  0.82058400  0.79979700  0.43144100  1
  O  67  1  0.97681500  0.90044100  0.33108800  1
  O  69  1  0.84923900  0.82525500  0.35147900  1
  O  70  1  0.90243700  0.89918000  0.39611300  1
  O  86  1  0.17546500  0.17783100  0.43157500  1
  O  93  1  0.01767200  0.07958000  0.33093600  1
  O  95  1  0.14602200  0.15346200  0.35143300  1
  O  96  1  0.09478100  0.07827100  0.39455300  1
  O  112  1  0.17155600  0.79482200  0.92892300  1
  O  119  1  0.01494400  0.89883300  0.83182200  1
  O  121  1  0.14472100  0.82598200  0.85007600  1
  O  122  1  0.09049200  0.89742800  0.89639300  1
  O  138  1  0.82027200  0.18179200  0.92811300  1
  O  145  1  0.97324100  0.07663900  0.82843600  1
  O  147  1  0.84681200  0.15142600  0.84898600  1
  O  148  1  0.89980900  0.07897600  0.89431100  1
  O  164  1  0.17242400  0.18205400  0.59445200  1
  O  171  1  0.01676600  0.07693500  0.69151400  1
  O  173  1  0.14550900  0.15097300  0.67329800  1
  O  174  1  0.09132900  0.07967300  0.62655100  1
  O  190  1  0.82134700  0.79507900  0.59427100  1
  O  197  1  0.97286900  0.90139800  0.69442900  1
  O  199  1  0.84759900  0.82586400  0.67335000  1
  O  200  1  0.90077000  0.89799200  0.62773400  1
  O  216  1  0.31967800  0.67999800  0.09099800  1
  O  223  1  0.47642300  0.57788800  0.18935000  1
  O  225  1  0.34657900  0.65175300  0.17054200  1
  O  226  1  0.39974100  0.57868000  0.12561700  1
  O  242  1  0.67084500  0.29736100  0.09189600  1
  O  249  1  0.51873100  0.39994200  0.19443900  1
  O  251  1  0.64437900  0.32440200  0.17179000  1
  O  252  1  0.59134000  0.39815600  0.12812200  1
  O  268  1  0.32230100  0.29779700  0.43137300  1
  O  275  1  0.47656500  0.40076700  0.33119400  1
  O  277  1  0.34901500  0.32566400  0.35174100  1
  O  278  1  0.40284900  0.39863100  0.39663900  1
  O  294  1  0.67368800  0.67988700  0.43156300  1
  O  301  1  0.51777700  0.57934100  0.33111000  1
  O  303  1  0.64621500  0.65308300  0.35171400  1
  O  304  1  0.59426200  0.57887100  0.39516700  1
  O  320  1  0.66958600  0.29242700  0.92858300  1
  O  327  1  0.51517500  0.39919000  0.83198700  1
  O  329  1  0.64511600  0.32662200  0.85041200  1
  O  330  1  0.59004800  0.39681100  0.89700100  1
  O  346  1  0.32226100  0.68416800  0.92775900  1
  O  353  1  0.47304700  0.57624200  0.82865600  1
  O  355  1  0.34642300  0.65073400  0.84929000  1
  O  356  1  0.40026900  0.57952400  0.89493100  1
  O  372  1  0.67045800  0.68451900  0.59486000  1
  O  379  1  0.51686900  0.57659900  0.69121700  1
  O  381  1  0.64585000  0.65033800  0.67300400  1
  O  382  1  0.59090800  0.58029800  0.62593400  1
  O  398  1  0.32321600  0.29273400  0.59465600  1
  O  405  1  0.47280900  0.40174600  0.69407900  1
  O  407  1  0.34729600  0.32648100  0.67304900  1
  O  408  1  0.40120700  0.39743500  0.62709900  1
  O  425  1  0.87123200  0.07659300  0.01206600  1
  O  426  1  0.83481900  0.08924300  0.98917300  1
  O  440  1  0.11630800  0.90045800  0.01293500  1
  O  441  1  0.15401200  0.88900700  0.99074000  1
  O  455  1  0.87081200  0.90054300  0.51048900  1
  O  456  1  0.83467000  0.88732600  0.53315900  1
  O  470  1  0.12076300  0.07663400  0.51030400  1
  O  471  1  0.15690600  0.08874800  0.53339100  1
  O  485  1  0.36855600  0.57823000  0.01204500  1
  O  486  1  0.33343700  0.59231500  0.98892700  1
  O  500  1  0.61945100  0.39891100  0.01292100  1
  O  501  1  0.65582200  0.38573500  0.99048300  1
  O  515  1  0.36828700  0.39904000  0.51057600  1
  O  516  1  0.33319000  0.38410600  0.53326400  1
  O  530  1  0.62230100  0.57824900  0.51072100  1
  O  531  1  0.65871300  0.59204200  0.53309800  1
  O  545  1  0.05287800  0.01669100  0.11148600  1
  O  546  1  0.03231200  0.98550300  0.09144100  1
  O  560  1  0.05517700  0.95943700  0.41009500  1
  O  561  1  0.03544300  0.99029100  0.43099700  1
  O  575  1  0.93815800  0.95992600  0.91111300  1
  O  576  1  0.95894100  0.99051500  0.93152800  1
  O  590  1  0.93905100  0.01834200  0.61206500  1
  O  591  1  0.95814400  0.98710800  0.59156100  1
  O  605  1  0.55276100  0.51685700  0.11089700  1
  O  606  1  0.53321700  0.48522700  0.09110900  1
  O  620  1  0.55493600  0.45926800  0.41069900  1
  O  621  1  0.53614700  0.49058100  0.43128200  1
  O  635  1  0.43827900  0.45953700  0.91178000  1
  O  636  1  0.45783900  0.49105800  0.93168900  1
  O  650  1  0.43821900  0.51811000  0.61236000  1
  O  651  1  0.45829300  0.48778000  0.59106600  1
  O  665  1  0.80545400  0.28746200  0.15095000  1
  O  666  1  0.80719000  0.27516300  0.11462200  1
  O  680  1  0.18557400  0.68926200  0.15119900  1
  O  681  1  0.18324000  0.70180500  0.11495200  1
  O  695  1  0.80804700  0.69061400  0.37086300  1
  O  696  1  0.81072200  0.70207100  0.40735100  1
  O  710  1  0.18753300  0.28828500  0.37213900  1
  O  711  1  0.18460500  0.27496200  0.40808900  1
  O  725  1  0.18627100  0.68813100  0.86805900  1
  O  726  1  0.18315700  0.70156300  0.90396300  1
  O  740  1  0.80517400  0.28912100  0.86820400  1
  O  741  1  0.80885000  0.27515400  0.90392700  1
  O  755  1  0.18720800  0.28909100  0.65435400  1
  O  756  1  0.18390700  0.27507300  0.61862900  1
  O  770  1  0.80616600  0.68836900  0.65464000  1
  O  771  1  0.80829600  0.70129900  0.61848900  1
  O  785  1  0.06889400  0.10630900  0.22969200  1
  O  786  1  0.04437800  0.07419800  0.24568100  1
  O  800  1  0.93216000  0.87744200  0.26558800  1
  O  801  1  0.97318100  0.90150000  0.26269100  1
  O  815  1  0.93035200  0.87631800  0.75937900  1
  O  816  1  0.97038600  0.90138900  0.76146100  1
  O  830  1  0.06095000  0.09915300  0.75759600  1
  O  831  1  0.02008900  0.07516100  0.76045600  1
  O  845  1  0.56782700  0.60451600  0.22914100  1
  O  846  1  0.54450600  0.57325200  0.24686700  1
  O  860  1  0.43143200  0.37703800  0.26557000  1
  O  861  1  0.47176700  0.40150900  0.26191000  1
  O  875  1  0.43123300  0.37813500  0.75826800  1
  O  876  1  0.47201800  0.40231400  0.76063700  1
  O  890  1  0.56000600  0.59790900  0.75748500  1
  O  891  1  0.51844000  0.57439600  0.75945800  1
