# generated using pymatgen
data_SiH24C34(N2O)2
_symmetry_space_group_name_H-M   'P 1'
_cell_length_a   47.19560000
_cell_length_b   64.98220000
_cell_length_c   64.98220000
_cell_angle_alpha   90.00000000
_cell_angle_beta   90.00000000
_cell_angle_gamma   90.00000000
_symmetry_Int_Tables_number   1
_chemical_formula_structural   SiH24C34(N2O)2
_chemical_formula_sum   'Si32 H768 C1088 N128 O64'
_cell_volume   199292.21433505
_cell_formula_units_Z   32
loop_
 _symmetry_equiv_pos_site_id
 _symmetry_equiv_pos_as_xyz
  1  'x, y, z'
loop_
 _atom_site_type_symbol
 _atom_site_label
 _atom_site_symmetry_multiplicity
 _atom_site_fract_x
 _atom_site_fract_y
 _atom_site_fract_z
 _atom_site_occupancy
  Si  7  1  0.13208300  0.10871600  0.27573300  1
  Si  48  1  0.13191500  0.88830100  0.74612900  1
  Si  89  1  0.13197300  0.73377200  0.12121100  1
  Si  130  1  0.13203200  0.26331400  0.90079500  1
  Si  171  1  0.83185700  0.88836500  0.27569600  1
  Si  212  1  0.83198400  0.10869500  0.74610900  1
  Si  253  1  0.83195600  0.26333500  0.12118400  1
  Si  294  1  0.83191800  0.73369400  0.90079600  1
  Si  335  1  0.82443200  0.88555500  0.74604600  1
  Si  376  1  0.82437300  0.11144300  0.27586800  1
  Si  417  1  0.82452500  0.26334000  0.89801700  1
  Si  458  1  0.82432400  0.73354900  0.12389000  1
  Si  499  1  0.13951200  0.11144500  0.74606000  1
  Si  540  1  0.13959700  0.88564900  0.27591300  1
  Si  581  1  0.13943300  0.73363400  0.89806600  1
  Si  622  1  0.13968500  0.26348000  0.12386000  1
  Si  663  1  0.63287000  0.61422700  0.77611600  1
  Si  704  1  0.63264100  0.38273400  0.24557200  1
  Si  745  1  0.63285100  0.23331600  0.62666400  1
  Si  786  1  0.63275800  0.76375400  0.39514100  1
  Si  827  1  0.33101600  0.38282500  0.77605300  1
  Si  868  1  0.33123200  0.61430600  0.24564600  1
  Si  909  1  0.33114300  0.76376800  0.62665800  1
  Si  950  1  0.33120900  0.23327600  0.39519000  1
  Si  991  1  0.33128100  0.38917900  0.24895000  1
  Si  1032  1  0.33131500  0.60795900  0.77310000  1
  Si  1073  1  0.33128500  0.76052900  0.40152600  1
  Si  1114  1  0.33134200  0.23638900  0.62033800  1
  Si  1155  1  0.63265800  0.60786800  0.24895600  1
  Si  1196  1  0.63262200  0.38908500  0.77313700  1
  Si  1237  1  0.63264100  0.23648200  0.40153600  1
  Si  1278  1  0.63264300  0.76064300  0.62027200  1
  H  26  1  0.14174500  0.04447800  0.30963300  1
  H  27  1  0.13281900  0.08021400  0.30820600  1
  H  28  1  0.15775900  0.04379300  0.24564300  1
  H  29  1  0.14910600  0.07965500  0.24405300  1
  H  30  1  0.08677100  0.09121700  0.25395600  1
  H  31  1  0.03722500  0.09138100  0.25898000  1
  H  32  1  0.04764200  0.12270000  0.31540000  1
  H  33  1  0.09768000  0.12239300  0.31066800  1
  H  34  1  0.12707100  0.14967700  0.29060100  1
  H  35  1  0.15553800  0.16955700  0.31291000  1
  H  36  1  0.21292200  0.11987000  0.31846000  1
  H  37  1  0.18433800  0.09993100  0.29684100  1
  H  38  1  0.18253500  0.11364500  0.25228000  1
  H  39  1  0.09692000  0.13282100  0.24841100  1
  H  40  1  0.10666700  0.14960600  0.21721300  1
  H  41  1  0.19238300  0.13154500  0.22104100  1
  H  67  1  0.14153600  0.95255500  0.71224000  1
  H  68  1  0.13269400  0.91680400  0.71365100  1
  H  69  1  0.15726600  0.95326600  0.77626700  1
  H  70  1  0.14868600  0.91739900  0.77784300  1
  H  71  1  0.08638700  0.90566100  0.76778300  1
  H  72  1  0.03686100  0.90532100  0.76262500  1
  H  73  1  0.04778100  0.87410100  0.70619800  1
  H  74  1  0.09779200  0.87456300  0.71107700  1
  H  75  1  0.12711400  0.84731400  0.73132700  1
  H  76  1  0.15569300  0.82745800  0.70908500  1
  H  77  1  0.21292200  0.87724100  0.70353000  1
  H  78  1  0.18420700  0.89716200  0.72508400  1
  H  79  1  0.18228100  0.88348700  0.76969700  1
  H  80  1  0.09673400  0.86412800  0.77338100  1
  H  81  1  0.10641700  0.84737700  0.80460900  1
  H  82  1  0.19206900  0.86562400  0.80096400  1
  H  108  1  0.14147000  0.69989500  0.05694500  1
  H  109  1  0.13264800  0.70130600  0.09269500  1
  H  110  1  0.15743500  0.76389300  0.05626000  1
  H  111  1  0.14888700  0.76546500  0.09213200  1
  H  112  1  0.08657600  0.75552900  0.10379400  1
  H  113  1  0.03704000  0.75046000  0.10401700  1
  H  114  1  0.04763300  0.69401700  0.13526600  1
  H  115  1  0.09766000  0.69879800  0.13490600  1
  H  116  1  0.12708000  0.71891100  0.16217700  1
  H  117  1  0.15558200  0.69659400  0.18201600  1
  H  118  1  0.21282900  0.69102200  0.13224600  1
  H  119  1  0.18419800  0.71264800  0.11234700  1
  H  120  1  0.18243300  0.75722900  0.12606600  1
  H  121  1  0.09687800  0.76108900  0.14537600  1
  H  122  1  0.10665700  0.79230500  0.16211800  1
  H  123  1  0.19232100  0.78848400  0.14393000  1
  H  149  1  0.14182700  0.29726500  0.96500300  1
  H  150  1  0.13287000  0.29581700  0.92926900  1
  H  151  1  0.15755100  0.23323900  0.96575700  1
  H  152  1  0.14885300  0.23162500  0.92990800  1
  H  153  1  0.08652600  0.24167600  0.91821400  1
  H  154  1  0.03699900  0.24681700  0.91787200  1
  H  155  1  0.04787300  0.30321200  0.88659100  1
  H  156  1  0.09788600  0.29835100  0.88705000  1
  H  157  1  0.12715800  0.27808900  0.85979600  1
  H  158  1  0.15572200  0.30030500  0.83989500  1
  H  159  1  0.21305800  0.30585300  0.88961300  1
  H  160  1  0.18436100  0.28432700  0.90957700  1
  H  161  1  0.18238700  0.23973700  0.89595200  1
  H  162  1  0.09680600  0.23605200  0.87667100  1
  H  163  1  0.10646000  0.20482700  0.85991100  1
  H  164  1  0.19214200  0.20846800  0.87808100  1
  H  190  1  0.82216700  0.95259200  0.30960800  1
  H  191  1  0.83110600  0.91685800  0.30817200  1
  H  192  1  0.80617200  0.95329700  0.24562000  1
  H  193  1  0.81483400  0.91743500  0.24401800  1
  H  194  1  0.87715100  0.90589800  0.25392200  1
  H  195  1  0.92669200  0.90576100  0.25894300  1
  H  196  1  0.91631800  0.87439700  0.31534300  1
  H  197  1  0.86628300  0.87467900  0.31061600  1
  H  198  1  0.83688000  0.84739600  0.29056100  1
  H  199  1  0.80840900  0.82750700  0.31286400  1
  H  200  1  0.75101000  0.87718500  0.31840400  1
  H  201  1  0.77959300  0.89712600  0.29679200  1
  H  202  1  0.78140900  0.88341900  0.25223400  1
  H  203  1  0.86703800  0.86427900  0.24837600  1
  H  204  1  0.85732100  0.84750600  0.21716900  1
  H  205  1  0.77159000  0.86553000  0.22098200  1
  H  231  1  0.82239800  0.04443500  0.71223400  1
  H  232  1  0.83121400  0.08018900  0.71363700  1
  H  233  1  0.80665300  0.04372800  0.77625600  1
  H  234  1  0.81520900  0.07960300  0.77782700  1
  H  235  1  0.87747300  0.09132900  0.76781100  1
  H  236  1  0.92700100  0.09165100  0.76269100  1
  H  237  1  0.91618400  0.12284800  0.70624200  1
  H  238  1  0.86616900  0.12240200  0.71107800  1
  H  239  1  0.83684000  0.14967900  0.73129500  1
  H  240  1  0.80829300  0.16954000  0.70903300  1
  H  241  1  0.75102100  0.11978400  0.70348200  1
  H  242  1  0.77970300  0.09985800  0.72505300  1
  H  243  1  0.78158900  0.11350500  0.76964500  1
  H  244  1  0.86712700  0.13288700  0.77336800  1
  H  245  1  0.85740500  0.14963400  0.80459500  1
  H  246  1  0.77176800  0.13136100  0.80091400  1
  H  272  1  0.82251000  0.29713400  0.05687900  1
  H  273  1  0.83130600  0.29576400  0.09263300  1
  H  274  1  0.80648100  0.23314600  0.05626600  1
  H  275  1  0.81499900  0.23161300  0.09214900  1
  H  276  1  0.87725900  0.24149900  0.10374400  1
  H  277  1  0.92681000  0.24650300  0.10390000  1
  H  278  1  0.91643000  0.30298300  0.13512200  1
  H  279  1  0.86639100  0.29827100  0.13481800  1
  H  280  1  0.83693700  0.27827200  0.16212600  1
  H  281  1  0.80847500  0.30063500  0.18195000  1
  H  282  1  0.75117500  0.30615300  0.13220600  1
  H  283  1  0.77976100  0.28448000  0.11232400  1
  H  284  1  0.78146800  0.23991200  0.12607700  1
  H  285  1  0.86702900  0.23604000  0.14538400  1
  H  286  1  0.85722300  0.20484400  0.16216600  1
  H  287  1  0.77156100  0.20867700  0.14397400  1
  H  313  1  0.82220300  0.69978300  0.96502800  1
  H  314  1  0.83110200  0.70120900  0.92928600  1
  H  315  1  0.80647500  0.76381000  0.96575900  1
  H  316  1  0.81511600  0.76540200  0.92989500  1
  H  317  1  0.87741400  0.75537200  0.91817700  1
  H  318  1  0.92693900  0.75023100  0.91786900  1
  H  319  1  0.91609900  0.69378900  0.88666600  1
  H  320  1  0.86608000  0.69864700  0.88709400  1
  H  321  1  0.83680000  0.71887900  0.85981900  1
  H  322  1  0.80824000  0.69664200  0.83993700  1
  H  323  1  0.75090800  0.69112000  0.88966100  1
  H  324  1  0.77960000  0.71266800  0.90961000  1
  H  325  1  0.78155500  0.75726500  0.89597400  1
  H  326  1  0.86711600  0.76094000  0.87663100  1
  H  327  1  0.85743900  0.79216200  0.85986700  1
  H  328  1  0.77177700  0.78852900  0.87810300  1
  H  354  1  0.81387200  0.95028900  0.71310200  1
  H  355  1  0.82152300  0.91432900  0.71373400  1
  H  356  1  0.80318900  0.95036200  0.77763000  1
  H  357  1  0.80998400  0.91440500  0.77838900  1
  H  358  1  0.86997000  0.90401700  0.76679800  1
  H  359  1  0.91926500  0.90481900  0.76072600  1
  H  360  1  0.90795300  0.87171500  0.70542300  1
  H  361  1  0.85815600  0.87119900  0.71109500  1
  H  362  1  0.82902600  0.84378200  0.73416100  1
  H  363  1  0.80086800  0.82254700  0.71255700  1
  H  364  1  0.74626000  0.87266100  0.70068800  1
  H  365  1  0.77363300  0.89375800  0.72246600  1
  H  366  1  0.77518800  0.88095300  0.77084100  1
  H  367  1  0.86087400  0.86158400  0.77250100  1
  H  368  1  0.85248100  0.84459000  0.80382100  1
  H  369  1  0.76688900  0.86340900  0.80249300  1
  H  395  1  0.81373800  0.04670800  0.30879900  1
  H  396  1  0.82154400  0.08264500  0.30816500  1
  H  397  1  0.80260800  0.04670500  0.24431200  1
  H  398  1  0.80953900  0.08264500  0.24355500  1
  H  399  1  0.86970500  0.09279000  0.25504800  1
  H  400  1  0.91901900  0.09184200  0.26099500  1
  H  401  1  0.90818300  0.12518900  0.31620200  1
  H  402  1  0.85837200  0.12582100  0.31067400  1
  H  403  1  0.82912700  0.15321700  0.28774200  1
  H  404  1  0.80109900  0.17450000  0.30938600  1
  H  405  1  0.74643100  0.12445400  0.32140200  1
  H  406  1  0.77368000  0.10331400  0.29959500  1
  H  407  1  0.77500200  0.11622600  0.25123800  1
  H  408  1  0.86081000  0.13527400  0.24927900  1
  H  409  1  0.85233700  0.15229200  0.21798900  1
  H  410  1  0.76662000  0.13380400  0.21961700  1
  H  436  1  0.81409200  0.29623200  0.96279000  1
  H  437  1  0.82174500  0.29562100  0.92683600  1
  H  438  1  0.80321400  0.23172200  0.96280700  1
  H  439  1  0.81001100  0.23098500  0.92685400  1
  H  440  1  0.87008000  0.24257700  0.91645000  1
  H  441  1  0.91937700  0.24864100  0.91722700  1
  H  442  1  0.90805000  0.30394500  0.88412700  1
  H  443  1  0.85825300  0.29828000  0.88363500  1
  H  444  1  0.82901300  0.27522300  0.85623700  1
  H  445  1  0.80080300  0.29682300  0.83503500  1
  H  446  1  0.74637400  0.30875700  0.88523700  1
  H  447  1  0.77379400  0.28697900  0.90630000  1
  H  448  1  0.77524100  0.23858400  0.89342200  1
  H  449  1  0.86090200  0.23687000  0.87400800  1
  H  450  1  0.85245800  0.20555600  0.85701800  1
  H  451  1  0.76688700  0.20693800  0.87588200  1
  H  477  1  0.81363700  0.70060200  0.05917100  1
  H  478  1  0.82140200  0.70124000  0.09511000  1
  H  479  1  0.80275400  0.76511000  0.05913100  1
  H  480  1  0.80964000  0.76587000  0.09507000  1
  H  481  1  0.86969700  0.75434400  0.10525200  1
  H  482  1  0.91900900  0.74838700  0.10436200  1
  H  483  1  0.90807300  0.69315500  0.13765400  1
  H  484  1  0.85826100  0.69869900  0.13824100  1
  H  485  1  0.82910200  0.72167000  0.16566400  1
  H  486  1  0.80109100  0.70001400  0.18694700  1
  H  487  1  0.74634900  0.68806000  0.13693000  1
  H  488  1  0.77357800  0.70988100  0.11578900  1
  H  489  1  0.77501700  0.75825700  0.12864600  1
  H  490  1  0.86081300  0.76007600  0.14774200  1
  H  491  1  0.85242200  0.79139000  0.16474500  1
  H  492  1  0.76671700  0.78990000  0.14621100  1
  H  518  1  0.15005200  0.04671200  0.71312300  1
  H  519  1  0.14238800  0.08266500  0.71375900  1
  H  520  1  0.16075800  0.04663000  0.77764400  1
  H  521  1  0.15395900  0.08258700  0.77840900  1
  H  522  1  0.09399400  0.09295500  0.76681500  1
  H  523  1  0.04469600  0.09215900  0.76077000  1
  H  524  1  0.05595400  0.12531100  0.70548700  1
  H  525  1  0.10575300  0.12581900  0.71113100  1
  H  526  1  0.13493200  0.15322900  0.73418800  1
  H  527  1  0.16309300  0.17446300  0.71258600  1
  H  528  1  0.21764900  0.12433300  0.70066800  1
  H  529  1  0.19028000  0.10323900  0.72244800  1
  H  530  1  0.18876300  0.11605500  0.77085500  1
  H  531  1  0.10307800  0.13542300  0.77251000  1
  H  532  1  0.11145800  0.15240000  0.80383800  1
  H  533  1  0.19705000  0.13358200  0.80251700  1
  H  559  1  0.15025200  0.95038500  0.30880900  1
  H  560  1  0.14246400  0.91444900  0.30819100  1
  H  561  1  0.16135200  0.95037600  0.24432200  1
  H  562  1  0.15443400  0.91442300  0.24357900  1
  H  563  1  0.09432000  0.90437100  0.25508700  1
  H  564  1  0.04500100  0.90535300  0.26100100  1
  H  565  1  0.05572100  0.87196100  0.31619300  1
  H  566  1  0.10553800  0.87130100  0.31070200  1
  H  567  1  0.13475700  0.84388100  0.28780400  1
  H  568  1  0.16275200  0.82257700  0.30945400  1
  H  569  1  0.21751400  0.87257500  0.32144100  1
  H  570  1  0.19030700  0.89373000  0.29962700  1
  H  571  1  0.18894600  0.88082200  0.25126900  1
  H  572  1  0.10311200  0.86182100  0.24935600  1
  H  573  1  0.11153900  0.84479600  0.21806000  1
  H  574  1  0.19727500  0.86324300  0.21964000  1
  H  600  1  0.14996700  0.70074900  0.96282400  1
  H  601  1  0.14229200  0.70136000  0.92687400  1
  H  602  1  0.16075600  0.76526800  0.96284700  1
  H  603  1  0.15393200  0.76600400  0.92689000  1
  H  604  1  0.09390700  0.75439600  0.91653200  1
  H  605  1  0.04460600  0.74834200  0.91732700  1
  H  606  1  0.05589200  0.69303300  0.88422900  1
  H  607  1  0.10569000  0.69868900  0.88371800  1
  H  608  1  0.13485800  0.72173500  0.85629200  1
  H  609  1  0.16305900  0.70015800  0.83506000  1
  H  610  1  0.21762000  0.68828400  0.88520000  1
  H  611  1  0.19020800  0.71003600  0.90629000  1
  H  612  1  0.18867700  0.75842500  0.89344100  1
  H  613  1  0.10298700  0.76006900  0.87407500  1
  H  614  1  0.11138000  0.79137300  0.85705100  1
  H  615  1  0.19697300  0.79006300  0.87587100  1
  H  641  1  0.15038100  0.29644300  0.05916100  1
  H  642  1  0.14261300  0.29579000  0.09509900  1
  H  643  1  0.16133900  0.23193600  0.05910100  1
  H  644  1  0.15445400  0.23116500  0.09505200  1
  H  645  1  0.09437600  0.24265100  0.10518400  1
  H  646  1  0.04506500  0.24858700  0.10421700  1
  H  647  1  0.05585000  0.30380800  0.13754600  1
  H  648  1  0.10566700  0.29829400  0.13819900  1
  H  649  1  0.13482700  0.27536200  0.16562500  1
  H  650  1  0.16280600  0.29701100  0.18693900  1
  H  651  1  0.21762600  0.30898200  0.13697000  1
  H  652  1  0.19042700  0.28716800  0.11579900  1
  H  653  1  0.18901100  0.23880400  0.12864500  1
  H  654  1  0.10319000  0.23693000  0.14768400  1
  H  655  1  0.11160600  0.20563500  0.16471400  1
  H  656  1  0.19733100  0.20717500  0.14622700  1
  H  682  1  0.66164400  0.54806400  0.80161100  1
  H  683  1  0.66078300  0.58451000  0.80233300  1
  H  684  1  0.60831900  0.54810900  0.74943000  1
  H  685  1  0.60659800  0.58476400  0.75026000  1
  H  686  1  0.58603700  0.63401700  0.75505800  1
  H  687  1  0.53778500  0.63720700  0.76365000  1
  H  688  1  0.55205700  0.60546300  0.81934800  1
  H  689  1  0.60098100  0.60267600  0.81118400  1
  H  690  1  0.62718300  0.64075400  0.81182400  1
  H  691  1  0.66176900  0.65654000  0.83297600  1
  H  692  1  0.72689600  0.62877600  0.79812200  1
  H  693  1  0.69247500  0.61243300  0.77705300  1
  H  694  1  0.65437400  0.59876600  0.73681900  1
  H  695  1  0.63455000  0.65595700  0.76471300  1
  H  696  1  0.64707900  0.67308600  0.73390000  1
  H  697  1  0.66540700  0.61609100  0.70567800  1
  H  723  1  0.66132600  0.44901100  0.22030500  1
  H  724  1  0.66060300  0.41256700  0.21950200  1
  H  725  1  0.60756900  0.44875700  0.27225200  1
  H  726  1  0.60602000  0.41209800  0.27135600  1
  H  727  1  0.58587000  0.36275600  0.26652500  1
  H  728  1  0.53764500  0.35950900  0.25790600  1
  H  729  1  0.55187300  0.39140100  0.20228500  1
  H  730  1  0.60077600  0.39424500  0.21048100  1
  H  731  1  0.62723600  0.35628200  0.20978500  1
  H  732  1  0.66198300  0.34063300  0.18867300  1
  H  733  1  0.72683200  0.36846100  0.22374800  1
  H  734  1  0.69224600  0.38466700  0.24477600  1
  H  735  1  0.65388900  0.39825400  0.28491700  1
  H  736  1  0.63455000  0.34100400  0.25696300  1
  H  737  1  0.64712300  0.32390600  0.28778200  1
  H  738  1  0.66498100  0.38095200  0.31605800  1
  H  764  1  0.66172800  0.20792300  0.56047700  1
  H  765  1  0.66087900  0.20717700  0.59692200  1
  H  766  1  0.60810100  0.25994100  0.56055800  1
  H  767  1  0.60642300  0.25910000  0.59721500  1
  H  768  1  0.58604400  0.25435400  0.64651100  1
  H  769  1  0.53780600  0.24576100  0.64973800  1
  H  770  1  0.55204000  0.19006600  0.61796800  1
  H  771  1  0.60095000  0.19824400  0.61513700  1
  H  772  1  0.62721000  0.19758300  0.65316900  1
  H  773  1  0.66181700  0.17643600  0.66893000  1
  H  774  1  0.72690200  0.21134100  0.64118100  1
  H  775  1  0.69245800  0.23240800  0.62486700  1
  H  776  1  0.65421100  0.27264100  0.61116600  1
  H  777  1  0.63461800  0.24472400  0.66839000  1
  H  778  1  0.64714000  0.27555100  0.68550000  1
  H  779  1  0.66523300  0.30379400  0.62847600  1
  H  805  1  0.66152500  0.78919400  0.46133300  1
  H  806  1  0.66070500  0.78992900  0.42488700  1
  H  807  1  0.60796700  0.73713800  0.46124400  1
  H  808  1  0.60631000  0.73797200  0.42458600  1
  H  809  1  0.58596700  0.74269900  0.37528500  1
  H  810  1  0.53772100  0.75128600  0.37205100  1
  H  811  1  0.55194100  0.80700000  0.40378000  1
  H  812  1  0.60085600  0.79883900  0.40661200  1
  H  813  1  0.62721900  0.79947300  0.36860600  1
  H  814  1  0.66190000  0.82058400  0.35286600  1
  H  815  1  0.72687000  0.78563400  0.38069800  1
  H  816  1  0.69236100  0.76461000  0.39699400  1
  H  817  1  0.65416400  0.72447000  0.41069900  1
  H  818  1  0.63456700  0.75229300  0.35343100  1
  H  819  1  0.64718900  0.72146400  0.33636600  1
  H  820  1  0.66529700  0.69331300  0.39343400  1
  H  846  1  0.30208300  0.44892600  0.80161800  1
  H  847  1  0.30303200  0.41248100  0.80230000  1
  H  848  1  0.35544400  0.44900600  0.74945800  1
  H  849  1  0.35724500  0.41235300  0.75024300  1
  H  850  1  0.37786500  0.36310700  0.75493600  1
  H  851  1  0.42611800  0.35991100  0.76351600  1
  H  852  1  0.41184300  0.39153800  0.81928000  1
  H  853  1  0.36292300  0.39433700  0.81112300  1
  H  854  1  0.33676800  0.35626100  0.81173400  1
  H  855  1  0.30221600  0.34042000  0.83287900  1
  H  856  1  0.23703000  0.36815800  0.79806400  1
  H  857  1  0.27141300  0.38455000  0.77700200  1
  H  858  1  0.30949900  0.39833500  0.73677600  1
  H  859  1  0.32938000  0.34111400  0.76459000  1
  H  860  1  0.31685600  0.32402100  0.73375700  1
  H  861  1  0.29847900  0.38104500  0.70561100  1
  H  887  1  0.30251900  0.54808100  0.22026200  1
  H  888  1  0.30330100  0.58452800  0.21950300  1
  H  889  1  0.35613900  0.54823400  0.27228400  1
  H  890  1  0.35774900  0.58489300  0.27143100  1
  H  891  1  0.37800100  0.63418800  0.26669200  1
  H  892  1  0.42625100  0.63741500  0.25811500  1
  H  893  1  0.41205500  0.60566300  0.20241400  1
  H  894  1  0.36313700  0.60283600  0.21056400  1
  H  895  1  0.33674700  0.64081300  0.20990400  1
  H  896  1  0.30205500  0.65653600  0.18879300  1
  H  897  1  0.23710700  0.62869700  0.22376300  1
  H  898  1  0.27163300  0.61241900  0.24478900  1
  H  899  1  0.30986300  0.59876100  0.28494400  1
  H  900  1  0.32937400  0.65602300  0.25707800  1
  H  901  1  0.31675000  0.67310000  0.28790400  1
  H  902  1  0.29872500  0.61604000  0.31609100  1
  H  928  1  0.30225500  0.78914100  0.56047100  1
  H  929  1  0.30311100  0.78989500  0.59691600  1
  H  930  1  0.35589900  0.73713300  0.56055700  1
  H  931  1  0.35758200  0.73797900  0.59721300  1
  H  932  1  0.37796500  0.74272800  0.64649400  1
  H  933  1  0.42621100  0.75132900  0.64970000  1
  H  934  1  0.41194300  0.80701400  0.61792800  1
  H  935  1  0.36302900  0.79883800  0.61512100  1
  H  936  1  0.33678100  0.79949200  0.65317500  1
  H  937  1  0.30216600  0.82061800  0.66896100  1
  H  938  1  0.23709000  0.78570900  0.64119800  1
  H  939  1  0.27154000  0.76466400  0.62486400  1
  H  940  1  0.30977400  0.72444500  0.61116600  1
  H  941  1  0.32937600  0.75236600  0.66838700  1
  H  942  1  0.31686600  0.72153500  0.68549900  1
  H  943  1  0.29875900  0.69329200  0.62847900  1
  H  969  1  0.30248300  0.20781200  0.46137600  1
  H  970  1  0.30329700  0.20708800  0.42493000  1
  H  971  1  0.35597600  0.25990400  0.46129600  1
  H  972  1  0.35764100  0.25907300  0.42463800  1
  H  973  1  0.37802400  0.25431600  0.37536100  1
  H  974  1  0.42626400  0.24570300  0.37213300  1
  H  975  1  0.41198300  0.18999200  0.40384600  1
  H  976  1  0.36307400  0.19817400  0.40667200  1
  H  977  1  0.33671800  0.19756800  0.36864700  1
  H  978  1  0.30202400  0.17646200  0.35292000  1
  H  979  1  0.23707300  0.21140900  0.38078800  1
  H  980  1  0.27160300  0.23243100  0.39707100  1
  H  981  1  0.30980800  0.27256900  0.41073600  1
  H  982  1  0.32942200  0.24473200  0.35347700  1
  H  983  1  0.31682800  0.27556300  0.33640300  1
  H  984  1  0.29870100  0.30372500  0.39346300  1
  H  1010  1  0.32653000  0.45482800  0.21661300  1
  H  1011  1  0.32978300  0.41845000  0.21671300  1
  H  1012  1  0.32540100  0.45492900  0.28161000  1
  H  1013  1  0.32698400  0.41880400  0.28185700  1
  H  1014  1  0.38234000  0.40357700  0.26618500  1
  H  1015  1  0.43048500  0.40046800  0.25618900  1
  H  1016  1  0.40630000  0.36606200  0.20398200  1
  H  1017  1  0.35779200  0.36983700  0.21325200  1
  H  1018  1  0.32618100  0.34707700  0.23892700  1
  H  1019  1  0.29245100  0.32830100  0.21939400  1
  H  1020  1  0.24764600  0.38317100  0.20709200  1
  H  1021  1  0.28076100  0.40202700  0.22686200  1
  H  1022  1  0.28236100  0.38905800  0.27400300  1
  H  1023  1  0.36514200  0.36379500  0.27614200  1
  H  1024  1  0.35354700  0.34660700  0.30702700  1
  H  1025  1  0.27079200  0.37112200  0.30481400  1
  H  1051  1  0.32605300  0.54228100  0.80534900  1
  H  1052  1  0.32957500  0.57863900  0.80529900  1
  H  1053  1  0.32516800  0.54227000  0.74035100  1
  H  1054  1  0.32696000  0.57838000  0.74015700  1
  H  1055  1  0.38225100  0.59347200  0.75575200  1
  H  1056  1  0.43044400  0.59649400  0.76563900  1
  H  1057  1  0.40658800  0.63084500  0.81796100  1
  H  1058  1  0.35802500  0.62715700  0.80879900  1
  H  1059  1  0.32649000  0.65005500  0.78322600  1
  H  1060  1  0.29291500  0.66889900  0.80283900  1
  H  1061  1  0.24777500  0.61415000  0.81503400  1
  H  1062  1  0.28072900  0.59523700  0.79518400  1
  H  1063  1  0.28236100  0.60819300  0.74808100  1
  H  1064  1  0.36520100  0.63333500  0.74592300  1
  H  1065  1  0.35366600  0.65049500  0.71501500  1
  H  1066  1  0.27085300  0.62609000  0.71723800  1
  H  1092  1  0.32645200  0.79284500  0.46718800  1
  H  1093  1  0.32980800  0.79275300  0.43081800  1
  H  1094  1  0.32524200  0.72785100  0.46726700  1
  H  1095  1  0.32692000  0.72761400  0.43114800  1
  H  1096  1  0.38231100  0.74324100  0.41592300  1
  H  1097  1  0.43047400  0.75318500  0.41281300  1
  H  1098  1  0.40638900  0.80544300  0.37844400  1
  H  1099  1  0.35785900  0.79621900  0.38221400  1
  H  1100  1  0.32620000  0.77060200  0.35943200  1
  H  1101  1  0.29248500  0.79016800  0.34067000  1
  H  1102  1  0.24767800  0.80242000  0.39555000  1
  H  1103  1  0.28077400  0.78262200  0.41438600  1
  H  1104  1  0.28234400  0.73549600  0.40140600  1
  H  1105  1  0.36509300  0.73334700  0.37610000  1
  H  1106  1  0.35348400  0.70246200  0.35892500  1
  H  1107  1  0.27075400  0.70467600  0.38348700  1
  H  1133  1  0.32622500  0.20413400  0.55465800  1
  H  1134  1  0.32959400  0.20418400  0.59102400  1
  H  1135  1  0.32556200  0.26913200  0.55463800  1
  H  1136  1  0.32719800  0.26932800  0.59075000  1
  H  1137  1  0.38232800  0.25375600  0.60595200  1
  H  1138  1  0.43051200  0.24385600  0.60903900  1
  H  1139  1  0.40653300  0.19147100  0.64325200  1
  H  1140  1  0.35798400  0.20065200  0.63950600  1
  H  1141  1  0.32647900  0.22626400  0.66243300  1
  H  1142  1  0.29287900  0.20666000  0.68125900  1
  H  1143  1  0.24776900  0.19449000  0.62649300  1
  H  1144  1  0.28075300  0.21433100  0.60759300  1
  H  1145  1  0.28241200  0.26143600  0.62045000  1
  H  1146  1  0.36514600  0.26354800  0.64578500  1
  H  1147  1  0.35358100  0.29447500  0.66290500  1
  H  1148  1  0.27086600  0.29230300  0.63831100  1
  H  1174  1  0.63735300  0.54220700  0.21665300  1
  H  1175  1  0.63414500  0.57858300  0.21673900  1
  H  1176  1  0.63840400  0.54212400  0.28164800  1
  H  1177  1  0.63687500  0.57825100  0.28188200  1
  H  1178  1  0.58160500  0.59353100  0.26625800  1
  H  1179  1  0.53344800  0.59665600  0.25629200  1
  H  1180  1  0.55760700  0.63091900  0.20398400  1
  H  1181  1  0.60612400  0.62713500  0.21323100  1
  H  1182  1  0.63772800  0.64996500  0.23889500  1
  H  1183  1  0.67142600  0.66873300  0.21932500  1
  H  1184  1  0.71624000  0.61386200  0.20704300  1
  H  1185  1  0.68315600  0.59501700  0.22685000  1
  H  1186  1  0.68159300  0.60794400  0.27400100  1
  H  1187  1  0.59888400  0.63332800  0.27612800  1
  H  1188  1  0.61050300  0.65048200  0.30701800  1
  H  1189  1  0.69319300  0.62585000  0.30482800  1
  H  1215  1  0.63785300  0.45479100  0.80530700  1
  H  1216  1  0.63441700  0.41843000  0.80529800  1
  H  1217  1  0.63854400  0.45474200  0.74030800  1
  H  1218  1  0.63685500  0.41862300  0.74015200  1
  H  1219  1  0.58170200  0.40350900  0.75570600  1
  H  1220  1  0.53349200  0.40047000  0.76554500  1
  H  1221  1  0.55729100  0.36628700  0.81799200  1
  H  1222  1  0.60587000  0.36998900  0.80887300  1
  H  1223  1  0.63737900  0.34700000  0.78333700  1
  H  1224  1  0.67094800  0.32816400  0.80296300  1
  H  1225  1  0.71616800  0.38289900  0.81505600  1
  H  1226  1  0.68322200  0.40180600  0.79519200  1
  H  1227  1  0.68156500  0.38889400  0.74810200  1
  H  1228  1  0.59879700  0.36360600  0.74601400  1
  H  1229  1  0.61035700  0.34644600  0.71510200  1
  H  1230  1  0.69308700  0.37099900  0.71725500  1
  H  1256  1  0.63755500  0.20420400  0.46720200  1
  H  1257  1  0.63418400  0.20428100  0.43083400  1
  H  1258  1  0.63869700  0.26920000  0.46725900  1
  H  1259  1  0.63700400  0.26942200  0.43113400  1
  H  1260  1  0.58161900  0.25375000  0.41596600  1
  H  1261  1  0.53345800  0.24378200  0.41288700  1
  H  1262  1  0.55754700  0.19152300  0.37852700  1
  H  1263  1  0.60607300  0.20076700  0.38226600  1
  H  1264  1  0.63766900  0.22638700  0.35943900  1
  H  1265  1  0.67137600  0.20682800  0.34066400  1
  H  1266  1  0.71626300  0.19461800  0.39551900  1
  H  1267  1  0.68318000  0.21441400  0.41436800  1
  H  1268  1  0.68155200  0.26154600  0.40135800  1
  H  1269  1  0.59875400  0.26362200  0.37611900  1
  H  1270  1  0.61031900  0.29449900  0.35888800  1
  H  1271  1  0.69308500  0.29234900  0.38339100  1
  H  1297  1  0.63761200  0.79289300  0.55459500  1
  H  1298  1  0.63427300  0.79283600  0.59096400  1
  H  1299  1  0.63864600  0.72789700  0.55457200  1
  H  1300  1  0.63701000  0.72769500  0.59069400  1
  H  1301  1  0.58167900  0.74329500  0.60582500  1
  H  1302  1  0.53349000  0.75319400  0.60888400  1
  H  1303  1  0.55741800  0.80552000  0.64320300  1
  H  1304  1  0.60596900  0.79634600  0.63948000  1
  H  1305  1  0.63750800  0.77073600  0.66236800  1
  H  1306  1  0.67111700  0.79031700  0.68120900  1
  H  1307  1  0.71617800  0.80258200  0.62644100  1
  H  1308  1  0.68318600  0.78276300  0.60752400  1
  H  1309  1  0.68160300  0.73563000  0.62047300  1
  H  1310  1  0.59877400  0.73345200  0.64565100  1
  H  1311  1  0.61036100  0.70256700  0.66285100  1
  H  1312  1  0.69316600  0.70481500  0.63841100  1
  H  1319  1  0.12069800  0.01199600  0.29991600  1
  H  1322  1  0.23802800  0.97244500  0.24971200  1
  H  1323  1  0.22293600  0.96806300  0.27422100  1
  H  1324  1  0.23165100  0.99358700  0.26620800  1
  H  1331  1  0.12043400  0.98505800  0.72189400  1
  H  1334  1  0.23749400  0.02460800  0.77242000  1
  H  1335  1  0.22249900  0.02901200  0.74788100  1
  H  1336  1  0.23119900  0.00348300  0.75588700  1
  H  1343  1  0.12038600  0.70958100  0.02447600  1
  H  1346  1  0.23750700  0.75997000  0.98483500  1
  H  1347  1  0.22246100  0.73544500  0.98044400  1
  H  1348  1  0.23121200  0.74344400  0.00596600  1
  H  1355  1  0.12077500  0.28761100  0.99753100  1
  H  1358  1  0.23799400  0.23722000  0.03701200  1
  H  1359  1  0.22297400  0.26175300  0.04141000  1
  H  1360  1  0.23163800  0.25373100  0.01587900  1
  H  1367  1  0.84324300  0.98506400  0.29989900  1
  H  1370  1  0.72593100  0.02468000  0.24972700  1
  H  1371  1  0.74105200  0.02905900  0.27423100  1
  H  1372  1  0.73230100  0.00353900  0.26622500  1
  H  1379  1  0.84351200  0.01194200  0.72189700  1
  H  1382  1  0.72642900  0.97237600  0.77238400  1
  H  1383  1  0.74143500  0.96797500  0.74784800  1
  H  1384  1  0.73272700  0.99350200  0.75585500  1
  H  1391  1  0.84363100  0.28739900  0.02444100  1
  H  1394  1  0.72647600  0.23706400  0.98479000  1
  H  1395  1  0.74155600  0.26157600  0.98039500  1
  H  1396  1  0.73278200  0.25359400  0.00591800  1
  H  1403  1  0.84326900  0.70943600  0.99754800  1
  H  1406  1  0.72608400  0.75987500  0.03702300  1
  H  1407  1  0.74108100  0.73533400  0.04141700  1
  H  1408  1  0.73243200  0.74336600  0.01588700  1
  H  1415  1  0.61179600  0.51734500  0.80158800  1
  H  1418  1  0.71155900  0.47730300  0.73524500  1
  H  1419  1  0.70278100  0.47269400  0.76128900  1
  H  1420  1  0.70937100  0.49829200  0.75249100  1
  H  1427  1  0.61077700  0.47969300  0.22050100  1
  H  1430  1  0.71168700  0.51950700  0.28607200  1
  H  1431  1  0.70252000  0.52415200  0.26010500  1
  H  1432  1  0.70918200  0.49853700  0.26882600  1
  H  1439  1  0.61123200  0.20810800  0.52977600  1
  H  1442  1  0.71208100  0.27358000  0.48970700  1
  H  1443  1  0.70285500  0.24761900  0.48509000  1
  H  1444  1  0.70964200  0.25634000  0.51068800  1
  H  1451  1  0.61123700  0.78904600  0.49206400  1
  H  1454  1  0.71185000  0.72329200  0.53198000  1
  H  1455  1  0.70279200  0.74928300  0.53660300  1
  H  1456  1  0.70943600  0.74052900  0.51099600  1
  H  1463  1  0.35209600  0.47968700  0.80155800  1
  H  1466  1  0.25199100  0.51982000  0.73552600  1
  H  1467  1  0.26093300  0.52443000  0.76154000  1
  H  1468  1  0.25423100  0.49883500  0.75277600  1
  H  1475  1  0.35305600  0.51737100  0.22050100  1
  H  1478  1  0.25202300  0.47746600  0.28592500  1
  H  1479  1  0.26126600  0.47282800  0.25997100  1
  H  1480  1  0.25453400  0.49843800  0.26867800  1
  H  1487  1  0.35278900  0.78894000  0.52976200  1
  H  1490  1  0.25185200  0.72351900  0.48973000  1
  H  1491  1  0.26110000  0.74947300  0.48510900  1
  H  1492  1  0.25432000  0.74075900  0.51070900  1
  H  1499  1  0.35247300  0.20783400  0.49212000  1
  H  1502  1  0.25251100  0.27411200  0.53201500  1
  H  1503  1  0.26131900  0.24807700  0.53664600  1
  H  1504  1  0.25476700  0.25685700  0.51103600  1
  H  1511  1  0.19284300  0.18938900  0.32345300  1
  H  1514  1  0.27026600  0.13120800  0.39296800  1
  H  1515  1  0.23463000  0.13129300  0.38456700  1
  H  1516  1  0.25003200  0.15397900  0.39533800  1
  H  1523  1  0.19299300  0.80767400  0.69852900  1
  H  1526  1  0.27037000  0.86596700  0.62909600  1
  H  1527  1  0.23475500  0.86589800  0.63754700  1
  H  1528  1  0.25008500  0.84322100  0.62670000  1
  H  1535  1  0.19289400  0.68601900  0.20179800  1
  H  1538  1  0.27023700  0.61654900  0.14350800  1
  H  1539  1  0.23460400  0.62495900  0.14361500  1
  H  1540  1  0.25001500  0.61415900  0.16628600  1
  H  1547  1  0.19299800  0.31083300  0.82006800  1
  H  1550  1  0.27048900  0.38027500  0.87826300  1
  H  1551  1  0.23487800  0.37181700  0.87823300  1
  H  1552  1  0.25015700  0.38266200  0.85553800  1
  H  1559  1  0.77109500  0.80767100  0.32338700  1
  H  1562  1  0.69368100  0.86583000  0.39292000  1
  H  1563  1  0.72931500  0.86574700  0.38451200  1
  H  1564  1  0.71391600  0.84305600  0.39527600  1
  H  1571  1  0.77099300  0.18933700  0.69849200  1
  H  1574  1  0.69359400  0.13108600  0.62903700  1
  H  1575  1  0.72920700  0.13114400  0.63748700  1
  H  1576  1  0.71388800  0.15382700  0.62664900  1
  H  1583  1  0.77111800  0.31117000  0.20173500  1
  H  1586  1  0.69384800  0.38070400  0.14346600  1
  H  1587  1  0.72948700  0.37230500  0.14359500  1
  H  1588  1  0.71403000  0.38307100  0.16626400  1
  H  1595  1  0.77093800  0.68612100  0.82012000  1
  H  1598  1  0.69355300  0.61663700  0.87834300  1
  H  1599  1  0.72916100  0.62510200  0.87829300  1
  H  1600  1  0.71386000  0.61425900  0.85560600  1
  H  1607  1  0.75267500  0.80586300  0.71004600  1
  H  1610  1  0.68258000  0.86055000  0.63454600  1
  H  1611  1  0.67174800  0.84428600  0.65488900  1
  H  1612  1  0.69452800  0.86567600  0.65982100  1
  H  1619  1  0.75297200  0.19124500  0.31194600  1
  H  1622  1  0.68266900  0.13666900  0.38741200  1
  H  1623  1  0.67190500  0.15293800  0.36705500  1
  H  1624  1  0.69465500  0.13152400  0.36215000  1
  H  1631  1  0.75251200  0.29928100  0.81845700  1
  H  1634  1  0.68275800  0.37497500  0.87311700  1
  H  1635  1  0.67182100  0.35459600  0.85693400  1
  H  1636  1  0.69468900  0.34970400  0.87828300  1
  H  1643  1  0.75298700  0.69744100  0.20372100  1
  H  1646  1  0.68263900  0.62201700  0.14911200  1
  H  1647  1  0.67189000  0.64237000  0.16539300  1
  H  1648  1  0.69463400  0.64727900  0.14397700  1
  H  1655  1  0.21132700  0.19110600  0.71010700  1
  H  1658  1  0.28124200  0.13648600  0.63446300  1
  H  1659  1  0.29213300  0.15269000  0.65483800  1
  H  1660  1  0.26930200  0.13131900  0.65973200  1
  H  1667  1  0.21086600  0.80580000  0.31199800  1
  H  1670  1  0.28130800  0.86034200  0.38741900  1
  H  1671  1  0.29202900  0.84406900  0.36705200  1
  H  1672  1  0.26928800  0.86549300  0.36216600  1
  H  1679  1  0.21129900  0.69772700  0.81841800  1
  H  1682  1  0.28137100  0.62215200  0.87302700  1
  H  1683  1  0.29222000  0.64252400  0.85680400  1
  H  1684  1  0.26941000  0.64741800  0.87818900  1
  H  1691  1  0.21088000  0.29959600  0.20375900  1
  H  1694  1  0.28134200  0.37499400  0.14919700  1
  H  1695  1  0.29205200  0.35464700  0.16549900  1
  H  1696  1  0.26935100  0.34973000  0.14406200  1
  H  1703  1  0.12111800  0.14381000  0.17929200  1
  H  1706  1  0.23319500  0.18101300  0.19798500  1
  H  1707  1  0.24091600  0.20623000  0.18946600  1
  H  1708  1  0.23225900  0.18707000  0.17119300  1
  H  1715  1  0.12065000  0.85318200  0.84253100  1
  H  1718  1  0.23303800  0.81626700  0.82418000  1
  H  1719  1  0.24086800  0.79111400  0.83284200  1
  H  1720  1  0.23196000  0.81032700  0.85099700  1
  H  1727  1  0.12112900  0.83025400  0.15621200  1
  H  1730  1  0.23310800  0.81144900  0.19353300  1
  H  1731  1  0.24080000  0.81996800  0.21875500  1
  H  1732  1  0.23221400  0.83824400  0.19958100  1
  H  1739  1  0.12066500  0.16691200  0.86563500  1
  H  1742  1  0.23310400  0.18523500  0.82879700  1
  H  1743  1  0.24096100  0.17657800  0.80364700  1
  H  1744  1  0.23201700  0.15842000  0.82285000  1
  H  1751  1  0.84288900  0.85328800  0.17923400  1
  H  1754  1  0.73085600  0.81603000  0.19798200  1
  H  1755  1  0.72314700  0.79080900  0.18946600  1
  H  1756  1  0.73178400  0.80997300  0.17119000  1
  H  1763  1  0.84314800  0.14377500  0.84251000  1
  H  1766  1  0.73079200  0.18074800  0.82418000  1
  H  1767  1  0.72299500  0.20590700  0.83283800  1
  H  1768  1  0.73188500  0.18669300  0.85099500  1
  H  1775  1  0.84270700  0.16690700  0.15618100  1
  H  1778  1  0.73074500  0.18562200  0.19357500  1
  H  1779  1  0.72308600  0.17707300  0.21879400  1
  H  1780  1  0.73167400  0.15882100  0.19959600  1
  H  1787  1  0.84323700  0.83007700  0.86562500  1
  H  1790  1  0.73082200  0.81175200  0.82875700  1
  H  1791  1  0.72298800  0.82039600  0.80359900  1
  H  1792  1  0.73190900  0.83856400  0.82279700  1
  H  1799  1  0.63150100  0.64047700  0.68016100  1
  H  1802  1  0.73098700  0.69438600  0.69604800  1
  H  1803  1  0.73208700  0.71936500  0.68529900  1
  H  1804  1  0.72962200  0.69779900  0.66880200  1
  H  1811  1  0.63128300  0.35651200  0.34153200  1
  H  1814  1  0.73093600  0.30269800  0.32572000  1
  H  1815  1  0.73214000  0.27778700  0.33662000  1
  H  1816  1  0.72960100  0.29944800  0.35298600  1
  H  1823  1  0.63123400  0.32922700  0.65298200  1
  H  1826  1  0.73114600  0.31354100  0.70654200  1
  H  1827  1  0.73237700  0.32429100  0.73151600  1
  H  1828  1  0.72967800  0.34078300  0.70996300  1
  H  1835  1  0.63146500  0.66780000  0.36901400  1
  H  1838  1  0.73116100  0.68349100  0.31521300  1
  H  1839  1  0.73234100  0.67259200  0.29030000  1
  H  1840  1  0.72976200  0.65622600  0.31195900  1
  H  1847  1  0.33257700  0.35661200  0.68012400  1
  H  1850  1  0.23282900  0.30289900  0.69580300  1
  H  1851  1  0.23166100  0.27792600  0.68504300  1
  H  1852  1  0.23428900  0.29949100  0.66856000  1
  H  1859  1  0.33250700  0.64047000  0.34159800  1
  H  1862  1  0.23283900  0.69428300  0.32584300  1
  H  1863  1  0.23165500  0.71919600  0.33674300  1
  H  1864  1  0.23420800  0.69753600  0.35310900  1
  H  1871  1  0.33272400  0.66784200  0.65293500  1
  H  1874  1  0.23291600  0.68358100  0.70657500  1
  H  1875  1  0.23169100  0.67280200  0.73153800  1
  H  1876  1  0.23432200  0.65633400  0.70996100  1
  H  1883  1  0.33251200  0.32927500  0.36904400  1
  H  1886  1  0.23293700  0.31344300  0.31517700  1
  H  1887  1  0.23177800  0.32431700  0.29025400  1
  H  1888  1  0.23427800  0.34070600  0.31189900  1
  H  1895  1  0.00024200  0.12006600  0.25826200  1
  H  1898  1  0.98091100  0.10786600  0.34792800  1
  H  1899  1  0.94647500  0.10187900  0.35678900  1
  H  1900  1  0.95198200  0.12474400  0.34256800  1
  H  1907  1  0.00024700  0.87612500  0.76311400  1
  H  1910  1  0.98058800  0.88959300  0.67365000  1
  H  1911  1  0.94614700  0.89581700  0.66496300  1
  H  1912  1  0.95158200  0.87273300  0.67884300  1
  H  1919  1  0.00012200  0.75107800  0.13282400  1
  H  1922  1  0.98082600  0.66146300  0.12020500  1
  H  1923  1  0.94641600  0.65263100  0.11410100  1
  H  1924  1  0.95182700  0.66674500  0.13704300  1
  H  1931  1  0.00041900  0.24627800  0.88863600  1
  H  1934  1  0.98064100  0.33574100  0.90204300  1
  H  1935  1  0.94617400  0.34441100  0.90821900  1
  H  1936  1  0.95168100  0.33053100  0.88514600  1
  H  1943  1  0.96375400  0.87716700  0.25818500  1
  H  1946  1  0.98295900  0.88917000  0.34789200  1
  H  1947  1  0.01738800  0.89512400  0.35679200  1
  H  1948  1  0.01188300  0.87229500  0.34251400  1
  H  1955  1  0.96366700  0.12076300  0.76321300  1
  H  1958  1  0.98331800  0.10748600  0.67371700  1
  H  1959  1  0.01776800  0.10131900  0.66501300  1
  H  1960  1  0.01228900  0.12436800  0.67893900  1
  H  1967  1  0.96386900  0.24581700  0.13250700  1
  H  1970  1  0.98308400  0.33549200  0.12028000  1
  H  1971  1  0.01750600  0.34437300  0.11427900  1
  H  1972  1  0.01203200  0.33014900  0.13714600  1
  H  1979  1  0.96358100  0.75074300  0.88870700  1
  H  1982  1  0.98326200  0.66126600  0.90209700  1
  H  1983  1  0.01771500  0.65257800  0.90828000  1
  H  1984  1  0.01223700  0.66647100  0.88521200  1
  H  1991  1  0.49976200  0.65219000  0.78673700  1
  H  1994  1  0.47552700  0.57928700  0.83745800  1
  H  1995  1  0.44784200  0.56216500  0.83090000  1
  H  1996  1  0.43996000  0.58842000  0.83514500  1
  H  2003  1  0.49954200  0.34463000  0.23483200  1
  H  2006  1  0.47528100  0.41772400  0.18439500  1
  H  2007  1  0.44763900  0.43484200  0.19105400  1
  H  2008  1  0.43971400  0.40860400  0.18675000  1
  H  2015  1  0.49975400  0.22274900  0.66468700  1
  H  2018  1  0.47550200  0.17191800  0.59185200  1
  H  2019  1  0.44781900  0.17846300  0.57472400  1
  H  2020  1  0.43993700  0.17424600  0.60098300  1
  H  2027  1  0.49965800  0.77431300  0.35709600  1
  H  2030  1  0.47538300  0.82506800  0.42996900  1
  H  2031  1  0.44767700  0.81851700  0.44707700  1
  H  2032  1  0.43982900  0.82274100  0.42081200  1
  H  2039  1  0.46413400  0.34489800  0.78653000  1
  H  2042  1  0.48835400  0.41761200  0.83753100  1
  H  2043  1  0.51607500  0.43473300  0.83106300  1
  H  2044  1  0.52391100  0.40845800  0.83522600  1
  H  2051  1  0.46434600  0.65235100  0.23512100  1
  H  2054  1  0.48858500  0.57947400  0.18435100  1
  H  2055  1  0.51627900  0.56236100  0.19090200  1
  H  2056  1  0.52414200  0.58862300  0.18668400  1
  H  2063  1  0.46426700  0.77440500  0.66464100  1
  H  2066  1  0.48851300  0.82503900  0.59167000  1
  H  2067  1  0.51615400  0.81842800  0.57453200  1
  H  2068  1  0.52408700  0.82268400  0.60077600  1
  H  2075  1  0.46430300  0.22264100  0.35716900  1
  H  2078  1  0.48855100  0.17192900  0.43008600  1
  H  2079  1  0.51624700  0.17849400  0.44719400  1
  H  2080  1  0.52410600  0.17425100  0.42093600  1
  C  1  1  0.15022000  0.14139700  0.21548400  1
  C  2  1  0.12265400  0.14136400  0.22396800  1
  C  3  1  0.11692000  0.13130700  0.24261300  1
  C  4  1  0.13826400  0.12024000  0.25320900  1
  C  5  1  0.16606600  0.12077600  0.24489600  1
  C  6  1  0.17201000  0.13132000  0.22644100  1
  C  8  1  0.15156400  0.12217900  0.29233600  1
  C  9  1  0.17718500  0.11432200  0.30048700  1
  C  10  1  0.19446300  0.12633300  0.31330900  1
  C  11  1  0.18729800  0.14688500  0.31837500  1
  C  12  1  0.16198700  0.15488700  0.30978700  1
  C  13  1  0.14479500  0.14294100  0.29672800  1
  C  14  1  0.09753300  0.10788000  0.28121700  1
  C  15  1  0.14085800  0.08390900  0.27606000  1
  C  16  1  0.13849700  0.07294100  0.29482700  1
  C  17  1  0.14355500  0.05168800  0.29569700  1
  C  18  1  0.15063900  0.04049000  0.27777000  1
  C  19  1  0.15341100  0.05142100  0.25906000  1
  C  20  1  0.14828900  0.07273300  0.25815700  1
  C  21  1  0.07916800  0.09786700  0.26715200  1
  C  22  1  0.04971700  0.09805700  0.27000000  1
  C  23  1  0.03750400  0.10763500  0.28738800  1
  C  24  1  0.05578600  0.11581400  0.30252600  1
  C  25  1  0.08537000  0.11597400  0.29945300  1
  C  42  1  0.14992100  0.85569900  0.80644700  1
  C  43  1  0.12239400  0.85566400  0.79789600  1
  C  44  1  0.11669000  0.86571300  0.77924200  1
  C  45  1  0.13803800  0.87680700  0.76867600  1
  C  46  1  0.16580500  0.87633600  0.77705500  1
  C  47  1  0.17171500  0.86581300  0.79552600  1
  C  49  1  0.15151800  0.87485400  0.72959600  1
  C  50  1  0.17712400  0.88274800  0.72145500  1
  C  51  1  0.19447900  0.87074800  0.70867500  1
  C  52  1  0.18739900  0.85017600  0.70363000  1
  C  53  1  0.16209500  0.84214200  0.71220000  1
  C  54  1  0.14483400  0.85407300  0.72521900  1
  C  55  1  0.09739400  0.88904900  0.74054200  1
  C  56  1  0.14058700  0.91312600  0.74581500  1
  C  57  1  0.13828300  0.92409100  0.72704300  1
  C  58  1  0.14329000  0.94535000  0.72618200  1
  C  59  1  0.15027200  0.95656100  0.74412300  1
  C  60  1  0.15293600  0.94563800  0.76284500  1
  C  61  1  0.14789700  0.92431800  0.76373600  1
  C  62  1  0.07889600  0.89899800  0.75456100  1
  C  63  1  0.04946100  0.89870500  0.75163200  1
  C  64  1  0.03741100  0.88910400  0.73420000  1
  C  65  1  0.05581400  0.88098900  0.71910800  1
  C  66  1  0.08538200  0.88093100  0.72226300  1
  C  83  1  0.15018200  0.79404700  0.15382600  1
  C  84  1  0.12262200  0.78555100  0.15385200  1
  C  85  1  0.11686100  0.76690400  0.14380600  1
  C  86  1  0.13818100  0.75629500  0.13272500  1
  C  87  1  0.16598100  0.76461600  0.13321500  1
  C  88  1  0.17194900  0.78308000  0.14373600  1
  C  90  1  0.15149900  0.71717800  0.13464500  1
  C  91  1  0.17708700  0.70900800  0.12675100  1
  C  92  1  0.19439300  0.69618200  0.13873700  1
  C  93  1  0.18728400  0.69112200  0.15930100  1
  C  94  1  0.16199800  0.69971700  0.16733700  1
  C  95  1  0.14478400  0.71278000  0.15541700  1
  C  96  1  0.09742700  0.72827100  0.12043400  1
  C  97  1  0.14066500  0.73345400  0.09639000  1
  C  98  1  0.13829100  0.71469000  0.08541700  1
  C  99  1  0.14329200  0.71383000  0.06415600  1
  C  100  1  0.15032400  0.73176200  0.05295300  1
  C  101  1  0.15309200  0.75047200  0.06388600  1
  C  102  1  0.14804900  0.75136300  0.08520700  1
  C  103  1  0.07901100  0.74233800  0.11047400  1
  C  104  1  0.04956700  0.73945400  0.11067900  1
  C  105  1  0.03741000  0.72204300  0.12025200  1
  C  106  1  0.05573500  0.70691900  0.12840600  1
  C  107  1  0.08531400  0.71001600  0.12852600  1
  C  124  1  0.14997800  0.20298300  0.86819800  1
  C  125  1  0.12245100  0.21153800  0.86818600  1
  C  126  1  0.11676400  0.23019100  0.87824100  1
  C  127  1  0.13813400  0.24075800  0.88931200  1
  C  128  1  0.16589900  0.23238100  0.88881500  1
  C  129  1  0.17178800  0.21390600  0.87829000  1
  C  131  1  0.15161100  0.27983400  0.88731000  1
  C  132  1  0.17723400  0.28797300  0.89518000  1
  C  133  1  0.19459100  0.30072100  0.88314700  1
  C  134  1  0.18747500  0.30575600  0.86257800  1
  C  135  1  0.16214500  0.29719800  0.85457600  1
  C  136  1  0.14489200  0.28419600  0.86653300  1
  C  137  1  0.09751400  0.26890500  0.90157400  1
  C  138  1  0.14076300  0.26364900  0.92560900  1
  C  139  1  0.13849100  0.28243400  0.93655700  1
  C  140  1  0.14356900  0.28331600  0.95780700  1
  C  141  1  0.15059700  0.26539000  0.96902300  1
  C  142  1  0.15326000  0.24666000  0.95811400  1
  C  143  1  0.14814000  0.24574600  0.93680300  1
  C  144  1  0.07903000  0.25489500  0.91155000  1
  C  145  1  0.04959100  0.25780500  0.91124400  1
  C  146  1  0.03752600  0.27522300  0.90162600  1
  C  147  1  0.05591600  0.29031500  0.89349800  1
  C  148  1  0.08548600  0.28717000  0.89343600  1
  C  165  1  0.81376400  0.85571000  0.21542200  1
  C  166  1  0.84132300  0.85574400  0.22391800  1
  C  167  1  0.84704600  0.86580700  0.24256200  1
  C  168  1  0.82568400  0.87684500  0.25317100  1
  C  169  1  0.79788700  0.87630100  0.24484900  1
  C  170  1  0.79196100  0.86576500  0.22638500  1
  C  172  1  0.81238400  0.87488900  0.29229400  1
  C  173  1  0.78677400  0.88274800  0.30046200  1
  C  174  1  0.76949300  0.87073400  0.31327800  1
  C  175  1  0.77664800  0.85017800  0.31833200  1
  C  176  1  0.80196600  0.84218000  0.30974800  1
  C  177  1  0.81916000  0.85413000  0.29669500  1
  C  178  1  0.86640600  0.88921800  0.28117700  1
  C  179  1  0.82305700  0.91316800  0.27602700  1
  C  180  1  0.82542200  0.92413400  0.29479600  1
  C  181  1  0.82035500  0.94538400  0.29567000  1
  C  182  1  0.81327900  0.95658900  0.27774700  1
  C  183  1  0.81054300  0.94566400  0.25903100  1
  C  184  1  0.81561300  0.92434600  0.25812800  1
  C  185  1  0.88475800  0.89924800  0.26711600  1
  C  186  1  0.91421200  0.89905600  0.26995300  1
  C  187  1  0.92644200  0.88948100  0.28733600  1
  C  188  1  0.90817100  0.88127300  0.30246500  1
  C  189  1  0.87858300  0.88110800  0.29940100  1
  C  206  1  0.81390600  0.14129700  0.80641200  1
  C  207  1  0.84142900  0.14136800  0.79785400  1
  C  208  1  0.84716300  0.13130300  0.77921400  1
  C  209  1  0.82583100  0.12019700  0.76864600  1
  C  210  1  0.79805300  0.12067000  0.77700400  1
  C  211  1  0.79212400  0.13118500  0.79547800  1
  C  213  1  0.81241800  0.12214900  0.72955400  1
  C  214  1  0.78682300  0.11425600  0.72139800  1
  C  215  1  0.76948200  0.12626100  0.70861100  1
  C  216  1  0.77657600  0.14683300  0.70357200  1
  C  217  1  0.80188300  0.15485800  0.71214500  1
  C  218  1  0.81912900  0.14292400  0.72517300  1
  C  219  1  0.86651000  0.10793000  0.74055100  1
  C  220  1  0.82328600  0.08387400  0.74579900  1
  C  221  1  0.82561200  0.07290700  0.72702700  1
  C  222  1  0.82062200  0.05164400  0.72617200  1
  C  223  1  0.81364700  0.04043500  0.74411500  1
  C  224  1  0.81095800  0.05136100  0.76283400  1
  C  225  1  0.81599100  0.07268300  0.76372000  1
  C  226  1  0.88498400  0.09798900  0.75459200  1
  C  227  1  0.91442300  0.09826400  0.75168500  1
  C  228  1  0.92650700  0.10785500  0.73425800  1
  C  229  1  0.90813000  0.11596900  0.71914800  1
  C  230  1  0.87855800  0.11603800  0.72228000  1
  C  247  1  0.81369400  0.20312700  0.15389600  1
  C  248  1  0.84125400  0.21162000  0.15392400  1
  C  249  1  0.84703000  0.23024800  0.14385000  1
  C  250  1  0.82572200  0.24083700  0.13273700  1
  C  251  1  0.79791300  0.23253200  0.13324100  1
  C  252  1  0.79193300  0.21408300  0.14378600  1
  C  254  1  0.81248600  0.27997200  0.13460900  1
  C  255  1  0.78689700  0.28814700  0.12671400  1
  C  256  1  0.76962800  0.30101000  0.13868700  1
  C  257  1  0.77675600  0.30608600  0.15924200  1
  C  258  1  0.80204700  0.29749500  0.16727700  1
  C  259  1  0.81923500  0.28440300  0.15536700  1
  C  260  1  0.86651600  0.26878900  0.12036700  1
  C  261  1  0.82323100  0.26362600  0.09636800  1
  C  262  1  0.82564200  0.28237600  0.08537200  1
  C  263  1  0.82066900  0.28320800  0.06410700  1
  C  264  1  0.81363700  0.26526500  0.05292100  1
  C  265  1  0.81085500  0.24656900  0.06387600  1
  C  266  1  0.81584900  0.24570400  0.08520400  1
  C  267  1  0.88487800  0.25468100  0.11041400  1
  C  268  1  0.91433000  0.25752500  0.11058300  1
  C  269  1  0.92655600  0.27493100  0.12011800  1
  C  270  1  0.90828300  0.29008400  0.12828400  1
  C  271  1  0.87869600  0.28703000  0.12843700  1
  C  288  1  0.81392500  0.79399600  0.86816600  1
  C  289  1  0.84144000  0.78542600  0.86811400  1
  C  290  1  0.84714600  0.76678400  0.87818400  1
  C  291  1  0.82579900  0.75623500  0.88929500  1
  C  292  1  0.79802900  0.76461000  0.88880900  1
  C  293  1  0.79212800  0.78308100  0.87828300  1
  C  295  1  0.81234200  0.71715100  0.88733600  1
  C  296  1  0.78671000  0.70903200  0.89520600  1
  C  297  1  0.76937000  0.69625600  0.88318900  1
  C  298  1  0.77649100  0.69120400  0.86262600  1
  C  299  1  0.80181600  0.69976100  0.85461500  1
  C  300  1  0.81906300  0.71277700  0.86656100  1
  C  301  1  0.86644000  0.72811800  0.90157200  1
  C  302  1  0.82319900  0.73337500  0.92561400  1
  C  303  1  0.82550000  0.71459800  0.93657200  1
  C  304  1  0.82045700  0.71372800  0.95782800  1
  C  305  1  0.81345900  0.73166200  0.96904000  1
  C  306  1  0.81081400  0.75039200  0.95812600  1
  C  307  1  0.81588500  0.75129200  0.93680900  1
  C  308  1  0.88491600  0.74214400  0.91153200  1
  C  309  1  0.91435400  0.73923400  0.91124700  1
  C  310  1  0.92643100  0.72180400  0.90165500  1
  C  311  1  0.90804600  0.70670800  0.89352500  1
  C  312  1  0.87847300  0.70983800  0.89347300  1
  C  329  1  0.80899000  0.85271400  0.80657400  1
  C  330  1  0.83615800  0.85278200  0.79742800  1
  C  331  1  0.84111600  0.86300100  0.77875800  1
  C  332  1  0.81930000  0.87410900  0.76873600  1
  C  333  1  0.79192100  0.87366400  0.77774700  1
  C  334  1  0.78686500  0.86322900  0.79639700  1
  C  336  1  0.80524800  0.87138800  0.72985000  1
  C  337  1  0.78056400  0.87905800  0.72011000  1
  C  338  1  0.76406800  0.86649200  0.70724600  1
  C  339  1  0.77100100  0.84555800  0.70421900  1
  C  340  1  0.79508200  0.83761000  0.71441100  1
  C  341  1  0.81186100  0.85029200  0.72703200  1
  C  342  1  0.85877400  0.88678300  0.73999100  1
  C  343  1  0.81502000  0.91026100  0.74600300  1
  C  344  1  0.81654400  0.92146200  0.72733000  1
  C  345  1  0.81215100  0.94281600  0.72692000  1
  C  346  1  0.80669300  0.95389700  0.74521500  1
  C  347  1  0.80527400  0.94281300  0.76390200  1
  C  348  1  0.80945600  0.92138800  0.76430700  1
  C  349  1  0.87729700  0.89732900  0.75354200  1
  C  350  1  0.90660500  0.89777600  0.75003200  1
  C  351  1  0.91852600  0.88827300  0.73249500  1
  C  352  1  0.90003200  0.87901000  0.71812800  1
  C  353  1  0.87059100  0.87834000  0.72179500  1
  C  370  1  0.80877200  0.14433100  0.21538400  1
  C  371  1  0.83599900  0.14415800  0.22443500  1
  C  372  1  0.84101000  0.13391100  0.24308200  1
  C  373  1  0.81917500  0.12290500  0.25319400  1
  C  374  1  0.79174500  0.12344700  0.24427200  1
  C  375  1  0.78663800  0.13390500  0.22564000  1
  C  377  1  0.80531200  0.12564000  0.29211900  1
  C  378  1  0.78065700  0.11800500  0.30192600  1
  C  379  1  0.76423600  0.13060000  0.31481100  1
  C  380  1  0.77121300  0.15153000  0.31780400  1
  C  381  1  0.79527900  0.15944100  0.30756100  1
  C  382  1  0.81198400  0.14672900  0.29491800  1
  C  383  1  0.85874200  0.11014200  0.28183100  1
  C  384  1  0.81486300  0.08675800  0.27592200  1
  C  385  1  0.81644600  0.07553500  0.29457900  1
  C  386  1  0.81196100  0.05419200  0.29499200  1
  C  387  1  0.80633700  0.04312800  0.27671000  1
  C  388  1  0.80488800  0.05423400  0.25803500  1
  C  389  1  0.80910400  0.07565500  0.25763500  1
  C  390  1  0.87714500  0.09951900  0.26825100  1
  C  391  1  0.90646500  0.09897700  0.27169100  1
  C  392  1  0.91854200  0.10849800  0.28916400  1
  C  393  1  0.90017000  0.11788000  0.30353700  1
  C  394  1  0.87071000  0.11861300  0.29996100  1
  C  411  1  0.80897500  0.20282300  0.86517900  1
  C  412  1  0.83615400  0.21195500  0.86522700  1
  C  413  1  0.84114800  0.23061400  0.87545700  1
  C  414  1  0.81935100  0.24065800  0.88656200  1
  C  415  1  0.79196100  0.23166400  0.88613100  1
  C  416  1  0.78687100  0.21301700  0.87569700  1
  C  418  1  0.80532200  0.27955200  0.88388000  1
  C  419  1  0.78068200  0.28932100  0.89158600  1
  C  420  1  0.76415700  0.30218800  0.87904000  1
  C  421  1  0.77101800  0.30519000  0.85809200  1
  C  422  1  0.79506900  0.29498400  0.85011000  1
  C  423  1  0.81187800  0.28236700  0.86277400  1
  C  424  1  0.85887400  0.26938000  0.89920800  1
  C  425  1  0.81516600  0.26336600  0.92273200  1
  C  426  1  0.81673000  0.28202400  0.93395500  1
  C  427  1  0.81231000  0.28242700  0.95530500  1
  C  428  1  0.80680500  0.26412900  0.96637600  1
  C  429  1  0.80537500  0.24545400  0.95527300  1
  C  430  1  0.80954100  0.24506400  0.93384600  1
  C  431  1  0.87740900  0.25581500  0.90972700  1
  C  432  1  0.90671700  0.25932500  0.91017100  1
  C  433  1  0.91863400  0.27685800  0.90066000  1
  C  434  1  0.90013800  0.29122600  0.89140300  1
  C  435  1  0.87069300  0.28757100  0.89075400  1
  C  452  1  0.80887100  0.79406100  0.15676100  1
  C  453  1  0.83607100  0.78496500  0.15660600  1
  C  454  1  0.84103300  0.76630700  0.14636600  1
  C  455  1  0.81917500  0.75623100  0.13534900  1
  C  456  1  0.79177200  0.76519800  0.13587600  1
  C  457  1  0.78671500  0.78384000  0.14632600  1
  C  459  1  0.80525000  0.71732000  0.13810000  1
  C  460  1  0.78058700  0.70752000  0.13046800  1
  C  461  1  0.76416600  0.69463700  0.14306800  1
  C  462  1  0.77117500  0.69162200  0.16398800  1
  C  463  1  0.79525800  0.70185000  0.17189200  1
  C  464  1  0.81194600  0.71450500  0.15918200  1
  C  465  1  0.85868300  0.72755500  0.12258200  1
  C  466  1  0.81480800  0.73349500  0.09920600  1
  C  467  1  0.81634000  0.71482900  0.08799300  1
  C  468  1  0.81188000  0.71441300  0.06664900  1
  C  469  1  0.80634400  0.73270100  0.05557400  1
  C  470  1  0.80488200  0.75138000  0.06667300  1
  C  471  1  0.80907900  0.75178300  0.08809700  1
  C  472  1  0.87710600  0.74112600  0.11196900  1
  C  473  1  0.90643100  0.73769000  0.11147800  1
  C  474  1  0.91847500  0.72021600  0.12101200  1
  C  475  1  0.90007900  0.70582800  0.13034600  1
  C  476  1  0.87062100  0.70941300  0.13105300  1
  C  493  1  0.15494200  0.14425800  0.80660800  1
  C  494  1  0.12778100  0.14420400  0.79744800  1
  C  495  1  0.12282500  0.13398100  0.77878100  1
  C  496  1  0.14465000  0.12289300  0.76874800  1
  C  497  1  0.17202500  0.12333400  0.77776400  1
  C  498  1  0.17707400  0.13376000  0.79642200  1
  C  500  1  0.15868500  0.12561600  0.72985900  1
  C  501  1  0.18333600  0.11793400  0.72008200  1
  C  502  1  0.19982300  0.13049700  0.70720600  1
  C  503  1  0.19292500  0.15144000  0.70421500  1
  C  504  1  0.16885400  0.15939300  0.71441800  1
  C  505  1  0.15208000  0.14671300  0.72704300  1
  C  506  1  0.10516700  0.11021300  0.74001500  1
  C  507  1  0.14893600  0.08674200  0.74602500  1
  C  508  1  0.14738400  0.07553500  0.72735500  1
  C  509  1  0.15179200  0.05418400  0.72694000  1
  C  510  1  0.15725800  0.04309600  0.74523100  1
  C  511  1  0.15863200  0.05418400  0.76392000  1
  C  512  1  0.15453300  0.07561600  0.76432200  1
  C  513  1  0.08665500  0.09966300  0.75357300  1
  C  514  1  0.05734300  0.09921700  0.75007800  1
  C  515  1  0.04540400  0.10874500  0.73256400  1
  C  516  1  0.06388100  0.11801900  0.71819300  1
  C  517  1  0.09332800  0.11867700  0.72183700  1
  C  534  1  0.15510900  0.85273700  0.21543100  1
  C  535  1  0.12790000  0.85290200  0.22451400  1
  C  536  1  0.12291100  0.86316900  0.24315100  1
  C  537  1  0.14476500  0.87417200  0.25324300  1
  C  538  1  0.17219100  0.87360700  0.24431300  1
  C  539  1  0.17726600  0.86314800  0.22567900  1
  C  541  1  0.15862300  0.87143500  0.29216900  1
  C  542  1  0.18328000  0.87905500  0.30198600  1
  C  543  1  0.19967800  0.86644900  0.31487700  1
  C  544  1  0.19267300  0.84552400  0.31786700  1
  C  545  1  0.16858900  0.83763300  0.30763200  1
  C  546  1  0.15191000  0.85035500  0.29498100  1
  C  547  1  0.10522600  0.88699600  0.28186700  1
  C  548  1  0.14917400  0.91032200  0.27595000  1
  C  549  1  0.14759300  0.92155000  0.29460700  1
  C  550  1  0.15207700  0.94289300  0.29501000  1
  C  551  1  0.15766200  0.95395100  0.27671900  1
  C  552  1  0.15912000  0.94284200  0.25804800  1
  C  553  1  0.15490300  0.92142100  0.25765500  1
  C  554  1  0.08685400  0.89763300  0.26827700  1
  C  555  1  0.05753100  0.89820700  0.27170500  1
  C  556  1  0.04541600  0.88867600  0.28915600  1
  C  557  1  0.06376000  0.87927500  0.30353900  1
  C  558  1  0.09322400  0.87852300  0.29998400  1
  C  575  1  0.15487300  0.79412900  0.86516800  1
  C  576  1  0.12771000  0.78497400  0.86523100  1
  C  577  1  0.12274700  0.76632400  0.87548300  1
  C  578  1  0.14456300  0.75631400  0.88660000  1
  C  579  1  0.17194400  0.76532400  0.88614600  1
  C  580  1  0.17699900  0.78396400  0.87569300  1
  C  582  1  0.15861600  0.71743100  0.88390600  1
  C  583  1  0.18328700  0.70768000  0.89158900  1
  C  584  1  0.19979500  0.69481700  0.87902900  1
  C  585  1  0.19290700  0.69182100  0.85808500  1
  C  586  1  0.16881400  0.70199400  0.85013200  1
  C  587  1  0.15201600  0.71460400  0.86280900  1
  C  588  1  0.10508900  0.72758400  0.89930100  1
  C  589  1  0.14885600  0.73362000  0.92276900  1
  C  590  1  0.14731400  0.71495800  0.93399000  1
  C  591  1  0.15172000  0.71455800  0.95534100  1
  C  592  1  0.15720600  0.73285800  0.96641100  1
  C  593  1  0.15857900  0.75153900  0.95531300  1
  C  594  1  0.15443600  0.75192800  0.93388400  1
  C  595  1  0.08657000  0.74114600  0.90983900  1
  C  596  1  0.05725800  0.73765300  0.91026800  1
  C  597  1  0.04532600  0.72012400  0.90076400  1
  C  598  1  0.06381200  0.70574800  0.89150800  1
  C  599  1  0.09325800  0.70939600  0.89084900  1
  C  616  1  0.15517600  0.20299900  0.15677200  1
  C  617  1  0.12797200  0.21208600  0.15661200  1
  C  618  1  0.12299200  0.23072900  0.14635100  1
  C  619  1  0.14484100  0.24080300  0.13532700  1
  C  620  1  0.17225900  0.23185900  0.13587500  1
  C  621  1  0.17732900  0.21322500  0.14633700  1
  C  623  1  0.15872000  0.27972600  0.13808100  1
  C  624  1  0.18340800  0.28951200  0.13047900  1
  C  625  1  0.19980000  0.30240000  0.14309300  1
  C  626  1  0.19275700  0.30541200  0.16400800  1
  C  627  1  0.16866100  0.29518300  0.17188700  1
  C  628  1  0.15199300  0.28252800  0.15916100  1
  C  629  1  0.10531900  0.26944800  0.12252200  1
  C  630  1  0.14925100  0.26353500  0.09918600  1
  C  631  1  0.14768800  0.28220500  0.08797800  1
  C  632  1  0.15217800  0.28263300  0.06663600  1
  C  633  1  0.15769800  0.26434500  0.05555600  1
  C  634  1  0.15912100  0.24565800  0.06664300  1
  C  635  1  0.15493600  0.24524700  0.08806700  1
  C  636  1  0.08693700  0.25587000  0.11187700  1
  C  637  1  0.05761100  0.25929100  0.11134900  1
  C  638  1  0.04551700  0.27675400  0.12087100  1
  C  639  1  0.06387700  0.29113400  0.13025900  1
  C  640  1  0.09334300  0.28758400  0.13097600  1
  C  657  1  0.65749700  0.64621700  0.71682800  1
  C  658  1  0.64898800  0.65739400  0.73440800  1
  C  659  1  0.64122000  0.64714400  0.75256300  1
  C  660  1  0.64189200  0.62536700  0.75389800  1
  C  661  1  0.65200700  0.61436700  0.73653400  1
  C  662  1  0.65899300  0.62457300  0.71811100  1
  C  664  1  0.65606500  0.62428400  0.79261100  1
  C  665  1  0.68544000  0.62136300  0.78900900  1
  C  666  1  0.70589100  0.63105000  0.80135800  1
  C  667  1  0.69760700  0.64374600  0.81790000  1
  C  668  1  0.66841300  0.64670400  0.82165300  1
  C  669  1  0.64795000  0.63729500  0.80906500  1
  C  670  1  0.59917400  0.61871900  0.78254900  1
  C  671  1  0.63493200  0.58863700  0.77559300  1
  C  672  1  0.65007300  0.57735100  0.79069900  1
  C  673  1  0.65031200  0.55573900  0.79057400  1
  C  674  1  0.63545300  0.54482800  0.77526400  1
  C  675  1  0.61972700  0.55577100  0.76043000  1
  C  676  1  0.61881400  0.57738300  0.76100400  1
  C  677  1  0.57989000  0.62871100  0.76916000  1
  C  678  1  0.55108300  0.63072700  0.77427400  1
  C  679  1  0.54020500  0.62231700  0.79272100  1
  C  680  1  0.55922800  0.61212600  0.80605500  1
  C  681  1  0.58818800  0.61051800  0.80114800  1
  C  698  1  0.65731100  0.35080100  0.30488500  1
  C  699  1  0.64892000  0.33960600  0.28728800  1
  C  700  1  0.64114000  0.34983600  0.26912300  1
  C  701  1  0.64165700  0.37161600  0.26780100  1
  C  702  1  0.65163600  0.38264300  0.28518900  1
  C  703  1  0.65865000  0.37245300  0.30361600  1
  C  705  1  0.65595500  0.37276400  0.22911400  1
  C  706  1  0.68530300  0.37575100  0.23278200  1
  C  707  1  0.70585300  0.36614700  0.22045400  1
  C  708  1  0.69770000  0.35347900  0.20385700  1
  C  709  1  0.66853400  0.35045800  0.20003500  1
  C  710  1  0.64797500  0.35978300  0.21260100  1
  C  711  1  0.59899200  0.37814200  0.23908300  1
  C  712  1  0.63454400  0.40832900  0.24612000  1
  C  713  1  0.64975700  0.41968000  0.23110000  1
  C  714  1  0.64991800  0.44129200  0.23127000  1
  C  715  1  0.63488100  0.45213900  0.24652900  1
  C  716  1  0.61905700  0.44114000  0.26126400  1
  C  717  1  0.61827100  0.41952400  0.26066400  1
  C  718  1  0.57972700  0.36806700  0.25242600  1
  C  719  1  0.55092600  0.36603400  0.24729700  1
  C  720  1  0.54003700  0.37446700  0.22886600  1
  C  721  1  0.55905200  0.38470900  0.21556200  1
  C  722  1  0.58800100  0.38634800  0.22048800  1
  C  739  1  0.65747000  0.29262600  0.65861600  1
  C  740  1  0.64901100  0.27504200  0.66980500  1
  C  741  1  0.64126300  0.25687500  0.65956700  1
  C  742  1  0.64187100  0.25554100  0.63778900  1
  C  743  1  0.65190100  0.27292000  0.62677400  1
  C  744  1  0.65887900  0.29135200  0.63696900  1
  C  746  1  0.65606500  0.21682900  0.63671200  1
  C  747  1  0.68543800  0.22044200  0.63378600  1
  C  748  1  0.70590400  0.20809400  0.64345700  1
  C  749  1  0.69763900  0.19153600  0.65614000  1
  C  750  1  0.66844900  0.18776800  0.65910100  1
  C  751  1  0.64797300  0.20035500  0.64970600  1
  C  752  1  0.59916300  0.22687600  0.63118200  1
  C  753  1  0.63487400  0.23383500  0.60107300  1
  C  754  1  0.65009400  0.21878200  0.58977300  1
  C  755  1  0.65032500  0.21891500  0.56816100  1
  C  756  1  0.63537200  0.23418400  0.55726400  1
  C  757  1  0.61955500  0.24896100  0.56821300  1
  C  758  1  0.61868200  0.24838800  0.58982700  1
  C  759  1  0.57989500  0.24025200  0.64120800  1
  C  760  1  0.55108500  0.23514100  0.64322900  1
  C  761  1  0.54020000  0.21669900  0.63482000  1
  C  762  1  0.55921300  0.20336400  0.62462100  1
  C  763  1  0.58816700  0.20827900  0.62298800  1
  C  780  1  0.65751600  0.70442600  0.36327500  1
  C  781  1  0.64903000  0.72198900  0.35206300  1
  C  782  1  0.64122000  0.74015700  0.36227300  1
  C  783  1  0.64178800  0.74151400  0.38405200  1
  C  784  1  0.65186300  0.72416500  0.39509300  1
  C  785  1  0.65890600  0.70573400  0.38492300  1
  C  787  1  0.65601200  0.78022200  0.38511000  1
  C  788  1  0.68537500  0.77658200  0.38806800  1
  C  789  1  0.70588100  0.78889800  0.37839800  1
  C  790  1  0.69766800  0.80545500  0.36569700  1
  C  791  1  0.66849000  0.80923100  0.36268700  1
  C  792  1  0.64797300  0.79668200  0.37208400  1
  C  793  1  0.59908300  0.77019900  0.39057500  1
  C  794  1  0.63472800  0.76325600  0.42073400  1
  C  795  1  0.64992200  0.77832300  0.43203700  1
  C  796  1  0.65014300  0.77819100  0.45364900  1
  C  797  1  0.63519900  0.76291400  0.46454400  1
  C  798  1  0.61941500  0.74812200  0.45359100  1
  C  799  1  0.61853000  0.74870500  0.43197700  1
  C  800  1  0.57982300  0.75681400  0.38055700  1
  C  801  1  0.55100000  0.76190100  0.37857000  1
  C  802  1  0.54010700  0.78036200  0.38693500  1
  C  803  1  0.55911900  0.79370200  0.39712900  1
  C  804  1  0.58808000  0.78879800  0.39876200  1
  C  821  1  0.30638600  0.35090700  0.71672900  1
  C  822  1  0.31492500  0.33971200  0.73428900  1
  C  823  1  0.32267800  0.34994100  0.75245900  1
  C  824  1  0.32200000  0.37171700  0.75381900  1
  C  825  1  0.31187000  0.38273400  0.73647100  1
  C  826  1  0.30488600  0.37255000  0.71803600  1
  C  828  1  0.30785300  0.37272400  0.79254400  1
  C  829  1  0.27846900  0.37562200  0.78895200  1
  C  830  1  0.25803900  0.36589400  0.80129100  1
  C  831  1  0.26635300  0.35319100  0.81782000  1
  C  832  1  0.29555300  0.35023800  0.82154700  1
  C  833  1  0.31599300  0.35968200  0.80896700  1
  C  834  1  0.36472200  0.37833900  0.78246200  1
  C  835  1  0.32892700  0.40841400  0.77557300  1
  C  836  1  0.31374100  0.41966600  0.79068000  1
  C  837  1  0.31345100  0.44127800  0.79058300  1
  C  838  1  0.32829300  0.45222300  0.77529100  1
  C  839  1  0.34406800  0.44131800  0.76045600  1
  C  840  1  0.34502800  0.41970600  0.76100400  1
  C  841  1  0.38400400  0.36837000  0.76905600  1
  C  842  1  0.41282400  0.36639000  0.77414500  1
  C  843  1  0.42370400  0.37474100  0.79261600  1
  C  844  1  0.40467700  0.38490900  0.80596900  1
  C  845  1  0.37571700  0.38652100  0.80106600  1
  C  862  1  0.30647300  0.64619600  0.30496200  1
  C  863  1  0.31496100  0.65740000  0.28739400  1
  C  864  1  0.32274600  0.64718500  0.26922300  1
  C  865  1  0.32219100  0.62540700  0.26787800  1
  C  866  1  0.31215000  0.61436900  0.28523800  1
  C  867  1  0.30510400  0.62454700  0.30366600  1
  C  869  1  0.30796900  0.62431300  0.22917100  1
  C  870  1  0.27860800  0.62134300  0.23281200  1
  C  871  1  0.25809400  0.63100100  0.22049400  1
  C  872  1  0.26629600  0.64369700  0.20393000  1
  C  873  1  0.29547000  0.64671100  0.20014400  1
  C  874  1  0.31599500  0.63734400  0.21271100  1
  C  875  1  0.36490000  0.61888700  0.23919800  1
  C  876  1  0.32929500  0.58871100  0.24616300  1
  C  877  1  0.31408800  0.57739200  0.23111600  1
  C  878  1  0.31391500  0.55578000  0.23124800  1
  C  879  1  0.32888800  0.54490300  0.24652200  1
  C  880  1  0.34468400  0.55587300  0.26129500  1
  C  881  1  0.34551500  0.57748800  0.26071600  1
  C  882  1  0.38415800  0.62890600  0.25258500  1
  C  883  1  0.41296800  0.63093800  0.24748000  1
  C  884  1  0.42387400  0.62253200  0.22904100  1
  C  885  1  0.40486800  0.61232800  0.21570200  1
  C  886  1  0.37591000  0.61069700  0.22060200  1
  C  903  1  0.30656600  0.70445200  0.65861600  1
  C  904  1  0.31503100  0.72203700  0.66980200  1
  C  905  1  0.32275900  0.74020800  0.65956400  1
  C  906  1  0.32213600  0.74154000  0.63778600  1
  C  907  1  0.31209200  0.72416500  0.62677200  1
  C  908  1  0.30512400  0.70573200  0.63696900  1
  C  910  1  0.30793100  0.78025600  0.63670600  1
  C  911  1  0.27855800  0.77662700  0.63379100  1
  C  912  1  0.25808700  0.78896100  0.64347500  1
  C  913  1  0.26634900  0.80550900  0.65617400  1
  C  914  1  0.29553600  0.80926700  0.65915200  1
  C  915  1  0.31601900  0.79671400  0.64971800  1
  C  916  1  0.36483000  0.77021000  0.63117900  1
  C  917  1  0.32912600  0.76324000  0.60106700  1
  C  918  1  0.31388100  0.77828300  0.58976600  1
  C  919  1  0.31366000  0.77815000  0.56815600  1
  C  920  1  0.32862400  0.76288600  0.55725900  1
  C  921  1  0.34445300  0.74811800  0.56821000  1
  C  922  1  0.34532200  0.74869000  0.58982300  1
  C  923  1  0.38411000  0.75682900  0.64118700  1
  C  924  1  0.41292600  0.76193100  0.64316700  1
  C  925  1  0.42380200  0.78038800  0.63478500  1
  C  926  1  0.40477700  0.79371600  0.62458500  1
  C  927  1  0.37581900  0.78880300  0.62296900  1
  C  944  1  0.30652000  0.29261300  0.36330900  1
  C  945  1  0.31503300  0.27505200  0.35210300  1
  C  946  1  0.32280100  0.25687700  0.36231600  1
  C  947  1  0.32219700  0.25551800  0.38409300  1
  C  948  1  0.31213500  0.27287300  0.39513000  1
  C  949  1  0.30510700  0.29130600  0.38495600  1
  C  951  1  0.30793500  0.21682400  0.38516000  1
  C  952  1  0.27857700  0.22046800  0.38812700  1
  C  953  1  0.25806200  0.20814900  0.37847200  1
  C  954  1  0.26626400  0.19159700  0.36576200  1
  C  955  1  0.29543800  0.18782100  0.36273500  1
  C  956  1  0.31596800  0.20036000  0.37213300  1
  C  957  1  0.36487900  0.22681100  0.39063300  1
  C  958  1  0.32924200  0.23377800  0.42078500  1
  C  959  1  0.31406700  0.21869800  0.43208300  1
  C  960  1  0.31386400  0.21881900  0.45369500  1
  C  961  1  0.32878500  0.23410300  0.46459500  1
  C  962  1  0.34455900  0.24890200  0.45364300  1
  C  963  1  0.34542000  0.24833900  0.43202800  1
  C  964  1  0.38415000  0.24018700  0.38061200  1
  C  965  1  0.41296600  0.23508500  0.37862200  1
  C  966  1  0.42384200  0.21662600  0.38700300  1
  C  967  1  0.40481700  0.20329300  0.39719500  1
  C  968  1  0.37585700  0.20819900  0.39880300  1
  C  985  1  0.31132700  0.35773500  0.30920000  1
  C  986  1  0.33880700  0.35631000  0.30071800  1
  C  987  1  0.34558100  0.36649800  0.28229900  1
  C  988  1  0.32531600  0.37887200  0.27205000  1
  C  989  1  0.29800600  0.38068400  0.28102900  1
  C  990  1  0.29103100  0.37016300  0.29924800  1
  C  992  1  0.30809800  0.37681300  0.23403800  1
  C  993  1  0.28443100  0.38666800  0.22492600  1
  C  994  1  0.26453900  0.37550200  0.21332500  1
  C  995  1  0.26719000  0.35399900  0.21091900  1
  C  996  1  0.28997400  0.34389900  0.22072100  1
  C  997  1  0.31003900  0.35511400  0.23209600  1
  C  998  1  0.36478600  0.38649700  0.24114000  1
  C  999  1  0.32671700  0.41458600  0.24924200  1
  C  1000  1  0.32779900  0.42581700  0.23058300  1
  C  1001  1  0.32611700  0.44740700  0.23050500  1
  C  1002  1  0.32429700  0.45867400  0.24909500  1
  C  1003  1  0.32460000  0.44749500  0.26775800  1
  C  1004  1  0.32569100  0.42590300  0.26785200  1
  C  1005  1  0.38670300  0.39576200  0.25286500  1
  C  1006  1  0.41523300  0.39407600  0.24697200  1
  C  1007  1  0.42280200  0.38308200  0.22908900  1
  C  1008  1  0.40128500  0.37406400  0.21705500  1
  C  1009  1  0.37263400  0.37616500  0.22276900  1
  C  1026  1  0.31142100  0.63942000  0.71283600  1
  C  1027  1  0.33889600  0.64082200  0.72133000  1
  C  1028  1  0.34565500  0.63062200  0.73974800  1
  C  1029  1  0.32534800  0.61830700  0.75002100  1
  C  1030  1  0.29803600  0.61652600  0.74104000  1
  C  1031  1  0.29109700  0.62702700  0.72280300  1
  C  1033  1  0.30822800  0.62037000  0.78805200  1
  C  1034  1  0.28451100  0.61057700  0.79716300  1
  C  1035  1  0.26471500  0.62177800  0.80881400  1
  C  1036  1  0.26751000  0.64326400  0.81127700  1
  C  1037  1  0.29033200  0.65331300  0.80146900  1
  C  1038  1  0.31031000  0.64205600  0.79005200  1
  C  1039  1  0.36485100  0.61053400  0.78086700  1
  C  1040  1  0.32662300  0.58256500  0.77277400  1
  C  1041  1  0.32758100  0.57130000  0.79141700  1
  C  1042  1  0.32572900  0.54971700  0.79146500  1
  C  1043  1  0.32389600  0.53847400  0.77285800  1
  C  1044  1  0.32439200  0.54968200  0.75421500  1
  C  1045  1  0.32558100  0.57127100  0.75415200  1
  C  1046  1  0.38669200  0.60125100  0.76908000  1
  C  1047  1  0.41525200  0.60289200  0.77490500  1
  C  1048  1  0.42292900  0.61384100  0.79279000  1
  C  1049  1  0.40149000  0.62286200  0.80489300  1
  C  1050  1  0.37281000  0.62081800  0.79924100  1
  C  1067  1  0.31128500  0.70027400  0.37010200  1
  C  1068  1  0.33875800  0.70876200  0.36864600  1
  C  1069  1  0.34555700  0.72716900  0.37885000  1
  C  1070  1  0.32529500  0.73743800  0.39120900  1
  C  1071  1  0.29798300  0.72846100  0.39302800  1
  C  1072  1  0.29100600  0.71022300  0.38254500  1
  C  1074  1  0.30811700  0.77546100  0.38917000  1
  C  1075  1  0.28445400  0.78457500  0.39902800  1
  C  1076  1  0.26457100  0.79619400  0.38787600  1
  C  1077  1  0.26722400  0.79862100  0.36637400  1
  C  1078  1  0.29000100  0.78882100  0.35626700  1
  C  1079  1  0.31006300  0.77743200  0.36747500  1
  C  1080  1  0.36480300  0.76831100  0.39885300  1
  C  1081  1  0.32671900  0.76022900  0.42693300  1
  C  1082  1  0.32779100  0.77888100  0.43817600  1
  C  1083  1  0.32603900  0.77895500  0.45976300  1
  C  1084  1  0.32415700  0.76036400  0.47102500  1
  C  1085  1  0.32450000  0.74170500  0.45983900  1
  C  1086  1  0.32563600  0.74161900  0.43824600  1
  C  1087  1  0.38669900  0.75655500  0.40810300  1
  C  1088  1  0.41524200  0.76241700  0.40641800  1
  C  1089  1  0.42284200  0.78029700  0.39543300  1
  C  1090  1  0.40134900  0.79236800  0.38643700  1
  C  1091  1  0.37268700  0.78668200  0.38853100  1
  C  1108  1  0.31138700  0.29667400  0.65172500  1
  C  1109  1  0.33884300  0.28816200  0.65320200  1
  C  1110  1  0.34561900  0.26973400  0.64302700  1
  C  1111  1  0.32534600  0.25947000  0.63067300  1
  C  1112  1  0.29804900  0.26846100  0.62883700  1
  C  1113  1  0.29109300  0.28671700  0.63929900  1
  C  1115  1  0.30823400  0.22144800  0.63274100  1
  C  1116  1  0.28453500  0.21233200  0.62293100  1
  C  1117  1  0.26470900  0.20070000  0.63412600  1
  C  1118  1  0.26748400  0.19823700  0.65561500  1
  C  1119  1  0.29031500  0.20802500  0.66567200  1
  C  1120  1  0.31030400  0.21944200  0.65442600  1
  C  1121  1  0.36487100  0.22861700  0.62295300  1
  C  1122  1  0.32671000  0.23671300  0.59493900  1
  C  1123  1  0.32765700  0.21806800  0.58367900  1
  C  1124  1  0.32590900  0.21802000  0.56209100  1
  C  1125  1  0.32418900  0.23662800  0.55084200  1
  C  1126  1  0.32464900  0.25527300  0.56205000  1
  C  1127  1  0.32574000  0.25533600  0.58364200  1
  C  1128  1  0.38674100  0.24041800  0.61372500  1
  C  1129  1  0.41529700  0.23459400  0.61541400  1
  C  1130  1  0.42293300  0.21668600  0.62634000  1
  C  1131  1  0.40146500  0.20455900  0.63529300  1
  C  1132  1  0.37279100  0.21022200  0.63321500  1
  C  1149  1  0.65268300  0.63926900  0.30922200  1
  C  1150  1  0.62522100  0.64075400  0.30071800  1
  C  1151  1  0.61841500  0.63056100  0.28230700  1
  C  1152  1  0.63866500  0.61818500  0.27204400  1
  C  1153  1  0.66596800  0.61634300  0.28102500  1
  C  1154  1  0.67295600  0.62683500  0.29925800  1
  C  1156  1  0.65582100  0.62023200  0.23402700  1
  C  1157  1  0.67945900  0.61037100  0.22488500  1
  C  1158  1  0.69932900  0.62152900  0.21325700  1
  C  1159  1  0.69668500  0.64303300  0.21085300  1
  C  1160  1  0.67391000  0.65313600  0.22066100  1
  C  1161  1  0.65386100  0.64192400  0.23205600  1
  C  1162  1  0.59914400  0.61055200  0.24116600  1
  C  1163  1  0.63720900  0.58246100  0.24926800  1
  C  1164  1  0.63611600  0.57122100  0.23061300  1
  C  1165  1  0.63776900  0.54963100  0.23054300  1
  C  1166  1  0.63955100  0.53836600  0.24913600  1
  C  1167  1  0.63920900  0.54955400  0.26779500  1
  C  1168  1  0.63822000  0.57114900  0.26788100  1
  C  1169  1  0.57723100  0.60133600  0.25293200  1
  C  1170  1  0.54869300  0.60304200  0.24706600  1
  C  1171  1  0.54111800  0.61399200  0.22915800  1
  C  1172  1  0.56263000  0.62294900  0.21707700  1
  C  1173  1  0.59128300  0.62084900  0.22277700  1
  C  1190  1  0.65256000  0.35759800  0.71289000  1
  C  1191  1  0.62512100  0.35611600  0.72143300  1
  C  1192  1  0.61833900  0.36633600  0.73983400  1
  C  1193  1  0.63861000  0.37870900  0.75007400  1
  C  1194  1  0.66592200  0.38050100  0.74109400  1
  C  1195  1  0.67286300  0.37001700  0.72284600  1
  C  1197  1  0.65568600  0.37667900  0.78811200  1
  C  1198  1  0.67940200  0.38647700  0.79721700  1
  C  1199  1  0.69919800  0.37527700  0.80887600  1
  C  1200  1  0.69638800  0.35379200  0.81135500  1
  C  1201  1  0.67353700  0.34374800  0.80158300  1
  C  1202  1  0.65356900  0.35500100  0.79015400  1
  C  1203  1  0.59907400  0.38652600  0.78088500  1
  C  1204  1  0.63731700  0.41447800  0.77277200  1
  C  1205  1  0.63636400  0.42575800  0.79140600  1
  C  1206  1  0.63816300  0.44734400  0.79143000  1
  C  1207  1  0.63990700  0.45857200  0.77280900  1
  C  1208  1  0.63939800  0.44734400  0.75417600  1
  C  1209  1  0.63826700  0.42575400  0.75413600  1
  C  1210  1  0.57724600  0.39575600  0.76904600  1
  C  1211  1  0.54867600  0.39411700  0.77484800  1
  C  1212  1  0.54097800  0.38320400  0.79275000  1
  C  1213  1  0.56240600  0.37424100  0.80490900  1
  C  1214  1  0.59109500  0.37628900  0.79928100  1
  C  1231  1  0.65254100  0.29669400  0.37000500  1
  C  1232  1  0.62508300  0.28818100  0.36856700  1
  C  1233  1  0.61831300  0.26978800  0.37880600  1
  C  1234  1  0.63858900  0.25956700  0.39119400  1
  C  1235  1  0.66589200  0.26856100  0.39298900  1
  C  1236  1  0.67284800  0.28677300  0.38244800  1
  C  1238  1  0.65580200  0.22155600  0.38916400  1
  C  1239  1  0.67947600  0.21244900  0.39901600  1
  C  1240  1  0.69934600  0.20082100  0.38785400  1
  C  1241  1  0.69667200  0.19839300  0.36635600  1
  C  1242  1  0.67387200  0.20817400  0.35625900  1
  C  1243  1  0.65382100  0.21956600  0.36747500  1
  C  1244  1  0.59912700  0.22867800  0.39889700  1
  C  1245  1  0.63725200  0.23680700  0.42693700  1
  C  1246  1  0.63618600  0.21815500  0.43818600  1
  C  1247  1  0.63794700  0.21809100  0.45977400  1
  C  1248  1  0.63981300  0.23668800  0.47102800  1
  C  1249  1  0.63942800  0.25534200  0.45983400  1
  C  1250  1  0.63830700  0.25542200  0.43824200  1
  C  1251  1  0.57723100  0.24043200  0.40815000  1
  C  1252  1  0.54869100  0.23456300  0.40647600  1
  C  1253  1  0.54109000  0.21667000  0.39551200  1
  C  1254  1  0.56258600  0.20460200  0.38651100  1
  C  1255  1  0.59124500  0.21030100  0.38858700  1
  C  1272  1  0.65261300  0.70042600  0.65177600  1
  C  1273  1  0.62514700  0.70892100  0.65321300  1
  C  1274  1  0.61835400  0.72731300  0.64298300  1
  C  1275  1  0.63862900  0.73756600  0.63062200  1
  C  1276  1  0.66595800  0.72860900  0.62885300  1
  C  1277  1  0.67292200  0.71037800  0.63935900  1
  C  1279  1  0.65573200  0.77560100  0.63267500  1
  C  1280  1  0.67942900  0.78472200  0.62286900  1
  C  1281  1  0.69924900  0.79635400  0.63407200  1
  C  1282  1  0.69648800  0.79878200  0.65556600  1
  C  1283  1  0.67366600  0.78898000  0.66561800  1
  C  1284  1  0.65367700  0.77757200  0.65436300  1
  C  1285  1  0.59911000  0.76840900  0.62287200  1
  C  1286  1  0.63731100  0.76031000  0.59487600  1
  C  1287  1  0.63626900  0.77895700  0.58361900  1
  C  1288  1  0.63800800  0.77900900  0.56203000  1
  C  1289  1  0.63981500  0.76040400  0.55078300  1
  C  1290  1  0.63946800  0.74175600  0.56198700  1
  C  1291  1  0.63834300  0.74169000  0.58357900  1
  C  1292  1  0.57725500  0.75662800  0.61360200  1
  C  1293  1  0.54869700  0.76245400  0.61527000  1
  C  1294  1  0.54104200  0.78034200  0.62622300  1
  C  1295  1  0.56249900  0.79245000  0.63521600  1
  C  1296  1  0.59117500  0.78679300  0.63315100  1
  C  1313  1  0.15814300  0.97578300  0.27705900  1
  C  1315  1  0.13620000  0.00610900  0.29066100  1
  C  1316  1  0.15350900  0.01875200  0.27824900  1
  C  1318  1  0.17598800  0.98837300  0.26485000  1
  C  1321  1  0.22348300  0.97867000  0.26116700  1
  C  1325  1  0.15774700  0.02126600  0.74487200  1
  C  1327  1  0.13591300  0.99094100  0.73117100  1
  C  1328  1  0.15313200  0.97829900  0.74365200  1
  C  1330  1  0.17552700  0.00867300  0.75712800  1
  C  1333  1  0.22299900  0.01839200  0.76092600  1
  C  1337  1  0.15771000  0.73250600  0.98824000  1
  C  1339  1  0.13585100  0.71886000  0.01857800  1
  C  1340  1  0.15314400  0.73129800  0.03121100  1
  C  1342  1  0.17553600  0.74474000  0.00082100  1
  C  1345  1  0.22300200  0.74849000  0.99106400  1
  C  1349  1  0.15820400  0.26470600  0.03372400  1
  C  1351  1  0.13628600  0.27835600  0.00340600  1
  C  1352  1  0.15350400  0.26588200  0.99075800  1
  C  1354  1  0.17597800  0.25245400  0.02112400  1
  C  1357  1  0.22347400  0.24869900  0.03080000  1
  C  1361  1  0.80582900  0.02129700  0.27704800  1
  C  1363  1  0.82774600  0.99096000  0.29064600  1
  C  1364  1  0.81043100  0.97832900  0.27822600  1
  C  1366  1  0.78796700  0.00871700  0.26484200  1
  C  1369  1  0.74048200  0.01844900  0.26117600  1
  C  1373  1  0.80618000  0.97572800  0.74485100  1
  C  1375  1  0.82802800  0.00605700  0.73116800  1
  C  1376  1  0.81079900  0.01869500  0.74364600  1
  C  1378  1  0.78839900  0.98831900  0.75710800  1
  C  1381  1  0.74092600  0.97859500  0.76089500  1
  C  1385  1  0.80631200  0.26447000  0.98820500  1
  C  1387  1  0.82816100  0.27812200  0.01854300  1
  C  1388  1  0.81084000  0.26571000  0.03117700  1
  C  1390  1  0.78846100  0.25225700  0.00078600  1
  C  1393  1  0.74099400  0.24853600  0.99102000  1
  C  1397  1  0.80585400  0.73235200  0.03374100  1
  C  1399  1  0.82776500  0.71869700  0.00342400  1
  C  1400  1  0.81055200  0.73117500  0.99077500  1
  C  1402  1  0.78809200  0.74461500  0.02114100  1
  C  1405  1  0.74059600  0.74839200  0.03081000  1
  C  1409  1  0.64001500  0.48047000  0.77299100  1
  C  1411  1  0.62326500  0.51102900  0.78983400  1
  C  1412  1  0.63645100  0.52327300  0.77476600  1
  C  1414  1  0.65421700  0.49301500  0.75836200  1
  C  1417  1  0.70008800  0.48341300  0.74846700  1
  C  1421  1  0.63955100  0.51647400  0.24891900  1
  C  1423  1  0.62245200  0.48597500  0.23216700  1
  C  1424  1  0.63586000  0.47369000  0.24709400  1
  C  1426  1  0.65395700  0.50388900  0.26340800  1
  C  1429  1  0.69999700  0.51342600  0.27293800  1
  C  1433  1  0.63991900  0.23647400  0.49292000  1
  C  1435  1  0.62289700  0.21976300  0.52346400  1
  C  1436  1  0.63636200  0.23469400  0.53571200  1
  C  1438  1  0.65438500  0.25096400  0.50546600  1
  C  1441  1  0.70039700  0.26045600  0.49581900  1
  C  1445  1  0.63987500  0.76060700  0.52888800  1
  C  1447  1  0.62287100  0.77736700  0.49836100  1
  C  1448  1  0.63621800  0.76239400  0.48609600  1
  C  1450  1  0.65423000  0.74607600  0.51632200  1
  C  1453  1  0.70022100  0.73644800  0.52588300  1
  C  1457  1  0.32374000  0.51657700  0.77305700  1
  C  1459  1  0.34055300  0.48601000  0.78984600  1
  C  1460  1  0.32725700  0.47377800  0.77482200  1
  C  1462  1  0.30942900  0.50404400  0.75847300  1
  C  1465  1  0.26352600  0.51370300  0.74871600  1
  C  1469  1  0.32424400  0.48056600  0.24886800  1
  C  1471  1  0.34134900  0.51107900  0.23214400  1
  C  1472  1  0.32788800  0.52335100  0.24705700  1
  C  1474  1  0.30978300  0.49313800  0.26333800  1
  C  1477  1  0.26373600  0.48355900  0.27280600  1
  C  1481  1  0.32406000  0.76058300  0.49291700  1
  C  1483  1  0.34111000  0.77729200  0.52345400  1
  C  1484  1  0.32763000  0.76237200  0.53570700  1
  C  1486  1  0.30957700  0.74610600  0.50547000  1
  C  1489  1  0.26355000  0.73663600  0.49583800  1
  C  1493  1  0.32412500  0.23642800  0.52894400  1
  C  1495  1  0.34095500  0.21957600  0.49841500  1
  C  1496  1  0.32777000  0.23462300  0.48614900  1
  C  1498  1  0.30991600  0.25103400  0.51637600  1
  C  1501  1  0.26401400  0.26089600  0.52592400  1
  C  1505  1  0.24562000  0.18001200  0.35515000  1
  C  1507  1  0.20615000  0.18051600  0.33206000  1
  C  1508  1  0.20577000  0.15875600  0.33117400  1
  C  1510  1  0.24505700  0.15828700  0.35496400  1
  C  1513  1  0.25393400  0.14053400  0.38562600  1
  C  1517  1  0.24574500  0.81709300  0.66682900  1
  C  1519  1  0.20627000  0.81656400  0.68991400  1
  C  1520  1  0.20591700  0.83832100  0.69085100  1
  C  1522  1  0.24521300  0.83881900  0.66707100  1
  C  1525  1  0.25404000  0.85664000  0.63643800  1
  C  1529  1  0.24565000  0.65432400  0.19236400  1
  C  1531  1  0.20618700  0.67742000  0.19290800  1
  C  1532  1  0.20577700  0.67831800  0.17115000  1
  C  1534  1  0.24506300  0.65453000  0.17063800  1
  C  1537  1  0.25391500  0.62388500  0.15284800  1
  C  1541  1  0.24578800  0.34252000  0.82942300  1
  C  1543  1  0.20629900  0.31944500  0.82894000  1
  C  1544  1  0.20598500  0.31851800  0.85069800  1
  C  1546  1  0.24529200  0.34228900  0.85115100  1
  C  1549  1  0.25414400  0.37292900  0.86895400  1
  C  1553  1  0.71830200  0.81703800  0.35507300  1
  C  1555  1  0.75778200  0.81654100  0.33199300  1
  C  1556  1  0.75816100  0.83830100  0.33111200  1
  C  1558  1  0.71887400  0.83876600  0.35490000  1
  C  1561  1  0.71000800  0.85650600  0.38557200  1
  C  1565  1  0.71823600  0.17994200  0.66679100  1
  C  1567  1  0.75771400  0.18045400  0.68987200  1
  C  1568  1  0.75806800  0.15869600  0.69079400  1
  C  1570  1  0.71876300  0.15821400  0.66702000  1
  C  1573  1  0.70992800  0.14040700  0.63638200  1
  C  1577  1  0.71837400  0.34287400  0.19229600  1
  C  1579  1  0.75784100  0.31978300  0.19284500  1
  C  1580  1  0.75827800  0.31890300  0.17108700  1
  C  1582  1  0.71899700  0.34269700  0.17057000  1
  C  1585  1  0.71015900  0.37336200  0.15281100  1
  C  1589  1  0.71819100  0.65440400  0.82949800  1
  C  1591  1  0.75765700  0.67750000  0.82899800  1
  C  1592  1  0.75799000  0.67842500  0.85075700  1
  C  1594  1  0.71870600  0.65463500  0.85122600  1
  C  1597  1  0.70988500  0.62399000  0.86902600  1
  C  1601  1  0.71621000  0.81053900  0.66696900  1
  C  1603  1  0.74571500  0.81274200  0.69684400  1
  C  1604  1  0.75353100  0.83305500  0.69162700  1
  C  1606  1  0.72396100  0.83088700  0.66162800  1
  C  1609  1  0.68937500  0.85342500  0.64891300  1
  C  1613  1  0.71644100  0.18663100  0.35499700  1
  C  1615  1  0.74602200  0.18439200  0.32516500  1
  C  1616  1  0.75377700  0.16406800  0.33039100  1
  C  1618  1  0.72415800  0.16628300  0.36036400  1
  C  1621  1  0.68950400  0.14378300  0.37305000  1
  C  1625  1  0.71611700  0.34239100  0.82311100  1
  C  1627  1  0.74559400  0.31250300  0.82532000  1
  C  1628  1  0.75350400  0.31776400  0.84560300  1
  C  1630  1  0.72396100  0.34777500  0.84342800  1
  C  1633  1  0.68949800  0.36058200  0.86601500  1
  C  1637  1  0.71644500  0.65439500  0.19908800  1
  C  1639  1  0.74602900  0.68422800  0.19686000  1
  C  1640  1  0.75375600  0.67902200  0.17652500  1
  C  1642  1  0.72414700  0.64904300  0.17873400  1
  C  1645  1  0.68948300  0.63637500  0.15623200  1
  C  1649  1  0.24776200  0.18647100  0.66701200  1
  C  1651  1  0.21826800  0.18424400  0.69689000  1
  C  1652  1  0.21041700  0.16394700  0.69164100  1
  C  1654  1  0.23996100  0.16614400  0.66163100  1
  C  1657  1  0.27447900  0.14358800  0.64885000  1
  C  1661  1  0.24745500  0.81039300  0.35502700  1
  C  1663  1  0.21783600  0.81264800  0.32521400  1
  C  1664  1  0.21009900  0.83297200  0.33044900  1
  C  1666  1  0.23975900  0.83074500  0.36039900  1
  C  1669  1  0.27444700  0.85323100  0.37306100  1
  C  1673  1  0.24780300  0.65466300  0.82305200  1
  C  1675  1  0.21826600  0.68451700  0.82528200  1
  C  1676  1  0.21041400  0.67925900  0.84557700  1
  C  1678  1  0.24002200  0.64928100  0.84338400  1
  C  1681  1  0.27458300  0.63653200  0.86592200  1
  C  1685  1  0.24743000  0.34264000  0.19915200  1
  C  1687  1  0.21784900  0.31280700  0.19690200  1
  C  1688  1  0.21015400  0.31801200  0.17656100  1
  C  1690  1  0.23976600  0.34798600  0.17878800  1
  C  1693  1  0.27448100  0.36063900  0.15631700  1
  C  1697  1  0.15947800  0.18490600  0.16856900  1
  C  1699  1  0.13752800  0.15397300  0.18073600  1
  C  1700  1  0.15594500  0.15348200  0.19783000  1
  C  1702  1  0.17971000  0.18344600  0.18461100  1
  C  1705  1  0.22765200  0.19278200  0.18666200  1
  C  1709  1  0.15918500  0.81222100  0.85337000  1
  C  1711  1  0.13717100  0.84310500  0.84115500  1
  C  1712  1  0.15563600  0.84358800  0.82408500  1
  C  1714  1  0.17947900  0.81371100  0.83737400  1
  C  1717  1  0.22749600  0.80453000  0.83553900  1
  C  1721  1  0.15941000  0.84092000  0.19735000  1
  C  1723  1  0.13751500  0.82879800  0.16639500  1
  C  1724  1  0.15591500  0.81169200  0.16591600  1
  C  1726  1  0.17964500  0.82488000  0.19590900  1
  C  1729  1  0.22756600  0.82278300  0.20529300  1
  C  1733  1  0.15926000  0.15605700  0.82469900  1
  C  1735  1  0.13719700  0.16828900  0.85556900  1
  C  1736  1  0.15567000  0.18535500  0.85606700  1
  C  1738  1  0.17953900  0.17206000  0.82620200  1
  C  1741  1  0.22757000  0.17388300  0.81705300  1
  C  1745  1  0.80458900  0.81215400  0.16856500  1
  C  1747  1  0.82649600  0.84311100  0.18068700  1
  C  1748  1  0.80807700  0.84359900  0.19777900  1
  C  1750  1  0.78433900  0.81361600  0.18459400  1
  C  1753  1  0.73640300  0.80426400  0.18665700  1
  C  1757  1  0.80461900  0.18473800  0.85338000  1
  C  1759  1  0.82663400  0.15385600  0.84113500  1
  C  1760  1  0.80818500  0.15339700  0.82405500  1
  C  1762  1  0.78435600  0.18327200  0.83736200  1
  C  1765  1  0.73635200  0.19248500  0.83553400  1
  C  1769  1  0.80442800  0.15615100  0.19731300  1
  C  1771  1  0.82632600  0.16834500  0.16637000  1
  C  1772  1  0.80795200  0.18546200  0.16596100  1
  C  1774  1  0.78422500  0.17222000  0.19591100  1
  C  1777  1  0.73631200  0.17427900  0.20532100  1
  C  1781  1  0.80466800  0.84093500  0.82467400  1
  C  1783  1  0.82670100  0.82870400  0.85556100  1
  C  1784  1  0.80821900  0.81164400  0.85607300  1
  C  1786  1  0.78438600  0.82493300  0.82618200  1
  C  1789  1  0.73636500  0.82310000  0.81701000  1
  C  1793  1  0.66017300  0.68430200  0.66523600  1
  C  1795  1  0.64528000  0.65260800  0.68055000  1
  C  1796  1  0.66190400  0.65678000  0.69810700  1
  C  1798  1  0.67858800  0.68778400  0.68207200  1
  C  1801  1  0.72286600  0.70407200  0.68362100  1
  C  1805  1  0.66011200  0.31278400  0.35649800  1
  C  1807  1  0.64518500  0.34445300  0.34117100  1
  C  1808  1  0.66176900  0.34022900  0.32360100  1
  C  1810  1  0.67851800  0.30928000  0.33966900  1
  C  1813  1  0.72286100  0.29307300  0.33820500  1
  C  1817  1  0.66008200  0.34415600  0.69673300  1
  C  1819  1  0.64508300  0.32886600  0.66507300  1
  C  1820  1  0.66182800  0.31135500  0.66918100  1
  C  1822  1  0.67863500  0.32738800  0.70014300  1
  C  1825  1  0.72303500  0.32594500  0.71625800  1
  C  1829  1  0.66029200  0.65278200  0.32529400  1
  C  1831  1  0.64537300  0.66814500  0.35696000  1
  C  1832  1  0.66197900  0.68570100  0.35272800  1
  C  1834  1  0.67871100  0.66960500  0.32179100  1
  C  1837  1  0.72305600  0.67101500  0.30558500  1
  C  1841  1  0.30384200  0.31282600  0.66516100  1
  C  1843  1  0.31875800  0.34450200  0.68048100  1
  C  1844  1  0.30203600  0.34036000  0.69799200  1
  C  1846  1  0.28531400  0.30938200  0.68194100  1
  C  1849  1  0.24095900  0.29319900  0.68339200  1
  C  1853  1  0.30368300  0.68419900  0.35659200  1
  C  1855  1  0.31860100  0.65252500  0.34124400  1
  C  1856  1  0.30200700  0.65675300  0.32368300  1
  C  1858  1  0.28527200  0.68769800  0.33976200  1
  C  1861  1  0.24093300  0.70390900  0.33832500  1
  C  1865  1  0.30389200  0.65287500  0.69669700  1
  C  1867  1  0.31888500  0.66820500  0.66503200  1
  C  1868  1  0.30218500  0.68572400  0.66917900  1
  C  1870  1  0.28538900  0.66967300  0.70012400  1
  C  1873  1  0.24101000  0.67115500  0.71627200  1
  C  1877  1  0.30372700  0.34424800  0.32529100  1
  C  1879  1  0.31861600  0.32890900  0.35698400  1
  C  1880  1  0.30204100  0.31133600  0.35276500  1
  C  1882  1  0.28534400  0.32739900  0.32179300  1
  C  1885  1  0.24103100  0.32591900  0.30554500  1
  C  1889  1  0.94846000  0.10977400  0.29072700  1
  C  1891  1  0.99123400  0.11577600  0.27190800  1
  C  1892  1  0.00765500  0.10949400  0.28892100  1
  C  1894  1  0.96471600  0.10466100  0.30832800  1
  C  1897  1  0.95838700  0.10865100  0.34410500  1
  C  1901  1  0.94841600  0.88689900  0.73085300  1
  C  1903  1  0.99121000  0.88056800  0.74952700  1
  C  1904  1  0.00759400  0.88713100  0.73260100  1
  C  1906  1  0.96463800  0.89229000  0.71332200  1
  C  1909  1  0.95807800  0.88882500  0.67751800  1
  C  1913  1  0.94838400  0.71864500  0.12233000  1
  C  1915  1  0.99112800  0.73744700  0.12847000  1
  C  1916  1  0.00757100  0.72047000  0.12212400  1
  C  1918  1  0.96465700  0.70107500  0.11714700  1
  C  1921  1  0.95829800  0.66528300  0.12095800  1
  C  1925  1  0.94852600  0.27852300  0.89931300  1
  C  1927  1  0.99135900  0.25986400  0.89306000  1
  C  1928  1  0.00770800  0.27680100  0.89963600  1
  C  1930  1  0.96472000  0.29606100  0.90472700  1
  C  1933  1  0.95813700  0.33186000  0.90124600  1
  C  1937  1  0.01549300  0.88741400  0.29070000  1
  C  1939  1  0.97274200  0.88143100  0.27184500  1
  C  1940  1  0.95629400  0.88764200  0.28887200  1
  C  1942  1  0.99921400  0.89246000  0.30830800  1
  C  1945  1  0.00548700  0.88838500  0.34408400  1
  C  1949  1  0.01550900  0.11010200  0.73092200  1
  C  1951  1  0.97270800  0.11635000  0.74961700  1
  C  1952  1  0.95633000  0.10981600  0.73267600  1
  C  1954  1  0.99929100  0.10472900  0.71338200  1
  C  1957  1  0.00582600  0.10827100  0.67758400  1
  C  1961  1  0.01559900  0.27830400  0.12215500  1
  C  1963  1  0.97285700  0.25946700  0.12820600  1
  C  1964  1  0.95640600  0.27647400  0.12194700  1
  C  1966  1  0.99932000  0.29590000  0.11706900  1
  C  1969  1  0.00561200  0.33168200  0.12105600  1
  C  1973  1  0.01543300  0.71847300  0.89940500  1
  C  1975  1  0.97262600  0.73715300  0.89313400  1
  C  1976  1  0.95625100  0.72021900  0.89969200  1
  C  1978  1  0.99921900  0.70093900  0.90480200  1
  C  1981  1  0.00577000  0.66513600  0.90131000  1
  C  1985  1  0.45183200  0.61683100  0.79721000  1
  C  1987  1  0.49217000  0.63825500  0.79149700  1
  C  1988  1  0.51054500  0.62176900  0.79629700  1
  C  1990  1  0.46995900  0.60050800  0.80298200  1
  C  1993  1  0.45571800  0.57780600  0.82885400  1
  C  1997  1  0.45167900  0.38008400  0.22457200  1
  C  1999  1  0.49197300  0.35857700  0.23009100  1
  C  2000  1  0.51037600  0.37505800  0.22531600  1
  C  2002  1  0.46981200  0.39640700  0.21882300  1
  C  2005  1  0.45550600  0.41919000  0.19304100  1
  C  2009  1  0.45182100  0.21223500  0.62934500  1
  C  2011  1  0.49216200  0.21796000  0.65076200  1
  C  2012  1  0.51054500  0.21310000  0.63429700  1
  C  2014  1  0.46994200  0.20641700  0.61303700  1
  C  2017  1  0.45569700  0.18052300  0.59036400  1
  C  2021  1  0.45172400  0.78479700  0.39244900  1
  C  2023  1  0.49207300  0.77911800  0.37101700  1
  C  2024  1  0.51044500  0.78392400  0.38750500  1
  C  2026  1  0.46985300  0.79057200  0.40876800  1
  C  2029  1  0.45557400  0.81646100  0.43144100  1
  C  2033  1  0.51207300  0.38019700  0.79714200  1
  C  2035  1  0.47173400  0.35881100  0.79134300  1
  C  2036  1  0.45336000  0.37528100  0.79621100  1
  C  2038  1  0.49396700  0.39650400  0.80299000  1
  C  2041  1  0.50818300  0.41910600  0.82895500  1
  C  2045  1  0.51224400  0.61698000  0.22463700  1
  C  2047  1  0.47192300  0.63842900  0.23031100  1
  C  2048  1  0.45353800  0.62195200  0.22549100  1
  C  2050  1  0.49411600  0.60066900  0.21884800  1
  C  2053  1  0.50838800  0.57799600  0.19295900  1
  C  2057  1  0.51214700  0.78478000  0.62923100  1
  C  2059  1  0.47185300  0.77914800  0.65069900  1
  C  2060  1  0.45345700  0.78397200  0.63423100  1
  C  2062  1  0.49402400  0.79057500  0.61291600  1
  C  2065  1  0.50829700  0.81640600  0.59018000  1
  C  2069  1  0.51221000  0.21216000  0.39253700  1
  C  2071  1  0.47188300  0.21784100  0.37109400  1
  C  2072  1  0.45350000  0.21305200  0.38758200  1
  C  2074  1  0.49408200  0.20640600  0.40886000  1
  C  2077  1  0.50835600  0.18053700  0.43155700  1
  N  1314  1  0.13905300  0.98545800  0.28938900  1
  N  1317  1  0.17256200  0.00912500  0.26580400  1
  N  1326  1  0.13873300  0.01159300  0.73247800  1
  N  1329  1  0.17211400  0.98792300  0.75615400  1
  N  1338  1  0.13866800  0.72014500  0.99792500  1
  N  1341  1  0.17214700  0.74377200  0.02157300  1
  N  1350  1  0.13914400  0.27706800  0.02405500  1
  N  1353  1  0.17252500  0.25340600  0.00037500  1
  N  1362  1  0.82491100  0.01161100  0.28937600  1
  N  1365  1  0.79137800  0.98796300  0.26579000  1
  N  1374  1  0.82520800  0.98540400  0.73246900  1
  N  1377  1  0.79181000  0.00906900  0.75613800  1
  N  1386  1  0.82535800  0.27682800  0.99789100  1
  N  1389  1  0.79183200  0.25323900  0.02154100  1
  N  1398  1  0.82490500  0.71998500  0.02407300  1
  N  1401  1  0.79154300  0.74366100  0.00039300  1
  N  1410  1  0.62535400  0.49031900  0.78814200  1
  N  1413  1  0.65151400  0.51377000  0.75974700  1
  N  1422  1  0.62461700  0.50667900  0.23387300  1
  N  1425  1  0.65119600  0.48314000  0.26200100  1
  N  1434  1  0.62500300  0.22144700  0.50275300  1
  N  1437  1  0.65168300  0.24958400  0.52622000  1
  N  1446  1  0.62501100  0.77567300  0.51906900  1
  N  1449  1  0.65148000  0.74746200  0.49557000  1
  N  1458  1  0.33848000  0.50672100  0.78816200  1
  N  1461  1  0.31211800  0.48328800  0.75984700  1
  N  1470  1  0.33920500  0.49037300  0.23384600  1
  N  1473  1  0.31252700  0.51388900  0.26194300  1
  N  1482  1  0.33899700  0.77560200  0.50274600  1
  N  1485  1  0.31228700  0.74749000  0.52622300  1
  N  1494  1  0.33883400  0.22128200  0.51912100  1
  N  1497  1  0.31266000  0.24963500  0.49562500  1
  N  1506  1  0.22594500  0.19013800  0.34371600  1
  N  1509  1  0.22552300  0.14890000  0.34288900  1
  N  1518  1  0.22606500  0.80695700  0.67824800  1
  N  1521  1  0.22567800  0.84819300  0.67915600  1
  N  1530  1  0.22598900  0.66575300  0.20250900  1
  N  1533  1  0.22551900  0.66666667  0.16127200  1
  N  1542  1  0.22608000  0.33110500  0.81930900  1
  N  1545  1  0.22576700  0.33021400  0.86054500  1
  N  1554  1  0.73798300  0.80691500  0.34364200  1
  N  1557  1  0.73841400  0.84815400  0.34283300  1
  N  1566  1  0.73791800  0.19006900  0.67821400  1
  N  1569  1  0.73829900  0.14883300  0.67909700  1
  N  1578  1  0.73802200  0.33143700  0.20244300  1
  N  1581  1  0.73855100  0.33062200  0.16120600  1
  N  1590  1  0.73787300  0.66583200  0.81937600  1
  N  1593  1  0.73822700  0.66666667  0.86061300  1
  N  1602  1  0.72728800  0.80249900  0.68454900  1
  N  1605  1  0.74208500  0.84113400  0.67419100  1
  N  1614  1  0.72756500  0.19465000  0.33742300  1
  N  1617  1  0.74228700  0.15601400  0.34782200  1
  N  1626  1  0.72714100  0.32478600  0.81508700  1
  N  1629  1  0.74211300  0.33522400  0.85366700  1
  N  1638  1  0.72758200  0.67196100  0.20711800  1
  N  1641  1  0.74226300  0.66159500  0.16846300  1
  N  1650  1  0.23670600  0.19449300  0.68460800  1
  N  1653  1  0.22182800  0.15589000  0.67418300  1
  N  1662  1  0.23630100  0.80237900  0.33746000  1
  N  1665  1  0.22162200  0.84102200  0.34787100  1
  N  1674  1  0.23671700  0.67224900  0.81503000  1
  N  1677  1  0.22186800  0.66181700  0.85363600  1
  N  1686  1  0.23628200  0.32507500  0.20717400  1
  N  1689  1  0.22166500  0.33543500  0.16850500  1
  N  1698  1  0.13942600  0.16990400  0.16740600  1
  N  1701  1  0.17612200  0.16838600  0.19895200  1
  N  1710  1  0.13905300  0.82717000  0.85448200  1
  N  1713  1  0.17591300  0.82875500  0.82302000  1
  N  1722  1  0.13939100  0.84212200  0.18233000  1
  N  1725  1  0.17606500  0.81055000  0.18083900  1
  N  1734  1  0.13910300  0.15496100  0.83963500  1
  N  1737  1  0.17596500  0.18641300  0.84124500  1
  N  1746  1  0.82462100  0.82716700  0.16737200  1
  N  1749  1  0.78790500  0.82869200  0.19891900  1
  N  1758  1  0.82474400  0.16978000  0.85447600  1
  N  1761  1  0.78792200  0.16824200  0.82299400  1
  N  1770  1  0.82443800  0.15499000  0.18227900  1
  N  1773  1  0.78779900  0.18659000  0.18087900  1
  N  1782  1  0.82481100  0.84202500  0.83962000  1
  N  1785  1  0.78795000  0.81058400  0.84123100  1
  N  1794  1  0.64411000  0.66691700  0.66539000  1
  N  1797  1  0.67741600  0.67441000  0.69810700  1
  N  1806  1  0.64400900  0.33014800  0.35633900  1
  N  1809  1  0.67733600  0.32262700  0.32361700  1
  N  1818  1  0.64391300  0.34400700  0.67940300  1
  N  1821  1  0.67746700  0.31136700  0.68675200  1
  N  1830  1  0.64418700  0.65297300  0.34265900  1
  N  1833  1  0.67754600  0.68566800  0.33512700  1
  N  1842  1  0.31995800  0.33018100  0.66533200  1
  N  1845  1  0.28645000  0.32276400  0.69797300  1
  N  1854  1  0.31978400  0.66683100  0.35641200  1
  N  1857  1  0.28644200  0.67435600  0.32370600  1
  N  1866  1  0.32003600  0.65305300  0.67935100  1
  N  1869  1  0.28656200  0.68571300  0.68675500  1
  N  1878  1  0.31980300  0.34406800  0.34266900  1
  N  1881  1  0.28651400  0.31135000  0.33514400  1
  N  1890  1  0.96271400  0.11534400  0.27342700  1
  N  1893  1  0.99352800  0.10422800  0.30642100  1
  N  1902  1  0.96268600  0.88105600  0.74805500  1
  N  1905  1  0.99345000  0.89269600  0.71520200  1
  N  1914  1  0.96261000  0.73592400  0.12799900  1
  N  1917  1  0.99346700  0.70299300  0.11674800  1
  N  1926  1  0.96283300  0.26132400  0.89350500  1
  N  1929  1  0.99353200  0.29419800  0.90517200  1
  N  1938  1  0.00126100  0.88187900  0.27338000  1
  N  1941  1  0.97040500  0.89287300  0.30639000  1
  N  1950  1  0.00123100  0.11588900  0.74813800  1
  N  1953  1  0.97047900  0.10430200  0.71526200  1
  N  1962  1  0.00137400  0.26099800  0.12774200  1
  N  1965  1  0.97051100  0.29398100  0.11666700  1
  N  1974  1  0.00114900  0.73568000  0.89359800  1
  N  1977  1  0.97040700  0.70281400  0.90522800  1
  N  1986  1  0.46378000  0.63502200  0.79165600  1
  N  1989  1  0.49837900  0.60359200  0.80180900  1
  N  1998  1  0.46358900  0.36185200  0.23003400  1
  N  2001  1  0.49822600  0.39327400  0.21990800  1
  N  2010  1  0.46377400  0.21782100  0.64752500  1
  N  2013  1  0.49836200  0.20757500  0.61612800  1
  N  2022  1  0.46368500  0.77923400  0.37426300  1
  N  2025  1  0.49827300  0.78943400  0.40567900  1
  N  2034  1  0.50012500  0.36203000  0.79151600  1
  N  2037  1  0.46554500  0.39343100  0.80179900  1
  N  2046  1  0.50030900  0.63517300  0.23020800  1
  N  2049  1  0.46569800  0.60377200  0.21997900  1
  N  2058  1  0.50023700  0.77926200  0.64744500  1
  N  2061  1  0.46560900  0.78944100  0.61603200  1
  N  2070  1  0.50027100  0.21771800  0.37434100  1
  N  2073  1  0.46566200  0.20755400  0.40576500  1
  O  1320  1  0.19604300  0.98066900  0.25176800  1
  O  1332  1  0.19552200  0.01637300  0.77026200  1
  O  1344  1  0.19554400  0.75785600  0.99310500  1
  O  1356  1  0.19600500  0.23934000  0.02881500  1
  O  1368  1  0.76791000  0.01643200  0.25176600  1
  O  1380  1  0.76839900  0.98061500  0.77023800  1
  O  1392  1  0.76843800  0.23915300  0.99307100  1
  O  1404  1  0.76807500  0.75773700  0.02883200  1
  O  1416  1  0.67076300  0.48546600  0.74282100  1
  O  1428  1  0.67075700  0.51140300  0.27882000  1
  O  1440  1  0.67117400  0.26636200  0.49790700  1
  O  1452  1  0.67095800  0.73063000  0.52385300  1
  O  1464  1  0.29281300  0.51160800  0.74297900  1
  O  1476  1  0.29295700  0.48561000  0.27872900  1
  O  1488  1  0.29276900  0.73071600  0.49791800  1
  O  1500  1  0.29333400  0.26656500  0.52389900  1
  O  1512  1  0.26400300  0.14642800  0.36559400  1
  O  1524  1  0.26414900  0.85068700  0.65644200  1
  O  1536  1  0.26399700  0.64390700  0.15876000  1
  O  1548  1  0.26424700  0.35292600  0.86299500  1
  O  1560  1  0.69993300  0.85062100  0.36553900  1
  O  1572  1  0.69982100  0.14635500  0.65638800  1
  O  1584  1  0.70007900  0.35332900  0.15869000  1
  O  1596  1  0.69976600  0.64399200  0.86307800  1
  O  1608  1  0.71366800  0.84078200  0.64461200  1
  O  1620  1  0.71381400  0.15640400  0.37737100  1
  O  1632  1  0.71374000  0.36482800  0.85330000  1
  O  1644  1  0.71379500  0.63204300  0.16884800  1
  O  1656  1  0.25021400  0.15627400  0.64458900  1
  O  1668  1  0.25013300  0.84061800  0.37740100  1
  O  1680  1  0.25030500  0.63224900  0.85325400  1
  O  1692  1  0.25014400  0.36498200  0.16890500  1
  O  1704  1  0.19851800  0.19895500  0.18862900  1
  O  1716  1  0.19841700  0.79824700  0.83349600  1
  O  1728  1  0.19841700  0.82084800  0.21143800  1
  O  1740  1  0.19850000  0.17593600  0.81075200  1
  O  1752  1  0.76554100  0.79810100  0.18861800  1
  O  1764  1  0.76543700  0.19875000  0.83348700  1
  O  1776  1  0.76546500  0.17622400  0.21145500  1
  O  1788  1  0.76544100  0.82104500  0.81072400  1
  O  1800  1  0.69256000  0.70605200  0.68470900  1
  O  1812  1  0.69256400  0.29102300  0.33713900  1
  O  1824  1  0.69275000  0.32478000  0.71835700  1
  O  1836  1  0.69276100  0.67211800  0.30353400  1
  O  1848  1  0.27125000  0.29114600  0.68454600  1
  O  1860  1  0.27122800  0.70595500  0.33724000  1
  O  1872  1  0.27129800  0.67227800  0.71834900  1
  O  1884  1  0.27133000  0.32485100  0.30352600  1
  O  1896  1  0.95213700  0.09714100  0.32576200  1
  O  1908  1  0.95198600  0.90009300  0.69603900  1
  O  1920  1  0.95209600  0.68368000  0.10952000  1
  O  1932  1  0.95203300  0.31334000  0.91250900  1
  O  1944  1  0.01177000  0.89993600  0.32577100  1
  O  1956  1  0.01194900  0.09697400  0.69608200  1
  O  1968  1  0.01187300  0.31334300  0.10954300  1
  O  1980  1  0.01188300  0.68365100  0.91258300  1
  O  1992  1  0.46004500  0.58120000  0.80722000  1
  O  2004  1  0.45990500  0.41573400  0.21465700  1
  O  2016  1  0.46003000  0.20216200  0.59373200  1
  O  2028  1  0.45991300  0.79482400  0.42806700  1
  O  2040  1  0.50389600  0.41579100  0.80730500  1
  O  2052  1  0.50404700  0.58136900  0.21459400  1
  O  2064  1  0.50391700  0.79478100  0.59359500  1
  O  2076  1  0.50401500  0.20216900  0.42816400  1
