# generated using pymatgen
data_H7C12(N3O2)2
_symmetry_space_group_name_H-M   'P 1'
_cell_length_a   21.80690000
_cell_length_b   59.27750000
_cell_length_c   59.27750000
_cell_angle_alpha   90.00000000
_cell_angle_beta   90.00000000
_cell_angle_gamma   90.00000000
_symmetry_Int_Tables_number   1
_chemical_formula_structural   H7C12(N3O2)2
_chemical_formula_sum   'H448 C768 N384 O256'
_cell_volume   76625.56510809
_cell_formula_units_Z   64
loop_
 _symmetry_equiv_pos_site_id
 _symmetry_equiv_pos_as_xyz
  1  'x, y, z'
loop_
 _atom_site_type_symbol
 _atom_site_label
 _atom_site_symmetry_multiplicity
 _atom_site_fract_x
 _atom_site_fract_y
 _atom_site_fract_z
 _atom_site_occupancy
  C  1  1  0.27522200  0.08576800  0.00669600  1
  C  2  1  0.29005400  0.10613200  0.99553300  1
  C  3  1  0.34596600  0.10918500  0.98419700  1
  C  4  1  0.39150700  0.09209500  0.98484400  1
  C  5  1  0.37615900  0.07052100  0.99406700  1
  C  6  1  0.31841700  0.06796700  0.00498100  1
  C  9  1  0.21655400  0.08358300  0.01711000  1
  C  10  1  0.18950700  0.10245000  0.02774700  1
  C  11  1  0.13073700  0.10175300  0.03755200  1
  C  12  1  0.09544100  0.08159500  0.03662400  1
  C  13  1  0.12273500  0.06188300  0.02694500  1
  C  14  1  0.18243700  0.06328000  0.01744400  1
  C  23  1  0.09091500  0.04106200  0.02627000  1
  C  24  1  0.11069400  0.12146700  0.04890800  1
  C  25  1  0.34836600  0.12672000  0.96804200  1
  C  26  1  0.41465500  0.05151100  0.99029300  1
  C  31  1  0.77373600  0.41012700  0.98780000  1
  C  32  1  0.78701800  0.38973800  0.99917800  1
  C  33  1  0.84221800  0.38646500  0.01090100  1
  C  34  1  0.88861900  0.40324900  0.01047600  1
  C  35  1  0.87489200  0.42480700  0.00088100  1
  C  36  1  0.81780200  0.42762800  0.98957500  1
  C  39  1  0.71561400  0.41270100  0.97707900  1
  C  40  1  0.68778400  0.39401300  0.96641600  1
  C  41  1  0.62939200  0.39516300  0.95634100  1
  C  42  1  0.59526700  0.41560600  0.95701800  1
  C  43  1  0.62329500  0.43508300  0.96688100  1
  C  44  1  0.68263600  0.43324700  0.97660300  1
  C  53  1  0.59237600  0.45607200  0.96780600  1
  C  54  1  0.60843800  0.37550700  0.94511900  1
  C  55  1  0.84276200  0.36919400  0.02734600  1
  C  56  1  0.91401900  0.44364100  0.00468400  1
  C  61  1  0.52522300  0.23834700  0.83557500  1
  C  62  1  0.53983700  0.24945100  0.85599900  1
  C  63  1  0.59645400  0.26021500  0.85939000  1
  C  64  1  0.64270800  0.25904100  0.84260500  1
  C  65  1  0.62763300  0.25004600  0.82091700  1
  C  66  1  0.56930500  0.23964700  0.81803400  1
  C  69  1  0.46610800  0.22834300  0.83307300  1
  C  70  1  0.43755100  0.21807800  0.85185100  1
  C  71  1  0.37859300  0.20845500  0.85077500  1
  C  72  1  0.34473200  0.20910100  0.83028300  1
  C  73  1  0.37345400  0.21849800  0.81072600  1
  C  74  1  0.43316300  0.22791300  0.81250600  1
  C  83  1  0.34304000  0.21900700  0.78963700  1
  C  84  1  0.35723300  0.19722000  0.87037600  1
  C  85  1  0.59887200  0.27666500  0.87666500  1
  C  86  1  0.66687000  0.25373200  0.80209000  1
  C  91  1  0.02600800  0.25775700  0.16051900  1
  C  92  1  0.04048600  0.24668400  0.14006800  1
  C  93  1  0.09621700  0.23525500  0.13690100  1
  C  94  1  0.14201400  0.23580300  0.15390300  1
  C  95  1  0.12703200  0.24495000  0.17554200  1
  C  96  1  0.06944400  0.25593400  0.17823100  1
  C  99  1  0.96736700  0.26815200  0.16289700  1
  C  100  1  0.93976100  0.27878500  0.14413500  1
  C  101  1  0.88091300  0.28852300  0.14503500  1
  C  102  1  0.84612100  0.28754100  0.16531300  1
  C  103  1  0.87399300  0.27784600  0.18490300  1
  C  104  1  0.93370600  0.26839900  0.18330200  1
  C  113  1  0.84267700  0.27697200  0.20581300  1
  C  114  1  0.86001400  0.29971100  0.12533600  1
  C  115  1  0.09822300  0.21909700  0.11935900  1
  C  116  1  0.16557400  0.24096300  0.19450000  1
  C  121  1  0.71691600  0.90670000  0.98856900  1
  C  122  1  0.70093800  0.88614400  0.99918400  1
  C  123  1  0.64300200  0.88250500  0.00886000  1
  C  124  1  0.59698200  0.89932500  0.00714300  1
  C  125  1  0.61338800  0.92121500  0.99901000  1
  C  126  1  0.67278200  0.92426700  0.98952200  1
  C  129  1  0.77706800  0.90921900  0.97940700  1
  C  130  1  0.80650000  0.89042600  0.96947400  1
  C  131  1  0.86633000  0.89142400  0.96060900  1
  C  132  1  0.90007200  0.91191100  0.96160800  1
  C  133  1  0.87035800  0.93155100  0.97038200  1
  C  134  1  0.81000400  0.92980800  0.97922800  1
  C  143  1  0.90016600  0.95275300  0.97035800  1
  C  144  1  0.88825200  0.87194500  0.94931300  1
  C  145  1  0.63832900  0.86497600  0.02499000  1
  C  146  1  0.57414600  0.93999400  0.00284200  1
  C  151  1  0.21630600  0.58837800  0.00769800  1
  C  152  1  0.20100300  0.60895800  0.99699400  1
  C  153  1  0.14367700  0.61254300  0.98683200  1
  C  154  1  0.09749500  0.59575100  0.98818300  1
  C  155  1  0.11328000  0.57389600  0.99657100  1
  C  156  1  0.17212800  0.57084600  0.00650100  1
  C  159  1  0.27602200  0.58576500  0.01719000  1
  C  160  1  0.30526000  0.60446400  0.02736200  1
  C  161  1  0.36478700  0.60332000  0.03648900  1
  C  162  1  0.39844900  0.58281100  0.03548800  1
  C  163  1  0.36897400  0.56330200  0.02631900  1
  C  164  1  0.30886400  0.56516600  0.01728500  1
  C  173  1  0.39889400  0.54213000  0.02589200  1
  C  174  1  0.38667000  0.62278400  0.04781300  1
  C  175  1  0.14027600  0.62988700  0.97046100  1
  C  176  1  0.07423700  0.55509900  0.99255700  1
  C  181  1  0.46634400  0.75704600  0.16030100  1
  C  182  1  0.45084100  0.74626100  0.13979200  1
  C  183  1  0.39383600  0.73577200  0.13641600  1
  C  184  1  0.34819500  0.73670800  0.15344100  1
  C  185  1  0.36413200  0.74534900  0.17519000  1
  C  186  1  0.42267600  0.75561400  0.17797800  1
  C  189  1  0.52569000  0.76692500  0.16269300  1
  C  190  1  0.55432800  0.77702200  0.14383500  1
  C  191  1  0.61350200  0.78646000  0.14477700  1
  C  192  1  0.64733300  0.78608800  0.16526900  1
  C  193  1  0.61863400  0.77683100  0.18490000  1
  C  194  1  0.55888200  0.76742100  0.18321300  1
  C  203  1  0.64910600  0.77644600  0.20597900  1
  C  204  1  0.63504400  0.79726400  0.12498200  1
  C  205  1  0.39035600  0.71987200  0.11865800  1
  C  206  1  0.32541900  0.74150200  0.19412900  1
  C  211  1  0.96702000  0.73801200  0.83554800  1
  C  212  1  0.95210600  0.74883400  0.85609400  1
  C  213  1  0.89572000  0.75975200  0.85949000  1
  C  214  1  0.84987900  0.75911600  0.84251000  1
  C  215  1  0.86517600  0.75026600  0.82077700  1
  C  216  1  0.92325700  0.73967200  0.81792800  1
  C  219  1  0.02606800  0.72792900  0.83305100  1
  C  220  1  0.05460600  0.71763500  0.85181700  1
  C  221  1  0.11372000  0.70814900  0.85080000  1
  C  222  1  0.14764500  0.70875500  0.83032700  1
  C  223  1  0.11895500  0.71816000  0.81075600  1
  C  224  1  0.05919000  0.72754600  0.81251900  1
  C  233  1  0.14943800  0.71873800  0.78967400  1
  C  234  1  0.13535600  0.69729500  0.87055300  1
  C  235  1  0.89289500  0.77551900  0.87737000  1
  C  236  1  0.82632200  0.75415100  0.80188600  1
  C  241  1  0.77529200  0.58559800  0.50681600  1
  C  242  1  0.79108100  0.60615300  0.49618200  1
  C  243  1  0.84799200  0.60948800  0.48562300  1
  C  244  1  0.89334000  0.59233600  0.48633000  1
  C  245  1  0.87712000  0.57056600  0.49485900  1
  C  246  1  0.81863400  0.56783100  0.50518200  1
  C  249  1  0.71595800  0.58326900  0.51671600  1
  C  250  1  0.68774200  0.60209900  0.52702000  1
  C  251  1  0.62845400  0.60126400  0.53636900  1
  C  252  1  0.59405600  0.58090900  0.53565900  1
  C  253  1  0.62242600  0.56126000  0.52629400  1
  C  254  1  0.68232200  0.56284400  0.51698900  1
  C  263  1  0.59146600  0.54027800  0.52573100  1
  C  264  1  0.60724700  0.62104900  0.54726200  1
  C  265  1  0.85186700  0.62750600  0.47004200  1
  C  266  1  0.91552800  0.55157200  0.49089100  1
  C  271  1  0.27418200  0.91020200  0.48734500  1
  C  272  1  0.28875500  0.88962900  0.49817700  1
  C  273  1  0.34518400  0.88610500  0.50900900  1
  C  274  1  0.39130200  0.90297900  0.50837000  1
  C  275  1  0.37633300  0.92475200  0.49954700  1
  C  276  1  0.31827900  0.92771800  0.48896000  1
  C  279  1  0.21519600  0.91285400  0.47725400  1
  C  280  1  0.18620500  0.89416200  0.46699500  1
  C  281  1  0.12710000  0.89535800  0.45751600  1
  C  282  1  0.09369700  0.91594600  0.45804600  1
  C  283  1  0.12282300  0.93541600  0.46746600  1
  C  284  1  0.18251900  0.93347900  0.47687100  1
  C  293  1  0.09265300  0.95654200  0.46823000  1
  C  294  1  0.10497100  0.87561100  0.44680900  1
  C  295  1  0.34760300  0.86833500  0.52490900  1
  C  296  1  0.41537700  0.94357900  0.50349600  1
  C  301  1  0.02624700  0.73850600  0.33951300  1
  C  302  1  0.04203000  0.74909000  0.36010800  1
  C  303  1  0.10035100  0.75837000  0.36398000  1
  C  304  1  0.14680000  0.75628900  0.34737600  1
  C  305  1  0.13067800  0.74829600  0.32541000  1
  C  306  1  0.07095300  0.73916900  0.32213100  1
  C  309  1  0.96585600  0.72961400  0.33678000  1
  C  310  1  0.93545000  0.71996100  0.35551600  1
  C  311  1  0.87556100  0.71117700  0.35425800  1
  C  312  1  0.84282600  0.71188400  0.33354700  1
  C  313  1  0.87342400  0.72049100  0.31402600  1
  C  314  1  0.93371400  0.72932600  0.31602200  1
  C  323  1  0.84461700  0.72031900  0.29265700  1
  C  324  1  0.85287600  0.69992500  0.37365400  1
  C  325  1  0.10485900  0.77477800  0.38126800  1
  C  326  1  0.17046700  0.75204400  0.30676200  1
  C  331  1  0.52562600  0.75741700  0.65665400  1
  C  332  1  0.54147200  0.74681100  0.63607600  1
  C  333  1  0.59911200  0.73687300  0.63251300  1
  C  334  1  0.64507900  0.73840700  0.64937000  1
  C  335  1  0.62875400  0.74657700  0.67125500  1
  C  336  1  0.56960300  0.75627900  0.67425900  1
  C  339  1  0.46563000  0.76671800  0.65915400  1
  C  340  1  0.43640200  0.77674300  0.64036600  1
  C  341  1  0.37667300  0.78570600  0.64135600  1
  C  342  1  0.34280800  0.78471800  0.66182000  1
  C  343  1  0.37229400  0.77578400  0.68143600  1
  C  344  1  0.43256300  0.76686100  0.67971000  1
  C  353  1  0.34236100  0.77563000  0.70261100  1
  C  354  1  0.35476700  0.79694300  0.62183500  1
  C  355  1  0.60337400  0.72068700  0.61502300  1
  C  356  1  0.66773000  0.74255200  0.69007100  1
  C  361  1  0.21583400  0.40645400  0.48764400  1
  C  362  1  0.19988900  0.38579200  0.49806400  1
  C  363  1  0.14164200  0.38185800  0.50736300  1
  C  364  1  0.09538600  0.39859100  0.50567300  1
  C  365  1  0.11163400  0.42059600  0.49780100  1
  C  366  1  0.17121500  0.42386200  0.48853300  1
  C  369  1  0.27622400  0.40921100  0.47872300  1
  C  370  1  0.30700100  0.39046000  0.46925200  1
  C  371  1  0.36717500  0.39167500  0.46073800  1
  C  372  1  0.39969300  0.41243300  0.46130200  1
  C  373  1  0.36865200  0.43200000  0.46959000  1
  C  374  1  0.30823600  0.43000000  0.47832000  1
  C  383  1  0.39723800  0.45341300  0.46931000  1
  C  384  1  0.39058200  0.37204700  0.45014700  1
  C  385  1  0.13675800  0.36402900  0.52314100  1
  C  386  1  0.07209600  0.43927800  0.50172300  1
  C  391  1  0.71543600  0.08869700  0.50830800  1
  C  392  1  0.70003400  0.10939500  0.49785200  1
  C  393  1  0.64222400  0.11331400  0.48819700  1
  C  394  1  0.59579700  0.09662500  0.48962300  1
  C  395  1  0.61157000  0.07462000  0.49762100  1
  C  396  1  0.67076400  0.07132100  0.50720400  1
  C  399  1  0.77548700  0.08585300  0.51749000  1
  C  400  1  0.80605600  0.10451400  0.52721200  1
  C  401  1  0.86598800  0.10318600  0.53594000  1
  C  402  1  0.89849200  0.08242300  0.53531300  1
  C  403  1  0.86769200  0.06296700  0.52664700  1
  C  404  1  0.80746800  0.06506400  0.51776700  1
  C  413  1  0.89647600  0.04159400  0.52649200  1
  C  414  1  0.88930900  0.12277700  0.54661600  1
  C  415  1  0.63837000  0.13097500  0.47218300  1
  C  416  1  0.57213200  0.05594900  0.49350800  1
  C  421  1  0.96539000  0.25747700  0.65648000  1
  C  422  1  0.94904700  0.24720700  0.63578300  1
  C  423  1  0.89050600  0.23813100  0.63187400  1
  C  424  1  0.84445800  0.23991400  0.64866300  1
  C  425  1  0.86111400  0.24755900  0.67070000  1
  C  426  1  0.92092800  0.25662700  0.67394400  1
  C  429  1  0.02594000  0.26626500  0.65920000  1
  C  430  1  0.05665000  0.27575200  0.64044200  1
  C  431  1  0.11678400  0.28430500  0.64166000  1
  C  432  1  0.14930900  0.28380800  0.66241500  1
  C  433  1  0.11847100  0.27535400  0.68195000  1
  C  434  1  0.05811000  0.26657300  0.67995800  1
  C  443  1  0.14717100  0.27553500  0.70333800  1
  C  444  1  0.14001400  0.29503400  0.62207300  1
  C  445  1  0.88537600  0.22222400  0.61414700  1
  C  446  1  0.82175000  0.24355600  0.68941500  1
  C  451  1  0.46740600  0.23726700  0.33915100  1
  C  452  1  0.45180500  0.24762400  0.35988200  1
  C  453  1  0.39384500  0.25715500  0.36384800  1
  C  454  1  0.34742600  0.25562100  0.34715900  1
  C  455  1  0.36333700  0.24773000  0.32513000  1
  C  456  1  0.42270000  0.23831300  0.32178700  1
  C  459  1  0.52766000  0.22826900  0.33627800  1
  C  460  1  0.55845800  0.21861600  0.35492400  1
  C  461  1  0.61851000  0.20999900  0.35356900  1
  C  462  1  0.65089800  0.21067400  0.33278400  1
  C  463  1  0.61989000  0.21926000  0.31333500  1
  C  464  1  0.55956200  0.22803900  0.31546700  1
  C  473  1  0.64839000  0.21928700  0.29190300  1
  C  474  1  0.64202300  0.19927000  0.37310800  1
  C  475  1  0.38954000  0.27302300  0.38162500  1
  C  476  1  0.32377700  0.25178700  0.30648200  1
  C  481  1  0.04356400  0.01236100  0.00262400  1
  C  483  1  0.95174300  0.99288800  0.01419800  1
  C  484  1  0.94732000  0.98187500  0.99318300  1
  C  486  1  0.03952800  0.00134700  0.98143800  1
  C  495  1  0.54427600  0.48399700  0.99215100  1
  C  497  1  0.45252500  0.50367200  0.98089000  1
  C  498  1  0.44732500  0.51393900  0.00225700  1
  C  500  1  0.53951200  0.49429000  0.01367900  1
  C  509  1  0.29430000  0.24289000  0.76150200  1
  C  511  1  0.20228400  0.23117700  0.74223600  1
  C  512  1  0.19649600  0.25239900  0.73172100  1
  C  514  1  0.28895300  0.26427100  0.75094900  1
  C  523  1  0.79414400  0.25270300  0.23370600  1
  C  525  1  0.70230900  0.26409000  0.25326600  1
  C  526  1  0.69692300  0.24276000  0.26359900  1
  C  528  1  0.78919000  0.23121100  0.24406100  1
  C  537  1  0.95544900  0.48058000  0.99432200  1
  C  539  1  0.03403000  0.49907000  0.01626400  1
  C  540  1  0.03529900  0.51756600  0.00133200  1
  C  542  1  0.95675400  0.49902900  0.97910900  1
  C  551  1  0.45485400  0.01439100  0.00057100  1
  C  553  1  0.53515300  0.99617700  0.97923700  1
  C  554  1  0.53543500  0.97753500  0.99398800  1
  C  556  1  0.45507500  0.99577300  0.01558300  1
  C  565  1  0.70578500  0.24412800  0.76458700  1
  C  567  1  0.78564200  0.26573000  0.74643300  1
  C  568  1  0.78473900  0.25148000  0.72740900  1
  C  570  1  0.70491400  0.22958600  0.74560200  1
  C  579  1  0.20562500  0.25079000  0.23177300  1
  C  581  1  0.28484400  0.22892500  0.24998500  1
  C  582  1  0.28526100  0.24349700  0.26877000  1
  C  584  1  0.20603000  0.26563700  0.25052500  1
  C  593  1  0.69797100  0.75269400  0.23422000  1
  C  595  1  0.78981600  0.76452000  0.25352100  1
  C  596  1  0.79560700  0.74333900  0.26412400  1
  C  598  1  0.70329500  0.73135900  0.24486200  1
  C  607  1  0.19717400  0.74267800  0.76132100  1
  C  609  1  0.28878800  0.73114300  0.74170300  1
  C  610  1  0.29388100  0.75235600  0.73111700  1
  C  612  1  0.20181100  0.76404900  0.75069600  1
  C  621  1  0.28718300  0.75096300  0.23175600  1
  C  623  1  0.20717600  0.72946100  0.24994000  1
  C  624  1  0.20808000  0.74376600  0.26892200  1
  C  626  1  0.28824800  0.76550100  0.25074100  1
  C  635  1  0.78643200  0.74424500  0.76460900  1
  C  637  1  0.70671100  0.76586100  0.74639000  1
  C  638  1  0.70637600  0.75120400  0.72767100  1
  C  640  1  0.78621300  0.72934600  0.74590000  1
  C  649  1  0.54314200  0.51200500  0.50188400  1
  C  651  1  0.45112100  0.49270300  0.51351500  1
  C  652  1  0.44580100  0.48203100  0.49235600  1
  C  654  1  0.53824400  0.50131500  0.48055700  1
  C  663  1  0.04388000  0.98420800  0.49264700  1
  C  665  1  0.95182600  0.00366000  0.48132800  1
  C  666  1  0.94604300  0.01374800  0.50275700  1
  C  668  1  0.03855100  0.99433700  0.51423400  1
  C  677  1  0.45469500  0.98107400  0.49407100  1
  C  679  1  0.53373600  0.99925600  0.51604900  1
  C  680  1  0.53382100  0.01816300  0.50163400  1
  C  682  1  0.45468600  0.99997100  0.47940800  1
  C  691  1  0.95419000  0.51403300  0.50044500  1
  C  693  1  0.03429900  0.49591800  0.47893900  1
  C  694  1  0.03388800  0.47701600  0.49335600  1
  C  696  1  0.95360500  0.49512600  0.51509100  1
  C  705  1  0.34626600  0.16092400  0.88817200  1
  C  707  1  0.31828300  0.15648800  0.92698900  1
  C  708  1  0.34688900  0.13516000  0.92764700  1
  C  710  1  0.37266600  0.13911400  0.88836600  1
  C  719  1  0.84407400  0.33571800  0.10741000  1
  C  721  1  0.81519000  0.33938700  0.06858400  1
  C  722  1  0.84044400  0.36127200  0.06781000  1
  C  724  1  0.86686900  0.35807200  0.10710500  1
  C  733  1  0.59726900  0.35727900  0.90914800  1
  C  735  1  0.56787900  0.31855400  0.90518000  1
  C  736  1  0.59842400  0.31725900  0.88424600  1
  C  738  1  0.62563100  0.35646400  0.88769400  1
  C  747  1  0.09743200  0.13922300  0.08510300  1
  C  749  1  0.06929400  0.17804700  0.08938400  1
  C  750  1  0.09685900  0.17869000  0.11089800  1
  C  752  1  0.12270900  0.13938900  0.10709000  1
  C  761  1  0.64045400  0.83298600  0.10599600  1
  C  763  1  0.66953200  0.83698200  0.06726000  1
  C  764  1  0.63555700  0.85716500  0.06558300  1
  C  766  1  0.60820800  0.85365800  0.10477200  1
  C  775  1  0.14333700  0.66159900  0.88941500  1
  C  777  1  0.17215500  0.65779100  0.92820400  1
  C  778  1  0.13914800  0.63739000  0.92981700  1
  C  780  1  0.11214600  0.64070400  0.89058400  1
  C  789  1  0.39758000  0.64017000  0.08412400  1
  C  791  1  0.42451000  0.67897300  0.08925000  1
  C  792  1  0.39260700  0.67953100  0.10994800  1
  C  794  1  0.36773100  0.64025300  0.10531700  1
  C  803  1  0.90017700  0.85479000  0.91287300  1
  C  805  1  0.92625600  0.81593200  0.90755500  1
  C  806  1  0.89578900  0.81573800  0.88656100  1
  C  808  1  0.87184400  0.85507000  0.89140100  1
  C  817  1  0.84401600  0.66333900  0.39086300  1
  C  819  1  0.81838900  0.65783100  0.42973600  1
  C  820  1  0.84952400  0.63696900  0.42986500  1
  C  822  1  0.87310300  0.64200100  0.39052800  1
  C  831  1  0.34242200  0.83327900  0.60442000  1
  C  833  1  0.31586600  0.83819000  0.56554000  1
  C  834  1  0.34521000  0.85939500  0.56520400  1
  C  836  1  0.36962000  0.85495200  0.60454800  1
  C  845  1  0.09881100  0.85640900  0.41140700  1
  C  847  1  0.06981100  0.81765600  0.40766200  1
  C  848  1  0.10646000  0.81553700  0.38816300  1
  C  850  1  0.13379900  0.85474300  0.39138300  1
  C  859  1  0.59953600  0.63975500  0.58299700  1
  C  861  1  0.57090600  0.67851700  0.58709300  1
  C  862  1  0.60498800  0.68009100  0.60726100  1
  C  864  1  0.63184200  0.64086900  0.60366100  1
  C  873  1  0.14519600  0.33097900  0.60364100  1
  C  875  1  0.17173000  0.33571600  0.56476400  1
  C  876  1  0.13628100  0.35559700  0.56360700  1
  C  878  1  0.11144100  0.35134600  0.60293700  1
  C  887  1  0.64883500  0.16343600  0.39152800  1
  C  889  1  0.67505100  0.15882300  0.43044700  1
  C  890  1  0.63927600  0.13902500  0.43165500  1
  C  892  1  0.61474900  0.14314400  0.39229100  1
  C  901  1  0.89597700  0.14132600  0.58227200  1
  C  903  1  0.92276400  0.18017800  0.58688900  1
  C  904  1  0.88538600  0.18165200  0.60626700  1
  C  906  1  0.86013200  0.14235400  0.60213200  1
  C  915  1  0.39857300  0.35362300  0.41437000  1
  C  917  1  0.42512100  0.31474500  0.40973400  1
  C  918  1  0.38945400  0.31351900  0.38990700  1
  C  920  1  0.36453900  0.35284700  0.39407200  1
  C  1857  1  0.27522200  0.33881500  0.02356580  1
  C  1858  1  0.29005400  0.35917900  0.01240280  1
  C  1859  1  0.34596600  0.36223200  0.00106681  1
  C  1860  1  0.39150700  0.34514200  0.00171381  1
  C  1861  1  0.37615900  0.32356800  0.01093680  1
  C  1862  1  0.31841700  0.32101400  0.02185080  1
  C  1865  1  0.21655400  0.33663000  0.03397980  1
  C  1866  1  0.18950700  0.35549700  0.04461680  1
  C  1867  1  0.13073700  0.35480000  0.05442180  1
  C  1868  1  0.09544100  0.33464200  0.05349380  1
  C  1869  1  0.12273500  0.31493000  0.04381480  1
  C  1870  1  0.18243700  0.31632700  0.03431380  1
  C  1879  1  0.09091500  0.29410900  0.04313980  1
  C  1880  1  0.11069400  0.37451400  0.06577780  1
  C  1881  1  0.34836600  0.37976700  0.98491200  1
  C  1882  1  0.41465500  0.30455800  0.00716281  1
  C  1887  1  0.77373600  0.66317400  0.00466981  1
  C  1888  1  0.78701800  0.64278500  0.01604780  1
  C  1889  1  0.84221800  0.63951200  0.02777080  1
  C  1890  1  0.88861900  0.65629600  0.02734580  1
  C  1891  1  0.87489200  0.67785400  0.01775080  1
  C  1892  1  0.81780200  0.68067500  0.00644481  1
  C  1895  1  0.71561400  0.66574800  0.99394900  1
  C  1896  1  0.68778400  0.64706000  0.98328600  1
  C  1897  1  0.62939200  0.64821000  0.97321100  1
  C  1898  1  0.59526700  0.66865300  0.97388800  1
  C  1899  1  0.62329500  0.68813000  0.98375100  1
  C  1900  1  0.68263600  0.68629400  0.99347300  1
  C  1909  1  0.59237600  0.70911900  0.98467600  1
  C  1910  1  0.60843800  0.62855400  0.96198900  1
  C  1911  1  0.84276200  0.62224100  0.04421580  1
  C  1912  1  0.91401900  0.69668800  0.02155380  1
  C  1917  1  0.52522300  0.49139400  0.85244500  1
  C  1918  1  0.53983700  0.50249800  0.87286900  1
  C  1919  1  0.59645400  0.51326200  0.87626000  1
  C  1920  1  0.64270800  0.51208800  0.85947500  1
  C  1921  1  0.62763300  0.50309300  0.83778700  1
  C  1922  1  0.56930500  0.49269400  0.83490400  1
  C  1925  1  0.46610800  0.48139000  0.84994300  1
  C  1926  1  0.43755100  0.47112500  0.86872100  1
  C  1927  1  0.37859300  0.46150200  0.86764500  1
  C  1928  1  0.34473200  0.46214800  0.84715300  1
  C  1929  1  0.37345400  0.47154500  0.82759600  1
  C  1930  1  0.43316300  0.48096000  0.82937600  1
  C  1939  1  0.34304000  0.47205400  0.80650700  1
  C  1940  1  0.35723300  0.45026700  0.88724600  1
  C  1941  1  0.59887200  0.52971200  0.89353500  1
  C  1942  1  0.66687000  0.50677900  0.81896000  1
  C  1947  1  0.02600800  0.51080400  0.17738900  1
  C  1948  1  0.04048600  0.49973100  0.15693800  1
  C  1949  1  0.09621700  0.48830200  0.15377100  1
  C  1950  1  0.14201400  0.48885000  0.17077300  1
  C  1951  1  0.12703200  0.49799700  0.19241200  1
  C  1952  1  0.06944400  0.50898100  0.19510100  1
  C  1955  1  0.96736700  0.52119900  0.17976700  1
  C  1956  1  0.93976100  0.53183200  0.16100500  1
  C  1957  1  0.88091300  0.54157000  0.16190500  1
  C  1958  1  0.84612100  0.54058800  0.18218300  1
  C  1959  1  0.87399300  0.53089300  0.20177300  1
  C  1960  1  0.93370600  0.52144600  0.20017200  1
  C  1969  1  0.84267700  0.53001900  0.22268300  1
  C  1970  1  0.86001400  0.55275800  0.14220600  1
  C  1971  1  0.09822300  0.47214400  0.13622900  1
  C  1972  1  0.16557400  0.49401000  0.21137000  1
  C  1977  1  0.71691600  0.15974700  0.00543881  1
  C  1978  1  0.70093800  0.13919100  0.01605380  1
  C  1979  1  0.64300200  0.13555200  0.02572980  1
  C  1980  1  0.59698200  0.15237200  0.02401280  1
  C  1981  1  0.61338800  0.17426200  0.01587980  1
  C  1982  1  0.67278200  0.17731400  0.00639181  1
  C  1985  1  0.77706800  0.16226600  0.99627700  1
  C  1986  1  0.80650000  0.14347300  0.98634400  1
  C  1987  1  0.86633000  0.14447100  0.97747900  1
  C  1988  1  0.90007200  0.16495800  0.97847800  1
  C  1989  1  0.87035800  0.18459800  0.98725200  1
  C  1990  1  0.81000400  0.18285500  0.99609800  1
  C  1999  1  0.90016600  0.20580000  0.98722800  1
  C  2000  1  0.88825200  0.12499200  0.96618300  1
  C  2001  1  0.63832900  0.11802300  0.04185980  1
  C  2002  1  0.57414600  0.19304100  0.01971180  1
  C  2007  1  0.21630600  0.84142500  0.02456780  1
  C  2008  1  0.20100300  0.86200500  0.01386380  1
  C  2009  1  0.14367700  0.86559000  0.00370181  1
  C  2010  1  0.09749500  0.84879800  0.00505281  1
  C  2011  1  0.11328000  0.82694300  0.01344080  1
  C  2012  1  0.17212800  0.82389300  0.02337080  1
  C  2015  1  0.27602200  0.83881200  0.03405980  1
  C  2016  1  0.30526000  0.85751100  0.04423180  1
  C  2017  1  0.36478700  0.85636700  0.05335880  1
  C  2018  1  0.39844900  0.83585800  0.05235780  1
  C  2019  1  0.36897400  0.81634900  0.04318880  1
  C  2020  1  0.30886400  0.81821300  0.03415480  1
  C  2029  1  0.39889400  0.79517700  0.04276180  1
  C  2030  1  0.38667000  0.87583100  0.06468280  1
  C  2031  1  0.14027600  0.88293400  0.98733100  1
  C  2032  1  0.07423700  0.80814600  0.00942681  1
  C  2037  1  0.46634400  0.01009310  0.17717100  1
  C  2038  1  0.45084100  0.99930800  0.15666200  1
  C  2039  1  0.39383600  0.98881900  0.15328600  1
  C  2040  1  0.34819500  0.98975500  0.17031100  1
  C  2041  1  0.36413200  0.99839600  0.19206000  1
  C  2042  1  0.42267600  0.00866111  0.19484800  1
  C  2045  1  0.52569000  0.01997210  0.17956300  1
  C  2046  1  0.55432800  0.03006910  0.16070500  1
  C  2047  1  0.61350200  0.03950710  0.16164700  1
  C  2048  1  0.64733300  0.03913510  0.18213900  1
  C  2049  1  0.61863400  0.02987810  0.20177000  1
  C  2050  1  0.55888200  0.02046810  0.20008300  1
  C  2059  1  0.64910600  0.02949310  0.22284900  1
  C  2060  1  0.63504400  0.05031110  0.14185200  1
  C  2061  1  0.39035600  0.97291900  0.13552800  1
  C  2062  1  0.32541900  0.99454900  0.21099900  1
  C  2067  1  0.96702000  0.99105900  0.85241800  1
  C  2068  1  0.95210600  0.00188111  0.87296400  1
  C  2069  1  0.89572000  0.01279910  0.87636000  1
  C  2070  1  0.84987900  0.01216310  0.85938000  1
  C  2071  1  0.86517600  0.00331311  0.83764700  1
  C  2072  1  0.92325700  0.99271900  0.83479800  1
  C  2075  1  0.02606800  0.98097600  0.84992100  1
  C  2076  1  0.05460600  0.97068200  0.86868700  1
  C  2077  1  0.11372000  0.96119600  0.86767000  1
  C  2078  1  0.14764500  0.96180200  0.84719700  1
  C  2079  1  0.11895500  0.97120700  0.82762600  1
  C  2080  1  0.05919000  0.98059300  0.82938900  1
  C  2089  1  0.14943800  0.97178500  0.80654400  1
  C  2090  1  0.13535600  0.95034200  0.88742300  1
  C  2091  1  0.89289500  0.02856610  0.89424000  1
  C  2092  1  0.82632200  0.00719811  0.81875600  1
  C  2097  1  0.77529200  0.83864500  0.52368600  1
  C  2098  1  0.79108100  0.85920000  0.51305200  1
  C  2099  1  0.84799200  0.86253500  0.50249300  1
  C  2100  1  0.89334000  0.84538300  0.50320000  1
  C  2101  1  0.87712000  0.82361300  0.51172900  1
  C  2102  1  0.81863400  0.82087800  0.52205200  1
  C  2105  1  0.71595800  0.83631600  0.53358600  1
  C  2106  1  0.68774200  0.85514600  0.54389000  1
  C  2107  1  0.62845400  0.85431100  0.55323900  1
  C  2108  1  0.59405600  0.83395600  0.55252900  1
  C  2109  1  0.62242600  0.81430700  0.54316400  1
  C  2110  1  0.68232200  0.81589100  0.53385900  1
  C  2119  1  0.59146600  0.79332500  0.54260100  1
  C  2120  1  0.60724700  0.87409600  0.56413200  1
  C  2121  1  0.85186700  0.88055300  0.48691200  1
  C  2122  1  0.91552800  0.80461900  0.50776100  1
  C  2127  1  0.27418200  0.16324900  0.50421500  1
  C  2128  1  0.28875500  0.14267600  0.51504700  1
  C  2129  1  0.34518400  0.13915200  0.52587900  1
  C  2130  1  0.39130200  0.15602600  0.52524000  1
  C  2131  1  0.37633300  0.17779900  0.51641700  1
  C  2132  1  0.31827900  0.18076500  0.50583000  1
  C  2135  1  0.21519600  0.16590100  0.49412400  1
  C  2136  1  0.18620500  0.14720900  0.48386500  1
  C  2137  1  0.12710000  0.14840500  0.47438600  1
  C  2138  1  0.09369700  0.16899300  0.47491600  1
  C  2139  1  0.12282300  0.18846300  0.48433600  1
  C  2140  1  0.18251900  0.18652600  0.49374100  1
  C  2149  1  0.09265300  0.20958900  0.48510000  1
  C  2150  1  0.10497100  0.12865800  0.46367900  1
  C  2151  1  0.34760300  0.12138200  0.54177900  1
  C  2152  1  0.41537700  0.19662600  0.52036600  1
  C  2157  1  0.02624700  0.99155300  0.35638300  1
  C  2158  1  0.04203000  0.00213711  0.37697800  1
  C  2159  1  0.10035100  0.01141710  0.38085000  1
  C  2160  1  0.14680000  0.00933611  0.36424600  1
  C  2161  1  0.13067800  0.00134311  0.34228000  1
  C  2162  1  0.07095300  0.99221600  0.33900100  1
  C  2165  1  0.96585600  0.98266100  0.35365000  1
  C  2166  1  0.93545000  0.97300800  0.37238600  1
  C  2167  1  0.87556100  0.96422400  0.37112800  1
  C  2168  1  0.84282600  0.96493100  0.35041700  1
  C  2169  1  0.87342400  0.97353800  0.33089600  1
  C  2170  1  0.93371400  0.98237300  0.33289200  1
  C  2179  1  0.84461700  0.97336600  0.30952700  1
  C  2180  1  0.85287600  0.95297200  0.39052400  1
  C  2181  1  0.10485900  0.02782510  0.39813800  1
  C  2182  1  0.17046700  0.00509111  0.32363200  1
  C  2187  1  0.52562600  0.01046410  0.67352400  1
  C  2188  1  0.54147200  0.99985800  0.65294600  1
  C  2189  1  0.59911200  0.98992000  0.64938300  1
  C  2190  1  0.64507900  0.99145400  0.66624000  1
  C  2191  1  0.62875400  0.99962400  0.68812500  1
  C  2192  1  0.56960300  0.00932611  0.69112900  1
  C  2195  1  0.46563000  0.01976510  0.67602400  1
  C  2196  1  0.43640200  0.02979010  0.65723600  1
  C  2197  1  0.37667300  0.03875310  0.65822600  1
  C  2198  1  0.34280800  0.03776510  0.67869000  1
  C  2199  1  0.37229400  0.02883110  0.69830600  1
  C  2200  1  0.43256300  0.01990810  0.69658000  1
  C  2209  1  0.34236100  0.02867710  0.71948100  1
  C  2210  1  0.35476700  0.04999010  0.63870500  1
  C  2211  1  0.60337400  0.97373400  0.63189300  1
  C  2212  1  0.66773000  0.99559900  0.70694100  1
  C  2217  1  0.21583400  0.65950100  0.50451400  1
  C  2218  1  0.19988900  0.63883900  0.51493400  1
  C  2219  1  0.14164200  0.63490500  0.52423300  1
  C  2220  1  0.09538600  0.65163800  0.52254300  1
  C  2221  1  0.11163400  0.67364300  0.51467100  1
  C  2222  1  0.17121500  0.67690900  0.50540300  1
  C  2225  1  0.27622400  0.66225800  0.49559300  1
  C  2226  1  0.30700100  0.64350700  0.48612200  1
  C  2227  1  0.36717500  0.64472200  0.47760800  1
  C  2228  1  0.39969300  0.66548000  0.47817200  1
  C  2229  1  0.36865200  0.68504700  0.48646000  1
  C  2230  1  0.30823600  0.68304700  0.49519000  1
  C  2239  1  0.39723800  0.70646000  0.48618000  1
  C  2240  1  0.39058200  0.62509400  0.46701700  1
  C  2241  1  0.13675800  0.61707600  0.54001100  1
  C  2242  1  0.07209600  0.69232500  0.51859300  1
  C  2247  1  0.71543600  0.34174400  0.52517800  1
  C  2248  1  0.70003400  0.36244200  0.51472200  1
  C  2249  1  0.64222400  0.36636100  0.50506700  1
  C  2250  1  0.59579700  0.34967200  0.50649300  1
  C  2251  1  0.61157000  0.32766700  0.51449100  1
  C  2252  1  0.67076400  0.32436800  0.52407400  1
  C  2255  1  0.77548700  0.33890000  0.53436000  1
  C  2256  1  0.80605600  0.35756100  0.54408200  1
  C  2257  1  0.86598800  0.35623300  0.55281000  1
  C  2258  1  0.89849200  0.33547000  0.55218300  1
  C  2259  1  0.86769200  0.31601400  0.54351700  1
  C  2260  1  0.80746800  0.31811100  0.53463700  1
  C  2269  1  0.89647600  0.29464100  0.54336200  1
  C  2270  1  0.88930900  0.37582400  0.56348600  1
  C  2271  1  0.63837000  0.38402200  0.48905300  1
  C  2272  1  0.57213200  0.30899600  0.51037800  1
  C  2277  1  0.96539000  0.51052400  0.67335000  1
  C  2278  1  0.94904700  0.50025400  0.65265300  1
  C  2279  1  0.89050600  0.49117800  0.64874400  1
  C  2280  1  0.84445800  0.49296100  0.66553300  1
  C  2281  1  0.86111400  0.50060600  0.68757000  1
  C  2282  1  0.92092800  0.50967400  0.69081400  1
  C  2285  1  0.02594000  0.51931200  0.67607000  1
  C  2286  1  0.05665000  0.52879900  0.65731200  1
  C  2287  1  0.11678400  0.53735200  0.65853000  1
  C  2288  1  0.14930900  0.53685500  0.67928500  1
  C  2289  1  0.11847100  0.52840100  0.69882000  1
  C  2290  1  0.05811000  0.51962000  0.69682800  1
  C  2299  1  0.14717100  0.52858200  0.72020800  1
  C  2300  1  0.14001400  0.54808100  0.63894300  1
  C  2301  1  0.88537600  0.47527100  0.63101700  1
  C  2302  1  0.82175000  0.49660300  0.70628500  1
  C  2307  1  0.46740600  0.49031400  0.35602100  1
  C  2308  1  0.45180500  0.50067100  0.37675200  1
  C  2309  1  0.39384500  0.51020200  0.38071800  1
  C  2310  1  0.34742600  0.50866800  0.36402900  1
  C  2311  1  0.36333700  0.50077700  0.34200000  1
  C  2312  1  0.42270000  0.49136000  0.33865700  1
  C  2315  1  0.52766000  0.48131600  0.35314800  1
  C  2316  1  0.55845800  0.47166300  0.37179400  1
  C  2317  1  0.61851000  0.46304600  0.37043900  1
  C  2318  1  0.65089800  0.46372100  0.34965400  1
  C  2319  1  0.61989000  0.47230700  0.33020500  1
  C  2320  1  0.55956200  0.48108600  0.33233700  1
  C  2329  1  0.64839000  0.47233400  0.30877300  1
  C  2330  1  0.64202300  0.45231700  0.38997800  1
  C  2331  1  0.38954000  0.52607000  0.39849500  1
  C  2332  1  0.32377700  0.50483400  0.32335200  1
  C  2337  1  0.04356400  0.26540800  0.01949380  1
  C  2339  1  0.95174300  0.24593500  0.03106780  1
  C  2340  1  0.94732000  0.23492200  0.01005280  1
  C  2342  1  0.03952800  0.25439400  0.99830800  1
  C  2351  1  0.54427600  0.73704400  0.00902081  1
  C  2353  1  0.45252500  0.75671900  0.99776000  1
  C  2354  1  0.44732500  0.76698600  0.01912680  1
  C  2356  1  0.53951200  0.74733700  0.03054880  1
  C  2365  1  0.29430000  0.49593700  0.77837200  1
  C  2367  1  0.20228400  0.48422400  0.75910600  1
  C  2368  1  0.19649600  0.50544600  0.74859100  1
  C  2370  1  0.28895300  0.51731800  0.76781900  1
  C  2379  1  0.79414400  0.50575000  0.25057600  1
  C  2381  1  0.70230900  0.51713700  0.27013600  1
  C  2382  1  0.69692300  0.49580700  0.28046900  1
  C  2384  1  0.78919000  0.48425800  0.26093100  1
  C  2393  1  0.95544900  0.73362700  0.01119180  1
  C  2395  1  0.03403000  0.75211700  0.03313380  1
  C  2396  1  0.03529900  0.77061300  0.01820180  1
  C  2398  1  0.95675400  0.75207600  0.99597900  1
  C  2407  1  0.45485400  0.26743800  0.01744080  1
  C  2409  1  0.53515300  0.24922400  0.99610700  1
  C  2410  1  0.53543500  0.23058200  0.01085780  1
  C  2412  1  0.45507500  0.24882000  0.03245280  1
  C  2421  1  0.70578500  0.49717500  0.78145700  1
  C  2423  1  0.78564200  0.51877700  0.76330300  1
  C  2424  1  0.78473900  0.50452700  0.74427900  1
  C  2426  1  0.70491400  0.48263300  0.76247200  1
  C  2435  1  0.20562500  0.50383700  0.24864300  1
  C  2437  1  0.28484400  0.48197200  0.26685500  1
  C  2438  1  0.28526100  0.49654400  0.28564000  1
  C  2440  1  0.20603000  0.51868400  0.26739500  1
  C  2449  1  0.69797100  0.00574111  0.25109000  1
  C  2451  1  0.78981600  0.01756710  0.27039100  1
  C  2452  1  0.79560700  0.99638600  0.28099400  1
  C  2454  1  0.70329500  0.98440600  0.26173200  1
  C  2463  1  0.19717400  0.99572500  0.77819100  1
  C  2465  1  0.28878800  0.98419000  0.75857300  1
  C  2466  1  0.29388100  0.00540311  0.74798700  1
  C  2468  1  0.20181100  0.01709610  0.76756600  1
  C  2477  1  0.28718300  0.00401011  0.24862600  1
  C  2479  1  0.20717600  0.98250800  0.26681000  1
  C  2480  1  0.20808000  0.99681300  0.28579200  1
  C  2482  1  0.28824800  0.01854810  0.26761100  1
  C  2491  1  0.78643200  0.99729200  0.78147900  1
  C  2493  1  0.70671100  0.01890810  0.76326000  1
  C  2494  1  0.70637600  0.00425111  0.74454100  1
  C  2496  1  0.78621300  0.98239300  0.76277000  1
  C  2505  1  0.54314200  0.76505200  0.51875400  1
  C  2507  1  0.45112100  0.74575000  0.53038500  1
  C  2508  1  0.44580100  0.73507800  0.50922600  1
  C  2510  1  0.53824400  0.75436200  0.49742700  1
  C  2519  1  0.04388000  0.23725500  0.50951700  1
  C  2521  1  0.95182600  0.25670700  0.49819800  1
  C  2522  1  0.94604300  0.26679500  0.51962700  1
  C  2524  1  0.03855100  0.24738400  0.53110400  1
  C  2533  1  0.45469500  0.23412100  0.51094100  1
  C  2535  1  0.53373600  0.25230300  0.53291900  1
  C  2536  1  0.53382100  0.27121000  0.51850400  1
  C  2538  1  0.45468600  0.25301800  0.49627800  1
  C  2547  1  0.95419000  0.76708000  0.51731500  1
  C  2549  1  0.03429900  0.74896500  0.49580900  1
  C  2550  1  0.03388800  0.73006300  0.51022600  1
  C  2552  1  0.95360500  0.74817300  0.53196100  1
  C  2561  1  0.34626600  0.41397100  0.90504200  1
  C  2563  1  0.31828300  0.40953500  0.94385900  1
  C  2564  1  0.34688900  0.38820700  0.94451700  1
  C  2566  1  0.37266600  0.39216100  0.90523600  1
  C  2575  1  0.84407400  0.58876500  0.12428000  1
  C  2577  1  0.81519000  0.59243400  0.08545380  1
  C  2578  1  0.84044400  0.61431900  0.08467980  1
  C  2580  1  0.86686900  0.61111900  0.12397500  1
  C  2589  1  0.59726900  0.61032600  0.92601800  1
  C  2591  1  0.56787900  0.57160100  0.92205000  1
  C  2592  1  0.59842400  0.57030600  0.90111600  1
  C  2594  1  0.62563100  0.60951100  0.90456400  1
  C  2603  1  0.09743200  0.39227000  0.10197300  1
  C  2605  1  0.06929400  0.43109400  0.10625400  1
  C  2606  1  0.09685900  0.43173700  0.12776800  1
  C  2608  1  0.12270900  0.39243600  0.12396000  1
  C  2617  1  0.64045400  0.08603310  0.12286600  1
  C  2619  1  0.66953200  0.09002910  0.08412980  1
  C  2620  1  0.63555700  0.11021200  0.08245280  1
  C  2622  1  0.60820800  0.10670500  0.12164200  1
  C  2631  1  0.14333700  0.91464600  0.90628500  1
  C  2633  1  0.17215500  0.91083800  0.94507400  1
  C  2634  1  0.13914800  0.89043700  0.94668700  1
  C  2636  1  0.11214600  0.89375100  0.90745400  1
  C  2645  1  0.39758000  0.89321700  0.10099400  1
  C  2647  1  0.42451000  0.93202000  0.10612000  1
  C  2648  1  0.39260700  0.93257800  0.12681800  1
  C  2650  1  0.36773100  0.89330000  0.12218700  1
  C  2659  1  0.90017700  0.10783700  0.92974300  1
  C  2661  1  0.92625600  0.06897910  0.92442500  1
  C  2662  1  0.89578900  0.06878510  0.90343100  1
  C  2664  1  0.87184400  0.10811700  0.90827100  1
  C  2673  1  0.84401600  0.91638600  0.40773300  1
  C  2675  1  0.81838900  0.91087800  0.44660600  1
  C  2676  1  0.84952400  0.89001600  0.44673500  1
  C  2678  1  0.87310300  0.89504800  0.40739800  1
  C  2687  1  0.34242200  0.08632610  0.62129000  1
  C  2689  1  0.31586600  0.09123710  0.58241000  1
  C  2690  1  0.34521000  0.11244200  0.58207400  1
  C  2692  1  0.36962000  0.10799900  0.62141800  1
  C  2701  1  0.09881100  0.10945600  0.42827700  1
  C  2703  1  0.06981100  0.07070310  0.42453200  1
  C  2704  1  0.10646000  0.06858410  0.40503300  1
  C  2706  1  0.13379900  0.10779000  0.40825300  1
  C  2715  1  0.59953600  0.89280200  0.59986700  1
  C  2717  1  0.57090600  0.93156400  0.60396300  1
  C  2718  1  0.60498800  0.93313800  0.62413100  1
  C  2720  1  0.63184200  0.89391600  0.62053100  1
  C  2729  1  0.14519600  0.58402600  0.62051100  1
  C  2731  1  0.17173000  0.58876300  0.58163400  1
  C  2732  1  0.13628100  0.60864400  0.58047700  1
  C  2734  1  0.11144100  0.60439300  0.61980700  1
  C  2743  1  0.64883500  0.41648300  0.40839800  1
  C  2745  1  0.67505100  0.41187000  0.44731700  1
  C  2746  1  0.63927600  0.39207200  0.44852500  1
  C  2748  1  0.61474900  0.39619100  0.40916100  1
  C  2757  1  0.89597700  0.39437300  0.59914200  1
  C  2759  1  0.92276400  0.43322500  0.60375900  1
  C  2760  1  0.88538600  0.43469900  0.62313700  1
  C  2762  1  0.86013200  0.39540100  0.61900200  1
  C  2771  1  0.39857300  0.60667000  0.43124000  1
  C  2773  1  0.42512100  0.56779200  0.42660400  1
  C  2774  1  0.38945400  0.56656600  0.40677700  1
  C  2776  1  0.36453900  0.60589400  0.41094200  1
  H  7  1  0.25695100  0.11828100  0.99360500  1
  H  16  1  0.20104100  0.04921300  0.01017300  1
  H  17  1  0.01527300  0.09625600  0.04743700  1
  H  18  1  0.00664900  0.07038900  0.03859100  1
  H  19  1  0.48420200  0.08801800  0.98219100  1
  H  20  1  0.46032400  0.11275700  0.97357400  1
  H  21  1  0.30679900  0.05267200  0.01161700  1
  H  22  1  0.21480200  0.11693000  0.02953100  1
  H  37  1  0.75319200  0.37784500  0.00101000  1
  H  46  1  0.70169900  0.44716100  0.98401100  1
  H  47  1  0.51484500  0.40161800  0.94557800  1
  H  48  1  0.50719000  0.42755900  0.95428300  1
  H  49  1  0.98145400  0.40676000  0.01404500  1
  H  50  1  0.95563900  0.38230500  0.02265800  1
  H  51  1  0.80721400  0.44293500  0.98273600  1
  H  52  1  0.71226400  0.37932100  0.96482500  1
  H  67  1  0.50619900  0.25183900  0.86786200  1
  H  76  1  0.45266600  0.23498500  0.79849900  1
  H  77  1  0.26354300  0.19832800  0.84428300  1
  H  78  1  0.25673000  0.20671800  0.81820300  1
  H  79  1  0.73589400  0.26087000  0.83913100  1
  H  80  1  0.71145700  0.26968600  0.86370600  1
  H  81  1  0.55790200  0.23311400  0.80267700  1
  H  82  1  0.46194500  0.21630300  0.86653800  1
  H  97  1  0.00713000  0.24475600  0.12801500  1
  H  106  1  0.95256600  0.26106200  0.19729100  1
  H  107  1  0.76541300  0.29823800  0.15096500  1
  H  108  1  0.75763100  0.28939100  0.17686500  1
  H  109  1  0.23473100  0.23305600  0.15779000  1
  H  110  1  0.21044900  0.22453400  0.13307000  1
  H  111  1  0.05805000  0.26249400  0.19358100  1
  H  112  1  0.96470000  0.28062600  0.12958100  1
  H  127  1  0.73421200  0.87422600  0.00194100  1
  H  136  1  0.78983800  0.94388800  0.98588500  1
  H  137  1  0.98233000  0.89781800  0.95228600  1
  H  138  1  0.98806900  0.92401900  0.96052600  1
  H  139  1  0.50389700  0.90291900  0.00715900  1
  H  140  1  0.52683700  0.87803300  0.01578400  1
  H  141  1  0.68482800  0.93975600  0.98347300  1
  H  142  1  0.78221000  0.87576600  0.96733500  1
  H  157  1  0.23452200  0.62083300  0.99445500  1
  H  166  1  0.28891300  0.55118200  0.01033400  1
  H  167  1  0.48035400  0.59669900  0.04551100  1
  H  168  1  0.48643000  0.57058400  0.03709300  1
  H  169  1  0.00423900  0.59219100  0.98714000  1
  H  170  1  0.02807600  0.61701500  0.97871900  1
  H  171  1  0.18381600  0.55536400  0.01267000  1
  H  172  1  0.28101900  0.61914200  0.02944500  1
  H  187  1  0.48404600  0.74393500  0.12775700  1
  H  196  1  0.53945900  0.76046100  0.19728900  1
  H  197  1  0.72823400  0.79709500  0.15120700  1
  H  198  1  0.73527300  0.78883900  0.17733000  1
  H  199  1  0.25512300  0.73492000  0.15735700  1
  H  200  1  0.27855800  0.72647300  0.13252600  1
  H  201  1  0.43456600  0.76191100  0.19338000  1
  H  202  1  0.52994800  0.77878300  0.12914500  1
  H  217  1  0.98545300  0.75092200  0.86812000  1
  H  226  1  0.03975600  0.73463500  0.79851100  1
  H  227  1  0.22864100  0.69791600  0.84437100  1
  H  228  1  0.23562000  0.70647400  0.81833100  1
  H  229  1  0.75703200  0.76136000  0.83868600  1
  H  230  1  0.78103000  0.76978000  0.86347600  1
  H  231  1  0.93474900  0.73330000  0.80251200  1
  H  232  1  0.03021000  0.71581600  0.86649800  1
  H  247  1  0.75816300  0.61833800  0.49408600  1
  H  256  1  0.70150400  0.54877800  0.50992000  1
  H  257  1  0.51325400  0.59518700  0.54638300  1
  H  258  1  0.50580400  0.56916200  0.53781500  1
  H  259  1  0.98615000  0.58818300  0.48452100  1
  H  260  1  0.96316800  0.61315900  0.47625500  1
  H  261  1  0.80655800  0.55240500  0.51137800  1
  H  262  1  0.71244600  0.61669800  0.52892400  1
  H  277  1  0.25521300  0.87767400  0.50026200  1
  H  286  1  0.20217400  0.94742700  0.48400200  1
  H  287  1  0.01253600  0.90221100  0.44699600  1
  H  288  1  0.00601900  0.92831000  0.45539000  1
  H  289  1  0.48436900  0.90662600  0.51079800  1
  H  290  1  0.45978900  0.88188100  0.51908600  1
  H  291  1  0.30701500  0.94315200  0.48258500  1
  H  292  1  0.21020800  0.87938800  0.46524100  1
  H  307  1  0.00840900  0.75219400  0.37180700  1
  H  316  1  0.95443100  0.73585100  0.30198500  1
  H  317  1  0.76002000  0.70236100  0.34714200  1
  H  318  1  0.75540700  0.71023200  0.32080800  1
  H  319  1  0.24017100  0.75583700  0.34423200  1
  H  320  1  0.21671000  0.76462400  0.36897100  1
  H  321  1  0.05907100  0.73318200  0.30660400  1
  H  322  1  0.95913100  0.71785400  0.37031300  1
  H  337  1  0.50814800  0.74412700  0.62416100  1
  H  346  1  0.45250600  0.76007400  0.69377400  1
  H  347  1  0.26075100  0.79428300  0.64772800  1
  H  348  1  0.25476700  0.78592600  0.67388100  1
  H  349  1  0.73813700  0.73805900  0.65302000  1
  H  350  1  0.71508200  0.72952000  0.62812000  1
  H  351  1  0.55756800  0.76231600  0.68975600  1
  H  352  1  0.46079800  0.77889100  0.62573300  1
  H  367  1  0.23330000  0.37395800  0.50094100  1
  H  376  1  0.28734700  0.44407100  0.48468800  1
  H  377  1  0.48280000  0.39884300  0.45223200  1
  H  378  1  0.48690200  0.42526800  0.45989600  1
  H  379  1  0.00225400  0.40197700  0.50541600  1
  H  380  1  0.02539100  0.37707600  0.51391700  1
  H  381  1  0.18307800  0.43942800  0.48265000  1
  H  382  1  0.28358300  0.37560000  0.46721800  1
  H  397  1  0.73367800  0.12118200  0.49514700  1
  H  406  1  0.78678200  0.05108000  0.51111800  1
  H  407  1  0.98125200  0.09586200  0.54500300  1
  H  408  1  0.98574200  0.06952600  0.53712500  1
  H  409  1  0.50243800  0.09331700  0.48913700  1
  H  410  1  0.52637400  0.11817300  0.48084500  1
  H  411  1  0.68236800  0.05574700  0.51313900  1
  H  412  1  0.78263200  0.11937600  0.52924300  1
  H  427  1  0.98238500  0.24419600  0.62395400  1
  H  436  1  0.03733600  0.26013900  0.69402200  1
  H  437  1  0.23214400  0.29341000  0.64887700  1
  H  438  1  0.23658400  0.28567700  0.67526000  1
  H  439  1  0.75116900  0.24028200  0.65215000  1
  H  440  1  0.77398100  0.23190800  0.62718700  1
  H  441  1  0.93308400  0.26237600  0.68952800  1
  H  442  1  0.03316100  0.27785600  0.62560700  1
  H  457  1  0.48541400  0.25042700  0.37165700  1
  H  466  1  0.53867500  0.23460200  0.30148500  1
  H  467  1  0.73389500  0.20120800  0.34620400  1
  H  468  1  0.73802400  0.20918900  0.31987500  1
  H  469  1  0.25426800  0.25566900  0.34386100  1
  H  470  1  0.27779200  0.26406000  0.36875200  1
  H  471  1  0.43437000  0.23245800  0.30618700  1
  H  472  1  0.53509600  0.21649000  0.36978500  1
  H  487  1  0.92068000  0.99004000  0.02678800  1
  H  492  1  0.87796200  0.96165200  0.00202600  1
  H  494  1  0.11281500  0.03293600  0.99450700  1
  H  501  1  0.42175100  0.50688000  0.96828800  1
  H  506  1  0.37788300  0.53427700  0.99383400  1
  H  508  1  0.61322200  0.46319900  0.99992300  1
  H  515  1  0.17168400  0.21846100  0.73926700  1
  H  520  1  0.12692700  0.24352600  0.71159200  1
  H  522  1  0.36363100  0.25103300  0.78203400  1
  H  529  1  0.67164400  0.27673600  0.25643600  1
  H  534  1  0.62764600  0.25135000  0.28394100  1
  H  536  1  0.86360000  0.24490600  0.21312000  1
  H  543  1  0.06158000  0.49845700  0.03019700  1
  H  548  1  0.09738600  0.53532500  0.01867500  1
  H  550  1  0.89436400  0.46201000  0.97734200  1
  H  557  1  0.56376600  0.99696400  0.96560600  1
  H  562  1  0.59890600  0.95999500  0.97709800  1
  H  564  1  0.39282000  0.03285400  0.01721900  1
  H  571  1  0.81450700  0.27927800  0.74738800  1
  H  576  1  0.84796900  0.26862000  0.71000300  1
  H  578  1  0.64355700  0.22737600  0.78287200  1
  H  585  1  0.31298200  0.21516400  0.24914700  1
  H  590  1  0.34817700  0.22622600  0.28619500  1
  H  592  1  0.14419700  0.26779800  0.21335800  1
  H  599  1  0.82037200  0.77725600  0.25646200  1
  H  604  1  0.86498600  0.75230400  0.28428200  1
  H  606  1  0.62867800  0.74445000  0.21369800  1
  H  613  1  0.31955900  0.71850200  0.73865500  1
  H  618  1  0.36336500  0.74368400  0.71090600  1
  H  620  1  0.12820500  0.75070100  0.78204400  1
  H  627  1  0.17812700  0.71596500  0.24898800  1
  H  632  1  0.14445200  0.72682100  0.28632500  1
  H  634  1  0.34930500  0.76772000  0.21342800  1
  H  641  1  0.67832800  0.77955600  0.74720100  1
  H  646  1  0.64340800  0.76832700  0.71011400  1
  H  648  1  0.84844100  0.72745800  0.78296200  1
  H  655  1  0.42033400  0.48978100  0.52618300  1
  H  660  1  0.37627700  0.46188700  0.50120900  1
  H  662  1  0.61262800  0.53251100  0.49380800  1
  H  669  1  0.92118000  0.00686000  0.46868200  1
  H  674  1  0.87635900  0.03396900  0.49430400  1
  H  676  1  0.11320500  0.96354600  0.50040200  1
  H  683  1  0.56199600  0.99834600  0.52977100  1
  H  688  1  0.59648400  0.03558800  0.51902200  1
  H  690  1  0.39315000  0.96277900  0.47700700  1
  H  697  1  0.06317200  0.49686000  0.46539300  1
  H  702  1  0.09743100  0.45964500  0.47634400  1
  H  704  1  0.89202400  0.53233700  0.51720800  1
  H  711  1  0.29582800  0.16307700  0.94055800  1
  H  716  1  0.35303000  0.10506100  0.94209600  1
  H  718  1  0.35349100  0.16705200  0.85497200  1
  H  725  1  0.79394500  0.33224900  0.05502800  1
  H  730  1  0.84329400  0.39127300  0.05298500  1
  H  732  1  0.85280400  0.32983900  0.14062200  1
  H  739  1  0.54416000  0.30527800  0.91175900  1
  H  744  1  0.60676400  0.30213700  0.85456700  1
  H  746  1  0.60514400  0.39056600  0.91478200  1
  H  753  1  0.04716300  0.19161900  0.08265900  1
  H  758  1  0.10229600  0.19314600  0.14101500  1
  H  760  1  0.10438800  0.10601300  0.07899600  1
  H  767  1  0.69474400  0.83079800  0.05417000  1
  H  772  1  0.62423000  0.88666400  0.05043900  1
  H  774  1  0.63445600  0.82796500  0.13940700  1
  H  781  1  0.19678500  0.66415400  0.94136100  1
  H  786  1  0.12872800  0.60790500  0.94508000  1
  H  788  1  0.13712600  0.66666667  0.85602500  1
  H  795  1  0.44799900  0.69256300  0.08322100  1
  H  800  1  0.38261100  0.69375900  0.14000300  1
  H  802  1  0.39263200  0.60699300  0.07773500  1
  H  809  1  0.94888600  0.80217500  0.91364700  1
  H  814  1  0.88703200  0.80187800  0.85626800  1
  H  816  1  0.89580200  0.88789900  0.91950100  1
  H  823  1  0.79563200  0.66380200  0.44351900  1
  H  828  1  0.85880000  0.60662100  0.44354400  1
  H  830  1  0.84841400  0.67001300  0.35774800  1
  H  837  1  0.29360800  0.83183300  0.55182000  1
  H  842  1  0.35287400  0.88962900  0.55112700  1
  H  844  1  0.34769000  0.82686700  0.63757600  1
  H  851  1  0.04359600  0.80472500  0.41361600  1
  H  856  1  0.12087800  0.79976700  0.35919400  1
  H  858  1  0.10435100  0.88987900  0.41605200  1
  H  865  1  0.54578000  0.69166100  0.58097300  1
  H  870  1  0.61647400  0.69520500  0.63677000  1
  H  872  1  0.60479600  0.60637400  0.57784500  1
  H  879  1  0.19663400  0.32994100  0.55141000  1
  H  884  1  0.12259300  0.38523600  0.54898400  1
  H  886  1  0.14162400  0.32551000  0.63698400  1
  H  893  1  0.69989200  0.16460400  0.44381600  1
  H  898  1  0.62527400  0.10950500  0.44646500  1
  H  900  1  0.64550100  0.16882000  0.35819200  1
  H  907  1  0.94856100  0.19339700  0.58133400  1
  H  912  1  0.86984000  0.19664100  0.63557500  1
  H  914  1  0.89290200  0.10794100  0.57708100  1
  H  921  1  0.45016800  0.30141800  0.41548800  1
  H  926  1  0.37549400  0.29880800  0.36033600  1
  H  928  1  0.39554400  0.38695100  0.41970400  1
  H  1863  1  0.25695100  0.37132800  0.01047480  1
  H  1872  1  0.20104100  0.30226000  0.02704280  1
  H  1873  1  0.01527300  0.34930300  0.06430680  1
  H  1874  1  0.00664900  0.32343600  0.05546080  1
  H  1875  1  0.48420200  0.34106500  0.99906100  1
  H  1876  1  0.46032400  0.36580400  0.99044400  1
  H  1877  1  0.30679900  0.30571900  0.02848680  1
  H  1878  1  0.21480200  0.36997700  0.04640080  1
  H  1893  1  0.75319200  0.63089200  0.01787980  1
  H  1902  1  0.70169900  0.70020800  0.00088081  1
  H  1903  1  0.51484500  0.65466500  0.96244800  1
  H  1904  1  0.50719000  0.68060600  0.97115300  1
  H  1905  1  0.98145400  0.65980700  0.03091480  1
  H  1906  1  0.95563900  0.63535200  0.03952780  1
  H  1907  1  0.80721400  0.69598200  0.99960600  1
  H  1908  1  0.71226400  0.63236800  0.98169500  1
  H  1923  1  0.50619900  0.50488600  0.88473200  1
  H  1932  1  0.45266600  0.48803200  0.81536900  1
  H  1933  1  0.26354300  0.45137500  0.86115300  1
  H  1934  1  0.25673000  0.45976500  0.83507300  1
  H  1935  1  0.73589400  0.51391700  0.85600100  1
  H  1936  1  0.71145700  0.52273300  0.88057600  1
  H  1937  1  0.55790200  0.48616100  0.81954700  1
  H  1938  1  0.46194500  0.46935000  0.88340800  1
  H  1953  1  0.00713000  0.49780300  0.14488500  1
  H  1962  1  0.95256600  0.51410900  0.21416100  1
  H  1963  1  0.76541300  0.55128500  0.16783500  1
  H  1964  1  0.75763100  0.54243800  0.19373500  1
  H  1965  1  0.23473100  0.48610300  0.17466000  1
  H  1966  1  0.21044900  0.47758100  0.14994000  1
  H  1967  1  0.05805000  0.51554100  0.21045100  1
  H  1968  1  0.96470000  0.53367300  0.14645100  1
  H  1983  1  0.73421200  0.12727300  0.01881080  1
  H  1992  1  0.78983800  0.19693500  0.00275481  1
  H  1993  1  0.98233000  0.15086500  0.96915600  1
  H  1994  1  0.98806900  0.17706600  0.97739600  1
  H  1995  1  0.50389700  0.15596600  0.02402880  1
  H  1996  1  0.52683700  0.13108000  0.03265380  1
  H  1997  1  0.68482800  0.19280300  0.00034281  1
  H  1998  1  0.78221000  0.12881300  0.98420500  1
  H  2013  1  0.23452200  0.87388000  0.01132480  1
  H  2022  1  0.28891300  0.80422900  0.02720380  1
  H  2023  1  0.48035400  0.84974600  0.06238080  1
  H  2024  1  0.48643000  0.82363100  0.05396280  1
  H  2025  1  0.00423900  0.84523800  0.00400981  1
  H  2026  1  0.02807600  0.87006200  0.99558900  1
  H  2027  1  0.18381600  0.80841100  0.02953980  1
  H  2028  1  0.28101900  0.87218900  0.04631480  1
  H  2043  1  0.48404600  0.99698200  0.14462700  1
  H  2052  1  0.53945900  0.01350810  0.21415900  1
  H  2053  1  0.72823400  0.05014210  0.16807700  1
  H  2054  1  0.73527300  0.04188610  0.19420000  1
  H  2055  1  0.25512300  0.98796700  0.17422700  1
  H  2056  1  0.27855800  0.97952000  0.14939600  1
  H  2057  1  0.43456600  0.01495810  0.21025000  1
  H  2058  1  0.52994800  0.03183010  0.14601500  1
  H  2073  1  0.98545300  0.00396911  0.88499000  1
  H  2082  1  0.03975600  0.98768200  0.81538100  1
  H  2083  1  0.22864100  0.95096300  0.86124100  1
  H  2084  1  0.23562000  0.95952100  0.83520100  1
  H  2085  1  0.75703200  0.01440710  0.85555600  1
  H  2086  1  0.78103000  0.02282710  0.88034600  1
  H  2087  1  0.93474900  0.98634700  0.81938200  1
  H  2088  1  0.03021000  0.96886300  0.88336800  1
  H  2103  1  0.75816300  0.87138500  0.51095600  1
  H  2112  1  0.70150400  0.80182500  0.52679000  1
  H  2113  1  0.51325400  0.84823400  0.56325300  1
  H  2114  1  0.50580400  0.82220900  0.55468500  1
  H  2115  1  0.98615000  0.84123000  0.50139100  1
  H  2116  1  0.96316800  0.86620600  0.49312500  1
  H  2117  1  0.80655800  0.80545200  0.52824800  1
  H  2118  1  0.71244600  0.86974500  0.54579400  1
  H  2133  1  0.25521300  0.13072100  0.51713200  1
  H  2142  1  0.20217400  0.20047400  0.50087200  1
  H  2143  1  0.01253600  0.15525800  0.46386600  1
  H  2144  1  0.00601900  0.18135700  0.47226000  1
  H  2145  1  0.48436900  0.15967300  0.52766800  1
  H  2146  1  0.45978900  0.13492800  0.53595600  1
  H  2147  1  0.30701500  0.19619900  0.49945500  1
  H  2148  1  0.21020800  0.13243500  0.48211100  1
  H  2163  1  0.00840900  0.00524111  0.38867700  1
  H  2172  1  0.95443100  0.98889800  0.31885500  1
  H  2173  1  0.76002000  0.95540800  0.36401200  1
  H  2174  1  0.75540700  0.96327900  0.33767800  1
  H  2175  1  0.24017100  0.00888411  0.36110200  1
  H  2176  1  0.21671000  0.01767110  0.38584100  1
  H  2177  1  0.05907100  0.98622900  0.32347400  1
  H  2178  1  0.95913100  0.97090100  0.38718300  1
  H  2193  1  0.50814800  0.99717400  0.64103100  1
  H  2202  1  0.45250600  0.01312110  0.71064400  1
  H  2203  1  0.26075100  0.04733010  0.66459800  1
  H  2204  1  0.25476700  0.03897310  0.69075100  1
  H  2205  1  0.73813700  0.99110600  0.66989000  1
  H  2206  1  0.71508200  0.98256700  0.64499000  1
  H  2207  1  0.55756800  0.01536310  0.70662600  1
  H  2208  1  0.46079800  0.03193810  0.64260300  1
  H  2223  1  0.23330000  0.62700500  0.51781100  1
  H  2232  1  0.28734700  0.69711800  0.50155800  1
  H  2233  1  0.48280000  0.65189000  0.46910200  1
  H  2234  1  0.48690200  0.67831500  0.47676600  1
  H  2235  1  0.00225400  0.65502400  0.52228600  1
  H  2236  1  0.02539100  0.63012300  0.53078700  1
  H  2237  1  0.18307800  0.69247500  0.49952000  1
  H  2238  1  0.28358300  0.62864700  0.48408800  1
  H  2253  1  0.73367800  0.37422900  0.51201700  1
  H  2262  1  0.78678200  0.30412700  0.52798800  1
  H  2263  1  0.98125200  0.34890900  0.56187300  1
  H  2264  1  0.98574200  0.32257300  0.55399500  1
  H  2265  1  0.50243800  0.34636400  0.50600700  1
  H  2266  1  0.52637400  0.37122000  0.49771500  1
  H  2267  1  0.68236800  0.30879400  0.53000900  1
  H  2268  1  0.78263200  0.37242300  0.54611300  1
  H  2283  1  0.98238500  0.49724300  0.64082400  1
  H  2292  1  0.03733600  0.51318600  0.71089200  1
  H  2293  1  0.23214400  0.54645700  0.66574700  1
  H  2294  1  0.23658400  0.53872400  0.69213000  1
  H  2295  1  0.75116900  0.49332900  0.66902000  1
  H  2296  1  0.77398100  0.48495500  0.64405700  1
  H  2297  1  0.93308400  0.51542300  0.70639800  1
  H  2298  1  0.03316100  0.53090300  0.64247700  1
  H  2313  1  0.48541400  0.50347400  0.38852700  1
  H  2322  1  0.53867500  0.48764900  0.31835500  1
  H  2323  1  0.73389500  0.45425500  0.36307400  1
  H  2324  1  0.73802400  0.46223600  0.33674500  1
  H  2325  1  0.25426800  0.50871600  0.36073100  1
  H  2326  1  0.27779200  0.51710700  0.38562200  1
  H  2327  1  0.43437000  0.48550500  0.32305700  1
  H  2328  1  0.53509600  0.46953700  0.38665500  1
  H  2343  1  0.92068000  0.24308700  0.04365780  1
  H  2348  1  0.87796200  0.21469900  0.01889580  1
  H  2350  1  0.11281500  0.28598300  0.01137680  1
  H  2357  1  0.42175100  0.75992700  0.98515800  1
  H  2362  1  0.37788300  0.78732400  0.01070380  1
  H  2364  1  0.61322200  0.71624600  0.01679280  1
  H  2371  1  0.17168400  0.47150800  0.75613700  1
  H  2376  1  0.12692700  0.49657300  0.72846200  1
  H  2378  1  0.36363100  0.50408000  0.79890400  1
  H  2385  1  0.67164400  0.52978300  0.27330600  1
  H  2390  1  0.62764600  0.50439700  0.30081100  1
  H  2392  1  0.86360000  0.49795300  0.22999000  1
  H  2399  1  0.06158000  0.75150400  0.04706680  1
  H  2404  1  0.09738600  0.78837200  0.03554480  1
  H  2406  1  0.89436400  0.71505700  0.99421200  1
  H  2413  1  0.56376600  0.25001100  0.98247600  1
  H  2418  1  0.59890600  0.21304200  0.99396800  1
  H  2420  1  0.39282000  0.28590100  0.03408880  1
  H  2427  1  0.81450700  0.53232500  0.76425800  1
  H  2432  1  0.84796900  0.52166700  0.72687300  1
  H  2434  1  0.64355700  0.48042300  0.79974200  1
  H  2441  1  0.31298200  0.46821100  0.26601700  1
  H  2446  1  0.34817700  0.47927300  0.30306500  1
  H  2448  1  0.14419700  0.52084500  0.23022800  1
  H  2455  1  0.82037200  0.03030310  0.27333200  1
  H  2460  1  0.86498600  0.00535111  0.30115200  1
  H  2462  1  0.62867800  0.99749700  0.23056800  1
  H  2469  1  0.31955900  0.97154900  0.75552500  1
  H  2474  1  0.36336500  0.99673100  0.72777600  1
  H  2476  1  0.12820500  0.00374811  0.79891400  1
  H  2483  1  0.17812700  0.96901200  0.26585800  1
  H  2488  1  0.14445200  0.97986800  0.30319500  1
  H  2490  1  0.34930500  0.02076710  0.23029800  1
  H  2497  1  0.67832800  0.03260310  0.76407100  1
  H  2502  1  0.64340800  0.02137410  0.72698400  1
  H  2504  1  0.84844100  0.98050500  0.79983200  1
  H  2511  1  0.42033400  0.74282800  0.54305300  1
  H  2516  1  0.37627700  0.71493400  0.51807900  1
  H  2518  1  0.61262800  0.78555800  0.51067800  1
  H  2525  1  0.92118000  0.25990700  0.48555200  1
  H  2530  1  0.87635900  0.28701600  0.51117400  1
  H  2532  1  0.11320500  0.21659300  0.51727200  1
  H  2539  1  0.56199600  0.25139300  0.54664100  1
  H  2544  1  0.59648400  0.28863500  0.53589200  1
  H  2546  1  0.39315000  0.21582600  0.49387700  1
  H  2553  1  0.06317200  0.74990700  0.48226300  1
  H  2558  1  0.09743100  0.71269200  0.49321400  1
  H  2560  1  0.89202400  0.78538400  0.53407800  1
  H  2567  1  0.29582800  0.41612400  0.95742800  1
  H  2572  1  0.35303000  0.35810800  0.95896600  1
  H  2574  1  0.35349100  0.42009900  0.87184200  1
  H  2581  1  0.79394500  0.58529600  0.07189780  1
  H  2586  1  0.84329400  0.64432000  0.06985480  1
  H  2588  1  0.85280400  0.58288600  0.15749200  1
  H  2595  1  0.54416000  0.55832500  0.92862900  1
  H  2600  1  0.60676400  0.55518400  0.87143700  1
  H  2602  1  0.60514400  0.64361300  0.93165200  1
  H  2609  1  0.04716300  0.44466600  0.09952880  1
  H  2614  1  0.10229600  0.44619300  0.15788500  1
  H  2616  1  0.10438800  0.35906000  0.09586580  1
  H  2623  1  0.69474400  0.08384510  0.07103980  1
  H  2628  1  0.62423000  0.13971100  0.06730880  1
  H  2630  1  0.63445600  0.08101210  0.15627700  1
  H  2637  1  0.19678500  0.91720100  0.95823100  1
  H  2642  1  0.12872800  0.86095200  0.96195000  1
  H  2644  1  0.13712600  0.91970500  0.87289500  1
  H  2651  1  0.44799900  0.94561000  0.10009100  1
  H  2656  1  0.38261100  0.94680600  0.15687300  1
  H  2658  1  0.39263200  0.86004000  0.09460480  1
  H  2665  1  0.94888600  0.05522210  0.93051700  1
  H  2670  1  0.88703200  0.05492510  0.87313800  1
  H  2672  1  0.89580200  0.14094600  0.93637100  1
  H  2679  1  0.79563200  0.91684900  0.46038900  1
  H  2684  1  0.85880000  0.85966800  0.46041400  1
  H  2686  1  0.84841400  0.92306000  0.37461800  1
  H  2693  1  0.29360800  0.08488010  0.56869000  1
  H  2698  1  0.35287400  0.14267600  0.56799700  1
  H  2700  1  0.34769000  0.07991410  0.65444600  1
  H  2707  1  0.04359600  0.05777210  0.43048600  1
  H  2712  1  0.12087800  0.05281410  0.37606400  1
  H  2714  1  0.10435100  0.14292600  0.43292200  1
  H  2721  1  0.54578000  0.94470800  0.59784300  1
  H  2726  1  0.61647400  0.94825200  0.65364000  1
  H  2728  1  0.60479600  0.85942100  0.59471500  1
  H  2735  1  0.19663400  0.58298800  0.56828000  1
  H  2740  1  0.12259300  0.63828300  0.56585400  1
  H  2742  1  0.14162400  0.57855700  0.65385400  1
  H  2749  1  0.69989200  0.41765100  0.46068600  1
  H  2754  1  0.62527400  0.36255200  0.46333500  1
  H  2756  1  0.64550100  0.42186700  0.37506200  1
  H  2763  1  0.94856100  0.44644400  0.59820400  1
  H  2768  1  0.86984000  0.44968800  0.65244500  1
  H  2770  1  0.89290200  0.36098800  0.59395100  1
  H  2777  1  0.45016800  0.55446500  0.43235800  1
  H  2782  1  0.37549400  0.55185500  0.37720600  1
  H  2784  1  0.39554400  0.63999800  0.43657400  1
  N  8  1  0.44967600  0.09745900  0.97799000  1
  N  15  1  0.03483600  0.08231900  0.04270500  1
  N  38  1  0.94607600  0.39759100  0.01786900  1
  N  45  1  0.53493500  0.41536700  0.95055600  1
  N  68  1  0.70111400  0.26520500  0.84838800  1
  N  75  1  0.28410000  0.20304500  0.83052800  1
  N  98  1  0.20005000  0.22890500  0.14840700  1
  N  105  1  0.78542500  0.29352100  0.16482200  1
  N  128  1  0.53775100  0.89350600  0.01212100  1
  N  135  1  0.96127000  0.91168200  0.95635000  1
  N  158  1  0.03863900  0.60157100  0.98265600  1
  N  165  1  0.45942400  0.58293000  0.04107200  1
  N  188  1  0.28951800  0.73071100  0.14785300  1
  N  195  1  0.70783400  0.79230900  0.16497700  1
  N  218  1  0.79156700  0.76560900  0.84810100  1
  N  225  1  0.20822600  0.70261700  0.83057700  1
  N  248  1  0.95204800  0.59777500  0.48020100  1
  N  255  1  0.53341700  0.58133200  0.54171200  1
  N  278  1  0.44953400  0.89726100  0.51483500  1
  N  285  1  0.03319900  0.91591100  0.45180200  1
  N  308  1  0.20603500  0.76080800  0.35350700  1
  N  315  1  0.78171700  0.70651800  0.33343900  1
  N  338  1  0.70419800  0.73321100  0.64358800  1
  N  345  1  0.28168900  0.79008900  0.66157500  1
  N  368  1  0.03614300  0.39259900  0.51041500  1
  N  375  1  0.46089500  0.41260200  0.45606500  1
  N  398  1  0.53681800  0.10266500  0.48453300  1
  N  405  1  0.95951600  0.08218300  0.54081100  1
  N  428  1  0.78507000  0.23548200  0.64267100  1
  N  435  1  0.21037200  0.28923500  0.66256500  1
  N  458  1  0.28833900  0.26054600  0.35321300  1
  N  465  1  0.71200300  0.20529000  0.33251400  1
  N  482  1  0.99866900  0.00739100  0.01784000  1
  N  485  1  0.99219600  0.98679100  0.97800200  1
  N  488  1  0.08307300  0.00496100  0.96423600  1
  N  491  1  0.90345400  0.96593800  0.98919800  1
  N  493  1  0.08715900  0.02831500  0.00712300  1
  N  496  1  0.49975200  0.48938800  0.97693400  1
  N  499  1  0.49185000  0.50861500  0.01743500  1
  N  502  1  0.58263800  0.49018300  0.03091500  1
  N  505  1  0.40306300  0.52961900  0.00661700  1
  N  507  1  0.58809300  0.46822800  0.98731900  1
  N  510  1  0.24988400  0.22751800  0.75642900  1
  N  513  1  0.24091700  0.26773600  0.73671500  1
  N  516  1  0.33189800  0.28164500  0.75470800  1
  N  519  1  0.15196000  0.25642400  0.71605600  1
  N  521  1  0.33847400  0.23834500  0.77722800  1
  N  524  1  0.74966500  0.26796500  0.23902200  1
  N  527  1  0.74142000  0.22753800  0.25836300  1
  N  530  1  0.83226800  0.21393600  0.24005400  1
  N  533  1  0.65271900  0.23851200  0.27933500  1
  N  535  1  0.83821800  0.25749400  0.21801700  1
  N  538  1  0.99484900  0.48183600  0.01214600  1
  N  541  1  0.99607300  0.51630600  0.98351200  1
  N  544  1  0.91839200  0.49993900  0.95999000  1
  N  547  1  0.07280600  0.53568200  0.00497000  1
  N  549  1  0.91780900  0.46234600  0.99126700  1
  N  552  1  0.49560600  0.01334700  0.98314900  1
  N  555  1  0.49483800  0.97857700  0.01140700  1
  N  558  1  0.41530300  0.99464600  0.03429500  1
  N  561  1  0.57338800  0.95949900  0.99056300  1
  N  563  1  0.41712600  0.03262600  0.00349300  1
  N  566  1  0.74679000  0.26147500  0.76372800  1
  N  569  1  0.74393300  0.23411600  0.72826500  1
  N  572  1  0.66476400  0.21099700  0.74425600  1
  N  575  1  0.82197500  0.25529300  0.70925400  1
  N  577  1  0.66853000  0.24093800  0.78290900  1
  N  580  1  0.24573800  0.23316900  0.23276300  1
  N  583  1  0.24532000  0.26112300  0.26778600  1
  N  586  1  0.16690500  0.28453000  0.25171100  1
  N  589  1  0.32286900  0.23974000  0.28683200  1
  N  591  1  0.16822400  0.25400500  0.21349600  1
  N  594  1  0.74229800  0.76810600  0.23927000  1
  N  597  1  0.75125000  0.72797300  0.25914900  1
  N  600  1  0.66043000  0.71395100  0.24113200  1
  N  603  1  0.84007000  0.73937200  0.27984000  1
  N  605  1  0.65387200  0.75715400  0.21844700  1
  N  608  1  0.24168700  0.72739800  0.75610000  1
  N  611  1  0.24936100  0.76760000  0.73626600  1
  N  614  1  0.15869600  0.78133200  0.75460200  1
  N  617  1  0.33805500  0.75651300  0.71534600  1
  N  619  1  0.15351000  0.73806100  0.77721600  1
  N  622  1  0.24604400  0.73365600  0.23263000  1
  N  625  1  0.24910200  0.76106000  0.26805800  1
  N  628  1  0.32857000  0.78404000  0.25208100  1
  N  631  1  0.17056400  0.74011700  0.28703500  1
  N  633  1  0.32425900  0.75417500  0.21339100  1
  N  636  1  0.74600100  0.76177000  0.76359800  1
  N  639  1  0.74669200  0.73369800  0.72867600  1
  N  642  1  0.82570500  0.71055600  0.74472300  1
  N  645  1  0.66866400  0.75479600  0.70960000  1
  N  647  1  0.82400900  0.74115500  0.78285500  1
  N  650  1  0.49852900  0.50697700  0.51719000  1
  N  653  1  0.49040800  0.48699300  0.47708000  1
  N  656  1  0.58143400  0.50502500  0.46325500  1
  N  659  1  0.40145800  0.46629000  0.48833400  1
  N  661  1  0.58717100  0.52777500  0.50644200  1
  N  664  1  0.99945200  0.98955900  0.47737900  1
  N  667  1  0.99047400  0.00847600  0.51799300  1
  N  670  1  0.08152900  0.99025300  0.53152200  1
  N  673  1  0.90143200  0.02928700  0.50711700  1
  N  675  1  0.08807300  0.96858900  0.48779900  1
  N  678  1  0.49488800  0.98198500  0.51167300  1
  N  681  1  0.49377000  0.01726100  0.48404000  1
  N  684  1  0.41541700  0.00125900  0.46056300  1
  N  687  1  0.57122800  0.03626100  0.50549700  1
  N  689  1  0.41750800  0.96276300  0.49072300  1
  N  692  1  0.99516800  0.51315800  0.48308900  1
  N  695  1  0.99301900  0.47787400  0.51069800  1
  N  698  1  0.91351400  0.49380500  0.53369800  1
  N  701  1  0.07161800  0.45895800  0.48972400  1
  N  703  1  0.91690100  0.53234900  0.50361900  1
  N  706  1  0.31954100  0.16840500  0.90752800  1
  N  709  1  0.37176500  0.12744300  0.90808800  1
  N  712  1  0.40152700  0.13000700  0.86914400  1
  N  715  1  0.34896100  0.12108300  0.94576700  1
  N  717  1  0.34900300  0.17446900  0.86959300  1
  N  720  1  0.81844600  0.32761200  0.08810100  1
  N  723  1  0.86412000  0.36960100  0.08732000  1
  N  726  1  0.89428000  0.36788300  0.12626600  1
  N  729  1  0.84109200  0.37515400  0.04952800  1
  N  731  1  0.84905600  0.32230300  0.12604100  1
  N  734  1  0.56894000  0.33826000  0.91669200  1
  N  737  1  0.62490200  0.33649900  0.87644100  1
  N  740  1  0.65620000  0.37531600  0.87857300  1
  N  743  1  0.60100800  0.29882000  0.87059500  1
  N  745  1  0.59979100  0.37608700  0.92238200  1
  N  748  1  0.07108500  0.15858900  0.07746700  1
  N  751  1  0.12129500  0.15910900  0.11876100  1
  N  754  1  0.15103800  0.12014600  0.11637400  1
  N  757  1  0.09848700  0.19681700  0.12498400  1
  N  759  1  0.10066900  0.12064700  0.07155800  1
  N  762  1  0.67023600  0.82578200  0.08715100  1
  N  765  1  0.60742600  0.86461300  0.08464800  1
  N  768  1  0.57573000  0.86230000  0.12341800  1
  N  771  1  0.63224200  0.87076700  0.04712100  1
  N  773  1  0.64029800  0.82013600  0.12506300  1
  N  776  1  0.17253600  0.66899600  0.90831300  1
  N  779  1  0.11161900  0.62975000  0.91071200  1
  N  782  1  0.08028400  0.63185400  0.87189300  1
  N  785  1  0.13583200  0.62387300  0.94833500  1
  N  787  1  0.14258700  0.67450200  0.87037400  1
  N  790  1  0.42529600  0.65955700  0.07724800  1
  N  793  1  0.36667500  0.65992800  0.11706000  1
  N  796  1  0.33753300  0.62096900  0.11367000  1
  N  799  1  0.38861800  0.69755500  0.12409400  1
  N  801  1  0.39684100  0.62168600  0.07045000  1
  N  804  1  0.92680200  0.83520900  0.91978400  1
  N  807  1  0.87099800  0.83553300  0.87943000  1
  N  810  1  0.84282400  0.87456800  0.88297400  1
  N  813  1  0.89215400  0.79789500  0.87217300  1
  N  815  1  0.89912000  0.87314300  0.92672800  1
  N  818  1  0.81733000  0.67009400  0.41048500  1
  N  821  1  0.87442600  0.62999300  0.41003600  1
  N  824  1  0.90225200  0.63372300  0.37099100  1
  N  827  1  0.85337100  0.62248800  0.44762900  1
  N  829  1  0.84443800  0.67719500  0.37250900  1
  N  832  1  0.31608500  0.82607600  0.58489000  1
  N  835  1  0.36974700  0.86680800  0.58493700  1
  N  838  1  0.39827100  0.86371200  0.62397400  1
  N  841  1  0.34824600  0.87367400  0.54725500  1
  N  843  1  0.34422000  0.81954900  0.62287000  1
  N  846  1  0.06783900  0.83776300  0.41844700  1
  N  849  1  0.13581900  0.83440400  0.38085300  1
  N  852  1  0.16770300  0.87317300  0.38303200  1
  N  855  1  0.11135400  0.79678100  0.37504100  1
  N  857  1  0.09795300  0.87563900  0.42399400  1
  N  860  1  0.56991800  0.65865500  0.57584600  1
  N  863  1  0.63291300  0.66096600  0.61466200  1
  N  866  1  0.66417200  0.62214800  0.61221600  1
  N  869  1  0.60866400  0.69854000  0.62086300  1
  N  871  1  0.59961000  0.62076200  0.57004100  1
  N  874  1  0.17434300  0.32426000  0.58448800  1
  N  877  1  0.10875300  0.36254600  0.58297500  1
  N  880  1  0.07937800  0.35941300  0.62193600  1
  N  883  1  0.13120000  0.36944400  0.54538100  1
  N  885  1  0.14666700  0.31786100  0.62249900  1
  N  888  1  0.67797000  0.17018600  0.41067200  1
  N  891  1  0.61173900  0.13204100  0.41230200  1
  N  894  1  0.58260800  0.13508500  0.37330900  1
  N  897  1  0.63368600  0.12533300  0.44997000  1
  N  899  1  0.65042200  0.17652900  0.37264400  1
  N  902  1  0.92618300  0.16030900  0.57571100  1
  N  905  1  0.85672300  0.16245200  0.61305900  1
  N  908  1  0.82683200  0.12353300  0.60992300  1
  N  911  1  0.87940400  0.20005700  0.61981700  1
  N  913  1  0.89820500  0.12235600  0.56934600  1
  N  916  1  0.42786300  0.33451100  0.42111900  1
  N  919  1  0.36176600  0.33285000  0.38294100  1
  N  922  1  0.33224300  0.37180400  0.38603200  1
  N  925  1  0.38420300  0.29524900  0.37613100  1
  N  927  1  0.40004600  0.37250400  0.42745600  1
  N  1864  1  0.44967600  0.35050600  0.99486000  1
  N  1871  1  0.03483600  0.33536600  0.05957480  1
  N  1894  1  0.94607600  0.65063800  0.03473880  1
  N  1901  1  0.53493500  0.66841400  0.96742600  1
  N  1924  1  0.70111400  0.51825200  0.86525800  1
  N  1931  1  0.28410000  0.45609200  0.84739800  1
  N  1954  1  0.20005000  0.48195200  0.16527700  1
  N  1961  1  0.78542500  0.54656800  0.18169200  1
  N  1984  1  0.53775100  0.14655300  0.02899080  1
  N  1991  1  0.96127000  0.16472900  0.97322000  1
  N  2014  1  0.03863900  0.85461800  0.99952600  1
  N  2021  1  0.45942400  0.83597700  0.05794180  1
  N  2044  1  0.28951800  0.98375800  0.16472300  1
  N  2051  1  0.70783400  0.04535610  0.18184700  1
  N  2074  1  0.79156700  0.01865610  0.86497100  1
  N  2081  1  0.20822600  0.95566400  0.84744700  1
  N  2104  1  0.95204800  0.85082200  0.49707100  1
  N  2111  1  0.53341700  0.83437900  0.55858200  1
  N  2134  1  0.44953400  0.15030800  0.53170500  1
  N  2141  1  0.03319900  0.16895800  0.46867200  1
  N  2164  1  0.20603500  0.01385510  0.37037700  1
  N  2171  1  0.78171700  0.95956500  0.35030900  1
  N  2194  1  0.70419800  0.98625800  0.66045800  1
  N  2201  1  0.28168900  0.04313610  0.67844500  1
  N  2224  1  0.03614300  0.64564600  0.52728500  1
  N  2231  1  0.46089500  0.66564900  0.47293500  1
  N  2254  1  0.53681800  0.35571200  0.50140300  1
  N  2261  1  0.95951600  0.33523000  0.55768100  1
  N  2284  1  0.78507000  0.48852900  0.65954100  1
  N  2291  1  0.21037200  0.54228200  0.67943500  1
  N  2314  1  0.28833900  0.51359300  0.37008300  1
  N  2321  1  0.71200300  0.45833700  0.34938400  1
  N  2338  1  0.99866900  0.26043800  0.03470980  1
  N  2341  1  0.99219600  0.23983800  0.99487200  1
  N  2344  1  0.08307300  0.25800800  0.98110600  1
  N  2347  1  0.90345400  0.21898500  0.00606781  1
  N  2349  1  0.08715900  0.28136200  0.02399280  1
  N  2352  1  0.49975200  0.74243500  0.99380400  1
  N  2355  1  0.49185000  0.76166200  0.03430480  1
  N  2358  1  0.58263800  0.74323000  0.04778480  1
  N  2361  1  0.40306300  0.78266600  0.02348680  1
  N  2363  1  0.58809300  0.72127500  0.00418881  1
  N  2366  1  0.24988400  0.48056500  0.77329900  1
  N  2369  1  0.24091700  0.52078300  0.75358500  1
  N  2372  1  0.33189800  0.53469200  0.77157800  1
  N  2375  1  0.15196000  0.50947100  0.73292600  1
  N  2377  1  0.33847400  0.49139200  0.79409800  1
  N  2380  1  0.74966500  0.52101200  0.25589200  1
  N  2383  1  0.74142000  0.48058500  0.27523300  1
  N  2386  1  0.83226800  0.46698300  0.25692400  1
  N  2389  1  0.65271900  0.49155900  0.29620500  1
  N  2391  1  0.83821800  0.51054100  0.23488700  1
  N  2394  1  0.99484900  0.73488300  0.02901580  1
  N  2397  1  0.99607300  0.76935300  0.00038181  1
  N  2400  1  0.91839200  0.75298600  0.97686000  1
  N  2403  1  0.07280600  0.78872900  0.02183980  1
  N  2405  1  0.91780900  0.71539300  0.00813681  1
  N  2408  1  0.49560600  0.26639400  0.00001881  1
  N  2411  1  0.49483800  0.23162400  0.02827680  1
  N  2414  1  0.41530300  0.24769300  0.05116480  1
  N  2417  1  0.57338800  0.21254600  0.00743281  1
  N  2419  1  0.41712600  0.28567300  0.02036280  1
  N  2422  1  0.74679000  0.51452200  0.78059800  1
  N  2425  1  0.74393300  0.48716300  0.74513500  1
  N  2428  1  0.66476400  0.46404400  0.76112600  1
  N  2431  1  0.82197500  0.50834000  0.72612400  1
  N  2433  1  0.66853000  0.49398500  0.79977900  1
  N  2436  1  0.24573800  0.48621600  0.24963300  1
  N  2439  1  0.24532000  0.51417000  0.28465600  1
  N  2442  1  0.16690500  0.53757700  0.26858100  1
  N  2445  1  0.32286900  0.49278700  0.30370200  1
  N  2447  1  0.16822400  0.50705200  0.23036600  1
  N  2450  1  0.74229800  0.02115310  0.25614000  1
  N  2453  1  0.75125000  0.98102000  0.27601900  1
  N  2456  1  0.66043000  0.96699800  0.25800200  1
  N  2459  1  0.84007000  0.99241900  0.29671000  1
  N  2461  1  0.65387200  0.01020110  0.23531700  1
  N  2464  1  0.24168700  0.98044500  0.77297000  1
  N  2467  1  0.24936100  0.02064710  0.75313600  1
  N  2470  1  0.15869600  0.03437910  0.77147200  1
  N  2473  1  0.33805500  0.00956011  0.73221600  1
  N  2475  1  0.15351000  0.99110800  0.79408600  1
  N  2478  1  0.24604400  0.98670300  0.24950000  1
  N  2481  1  0.24910200  0.01410710  0.28492800  1
  N  2484  1  0.32857000  0.03708710  0.26895100  1
  N  2487  1  0.17056400  0.99316400  0.30390500  1
  N  2489  1  0.32425900  0.00722211  0.23026100  1
  N  2492  1  0.74600100  0.01481710  0.78046800  1
  N  2495  1  0.74669200  0.98674500  0.74554600  1
  N  2498  1  0.82570500  0.96360300  0.76159300  1
  N  2501  1  0.66866400  0.00784311  0.72647000  1
  N  2503  1  0.82400900  0.99420200  0.79972500  1
  N  2506  1  0.49852900  0.76002400  0.53406000  1
  N  2509  1  0.49040800  0.74004000  0.49395000  1
  N  2512  1  0.58143400  0.75807200  0.48012500  1
  N  2515  1  0.40145800  0.71933700  0.50520400  1
  N  2517  1  0.58717100  0.78082200  0.52331200  1
  N  2520  1  0.99945200  0.24260600  0.49424900  1
  N  2523  1  0.99047400  0.26152300  0.53486300  1
  N  2526  1  0.08152900  0.24330000  0.54839200  1
  N  2529  1  0.90143200  0.28233400  0.52398700  1
  N  2531  1  0.08807300  0.22163600  0.50466900  1
  N  2534  1  0.49488800  0.23503200  0.52854300  1
  N  2537  1  0.49377000  0.27030800  0.50091000  1
  N  2540  1  0.41541700  0.25430600  0.47743300  1
  N  2543  1  0.57122800  0.28930800  0.52236700  1
  N  2545  1  0.41750800  0.21581000  0.50759300  1
  N  2548  1  0.99516800  0.76620500  0.49995900  1
  N  2551  1  0.99301900  0.73092100  0.52756800  1
  N  2554  1  0.91351400  0.74685200  0.55056800  1
  N  2557  1  0.07161800  0.71200500  0.50659400  1
  N  2559  1  0.91690100  0.78539600  0.52048900  1
  N  2562  1  0.31954100  0.42145200  0.92439800  1
  N  2565  1  0.37176500  0.38049000  0.92495800  1
  N  2568  1  0.40152700  0.38305400  0.88601400  1
  N  2571  1  0.34896100  0.37413000  0.96263700  1
  N  2573  1  0.34900300  0.42751600  0.88646300  1
  N  2576  1  0.81844600  0.58065900  0.10497100  1
  N  2579  1  0.86412000  0.62264800  0.10419000  1
  N  2582  1  0.89428000  0.62093000  0.14313600  1
  N  2585  1  0.84109200  0.62820100  0.06639780  1
  N  2587  1  0.84905600  0.57535000  0.14291100  1
  N  2590  1  0.56894000  0.59130700  0.93356200  1
  N  2593  1  0.62490200  0.58954600  0.89331100  1
  N  2596  1  0.65620000  0.62836300  0.89544300  1
  N  2599  1  0.60100800  0.55186700  0.88746500  1
  N  2601  1  0.59979100  0.62913400  0.93925200  1
  N  2604  1  0.07108500  0.41163600  0.09433680  1
  N  2607  1  0.12129500  0.41215600  0.13563100  1
  N  2610  1  0.15103800  0.37319300  0.13324400  1
  N  2613  1  0.09848700  0.44986400  0.14185400  1
  N  2615  1  0.10066900  0.37369400  0.08842780  1
  N  2618  1  0.67023600  0.07882910  0.10402100  1
  N  2621  1  0.60742600  0.11766000  0.10151800  1
  N  2624  1  0.57573000  0.11534700  0.14028800  1
  N  2627  1  0.63224200  0.12381400  0.06399080  1
  N  2629  1  0.64029800  0.07318310  0.14193300  1
  N  2632  1  0.17253600  0.92204300  0.92518300  1
  N  2635  1  0.11161900  0.88279700  0.92758200  1
  N  2638  1  0.08028400  0.88490100  0.88876300  1
  N  2641  1  0.13583200  0.87692000  0.96520500  1
  N  2643  1  0.14258700  0.92754900  0.88724400  1
  N  2646  1  0.42529600  0.91260400  0.09411780  1
  N  2649  1  0.36667500  0.91297500  0.13393000  1
  N  2652  1  0.33753300  0.87401600  0.13054000  1
  N  2655  1  0.38861800  0.95060200  0.14096400  1
  N  2657  1  0.39684100  0.87473300  0.08731980  1
  N  2660  1  0.92680200  0.08825610  0.93665400  1
  N  2663  1  0.87099800  0.08858010  0.89630000  1
  N  2666  1  0.84282400  0.12761500  0.89984400  1
  N  2669  1  0.89215400  0.05094210  0.88904300  1
  N  2671  1  0.89912000  0.12619000  0.94359800  1
  N  2674  1  0.81733000  0.92314100  0.42735500  1
  N  2677  1  0.87442600  0.88304000  0.42690600  1
  N  2680  1  0.90225200  0.88677000  0.38786100  1
  N  2683  1  0.85337100  0.87553500  0.46449900  1
  N  2685  1  0.84443800  0.93024200  0.38937900  1
  N  2688  1  0.31608500  0.07912310  0.60176000  1
  N  2691  1  0.36974700  0.11985500  0.60180700  1
  N  2694  1  0.39827100  0.11675900  0.64084400  1
  N  2697  1  0.34824600  0.12672100  0.56412500  1
  N  2699  1  0.34422000  0.07259610  0.63974000  1
  N  2702  1  0.06783900  0.09081010  0.43531700  1
  N  2705  1  0.13581900  0.08745110  0.39772300  1
  N  2708  1  0.16770300  0.12622000  0.39990200  1
  N  2711  1  0.11135400  0.04982810  0.39191100  1
  N  2713  1  0.09795300  0.12868600  0.44086400  1
  N  2716  1  0.56991800  0.91170200  0.59271600  1
  N  2719  1  0.63291300  0.91401300  0.63153200  1
  N  2722  1  0.66417200  0.87519500  0.62908600  1
  N  2725  1  0.60866400  0.95158700  0.63773300  1
  N  2727  1  0.59961000  0.87380900  0.58691100  1
  N  2730  1  0.17434300  0.57730700  0.60135800  1
  N  2733  1  0.10875300  0.61559300  0.59984500  1
  N  2736  1  0.07937800  0.61246000  0.63880600  1
  N  2739  1  0.13120000  0.62249100  0.56225100  1
  N  2741  1  0.14666700  0.57090800  0.63936900  1
  N  2744  1  0.67797000  0.42323300  0.42754200  1
  N  2747  1  0.61173900  0.38508800  0.42917200  1
  N  2750  1  0.58260800  0.38813200  0.39017900  1
  N  2753  1  0.63368600  0.37838000  0.46684000  1
  N  2755  1  0.65042200  0.42957600  0.38951400  1
  N  2758  1  0.92618300  0.41335600  0.59258100  1
  N  2761  1  0.85672300  0.41549900  0.62992900  1
  N  2764  1  0.82683200  0.37658000  0.62679300  1
  N  2767  1  0.87940400  0.45310400  0.63668700  1
  N  2769  1  0.89820500  0.37540300  0.58621600  1
  N  2772  1  0.42786300  0.58755800  0.43798900  1
  N  2775  1  0.36176600  0.58589700  0.39981100  1
  N  2778  1  0.33224300  0.62485100  0.40290200  1
  N  2781  1  0.38420300  0.54829600  0.39300100  1
  N  2783  1  0.40004600  0.62555100  0.44432600  1
  O  27  1  0.05839700  0.03523800  0.04490000  1
  O  28  1  0.11702900  0.14141000  0.03796200  1
  O  29  1  0.34444400  0.14820600  0.97561000  1
  O  30  1  0.44675200  0.05156300  0.97066500  1
  O  57  1  0.56060200  0.46247200  0.94919300  1
  O  58  1  0.61278000  0.35568300  0.95641000  1
  O  59  1  0.84240200  0.34758900  0.01999500  1
  O  60  1  0.94539900  0.44364200  0.02446500  1
  O  87  1  0.31119300  0.20028500  0.78360600  1
  O  88  1  0.36261300  0.20830700  0.89027700  1
  O  89  1  0.59188000  0.26958000  0.89820900  1
  O  90  1  0.70059600  0.27298100  0.80260800  1
  O  117  1  0.81019200  0.29552500  0.21190200  1
  O  118  1  0.86630700  0.28863900  0.10545800  1
  O  119  1  0.09455500  0.22670700  0.09788400  1
  O  120  1  0.19769900  0.22134400  0.19423100  1
  O  147  1  0.93290500  0.95815600  0.95164500  1
  O  148  1  0.88106600  0.85180700  0.95982800  1
  O  149  1  0.64917900  0.84362700  0.01796500  1
  O  150  1  0.53861300  0.93887700  0.02162900  1
  O  177  1  0.43121500  0.53621900  0.04454800  1
  O  178  1  0.38043800  0.64287100  0.03711900  1
  O  179  1  0.14942400  0.65136900  0.97740600  1
  O  180  1  0.03979300  0.55608300  0.97349300  1
  O  207  1  0.68091600  0.79520200  0.21192200  1
  O  208  1  0.63102200  0.78549700  0.10543000  1
  O  209  1  0.39783100  0.72754100  0.09733400  1
  O  210  1  0.29154300  0.72229100  0.19355900  1
  O  237  1  0.18166200  0.70010200  0.78365200  1
  O  238  1  0.13080200  0.70892700  0.89017600  1
  O  239  1  0.89870300  0.76755800  0.89865600  1
  O  240  1  0.79331400  0.77356900  0.80230100  1
  O  267  1  0.55924000  0.53435800  0.54440100  1
  O  268  1  0.61218800  0.64073900  0.53577200  1
  O  269  1  0.84537400  0.64872200  0.47812100  1
  O  270  1  0.94910200  0.55211700  0.47160700  1
  O  297  1  0.06084100  0.96289000  0.44960900  1
  O  298  1  0.10853300  0.85605700  0.45860200  1
  O  299  1  0.34273800  0.84697900  0.51705500  1
  O  300  1  0.44825600  0.94303900  0.52294000  1
  O  327  1  0.81261100  0.70148500  0.28708200  1
  O  328  1  0.85911900  0.71062200  0.39373500  1
  O  329  1  0.09166800  0.76829300  0.40261000  1
  O  330  1  0.20722300  0.77048600  0.30820000  1
  O  357  1  0.30964900  0.79430500  0.70816800  1
  O  358  1  0.36184800  0.78623800  0.60179200  1
  O  359  1  0.59292600  0.72771100  0.59364700  1
  O  360  1  0.70294200  0.72368600  0.68893100  1
  O  387  1  0.42971200  0.45885400  0.45054700  1
  O  388  1  0.38469400  0.35224300  0.46138600  1
  O  389  1  0.14836000  0.34285200  0.51576100  1
  O  390  1  0.03585800  0.43787100  0.52030500  1
  O  417  1  0.92859900  0.03568600  0.54519300  1
  O  418  1  0.88418900  0.14255200  0.53527200  1
  O  419  1  0.64937400  0.15225400  0.47938800  1
  O  420  1  0.53660400  0.05734600  0.47474200  1
  O  447  1  0.17923500  0.29435000  0.70893400  1
  O  448  1  0.13483700  0.28364600  0.60233500  1
  O  449  1  0.89857900  0.22925200  0.59297700  1
  O  450  1  0.78499200  0.22512400  0.68786600  1
  O  477  1  0.68079000  0.20059600  0.28616100  1
  O  478  1  0.63658800  0.21058100  0.39288900  1
  O  479  1  0.40132500  0.26571800  0.40281600  1
  O  480  1  0.28788000  0.27045500  0.30792600  1
  O  489  1  0.05738900  0.01256000  0.94686500  1
  O  490  1  0.10900100  0.98674600  0.95912300  1
  O  503  1  0.55660700  0.48194000  0.04791800  1
  O  504  1  0.60813000  0.50826700  0.03674200  1
  O  517  1  0.30577700  0.29870000  0.76280100  1
  O  518  1  0.35690400  0.28728800  0.73647500  1
  O  531  1  0.80621400  0.19691800  0.23185500  1
  O  532  1  0.85761500  0.20816300  0.25818200  1
  O  545  1  0.94999000  0.50135200  0.94233400  1
  O  546  1  0.88409200  0.51692800  0.96095700  1
  O  559  1  0.44557700  0.99307700  0.05224900  1
  O  560  1  0.38119900  0.97764100  0.03280900  1
  O  573  1  0.69464200  0.19302300  0.74203700  1
  O  574  1  0.62988900  0.21299300  0.72751600  1
  O  587  1  0.19778400  0.30232000  0.25350900  1
  O  588  1  0.13243000  0.28306500  0.26861800  1
  O  601  1  0.68665800  0.69687500  0.23312700  1
  O  602  1  0.63532100  0.70836800  0.25936500  1
  O  615  1  0.18477500  0.79846200  0.76255800  1
  O  616  1  0.13303000  0.78688400  0.73646500  1
  O  629  1  0.29886300  0.80205700  0.25427200  1
  O  630  1  0.36338700  0.78201500  0.26883400  1
  O  643  1  0.79517600  0.69267600  0.74300500  1
  O  644  1  0.86002200  0.71207000  0.72777700  1
  O  657  1  0.55550900  0.51297200  0.44609000  1
  O  658  1  0.60672200  0.48679200  0.45778400  1
  O  671  1  0.05546200  0.98181100  0.54842100  1
  O  672  1  0.10650200  0.00837800  0.53751900  1
  O  685  1  0.44614200  0.00328600  0.44276000  1
  O  686  1  0.38069900  0.01807900  0.46221900  1
  O  699  1  0.94346200  0.49180900  0.55168500  1
  O  700  1  0.87899100  0.47695200  0.53183800  1
  O  713  1  0.37656300  0.11171400  0.86369500  1
  O  714  1  0.45712000  0.12620400  0.87314400  1
  O  727  1  0.86644000  0.38563200  0.13163200  1
  O  728  1  0.94915000  0.37287300  0.12221400  1
  O  741  1  0.63322100  0.38051900  0.85986300  1
  O  742  1  0.71192200  0.37090300  0.87556500  1
  O  755  1  0.12513400  0.11469700  0.13448900  1
  O  756  1  0.20644100  0.12412300  0.12056600  1
  O  769  1  0.59515900  0.88161300  0.12837000  1
  O  770  1  0.51966200  0.86385400  0.11884400  1
  O  783  1  0.10067400  0.61266400  0.86697500  1
  O  784  1  0.02424900  0.62993900  0.87638500  1
  O  797  1  0.35944000  0.61545500  0.13246500  1
  O  798  1  0.28138600  0.62491500  0.11622900  1
  O  811  1  0.86621800  0.88019600  0.86445800  1
  O  812  1  0.78676200  0.87088500  0.87983800  1
  O  825  1  0.87938400  0.61512200  0.36534900  1
  O  826  1  0.95843400  0.63081600  0.37461400  1
  O  839  1  0.37390200  0.88208900  0.62950000  1
  O  840  1  0.45413300  0.86723600  0.62023400  1
  O  853  1  0.15109900  0.87778500  0.36328300  1
  O  854  1  0.22384900  0.86848600  0.38264100  1
  O  867  1  0.64481800  0.61717000  0.63153300  1
  O  868  1  0.72029600  0.62663800  0.61373200  1
  O  881  1  0.09764700  0.37884900  0.62701000  1
  O  882  1  0.02297300  0.36045400  0.61780400  1
  O  895  1  0.60049200  0.11557700  0.36833000  1
  O  896  1  0.52616500  0.13422100  0.37741000  1
  O  909  1  0.84286000  0.11863000  0.62966700  1
  O  910  1  0.77044800  0.12782900  0.61008500  1
  O  923  1  0.35012100  0.37683300  0.36653500  1
  O  924  1  0.27583900  0.36763400  0.38514800  1
  O  1883  1  0.05839700  0.28828500  0.06176980  1
  O  1884  1  0.11702900  0.39445700  0.05483180  1
  O  1885  1  0.34444400  0.40125300  0.99248000  1
  O  1886  1  0.44675200  0.30461000  0.98753500  1
  O  1913  1  0.56060200  0.71551900  0.96606300  1
  O  1914  1  0.61278000  0.60873000  0.97328000  1
  O  1915  1  0.84240200  0.60063600  0.03686480  1
  O  1916  1  0.94539900  0.69668900  0.04133480  1
  O  1943  1  0.31119300  0.45333200  0.80047600  1
  O  1944  1  0.36261300  0.46135400  0.90714700  1
  O  1945  1  0.59188000  0.52262700  0.91507900  1
  O  1946  1  0.70059600  0.52602800  0.81947800  1
  O  1973  1  0.81019200  0.54857200  0.22877200  1
  O  1974  1  0.86630700  0.54168600  0.12232800  1
  O  1975  1  0.09455500  0.47975400  0.11475400  1
  O  1976  1  0.19769900  0.47439100  0.21110100  1
  O  2003  1  0.93290500  0.21120300  0.96851500  1
  O  2004  1  0.88106600  0.10485400  0.97669800  1
  O  2005  1  0.64917900  0.09667410  0.03483480  1
  O  2006  1  0.53861300  0.19192400  0.03849880  1
  O  2033  1  0.43121500  0.78926600  0.06141780  1
  O  2034  1  0.38043800  0.89591800  0.05398880  1
  O  2035  1  0.14942400  0.90441600  0.99427600  1
  O  2036  1  0.03979300  0.80913000  0.99036300  1
  O  2063  1  0.68091600  0.04824910  0.22879200  1
  O  2064  1  0.63102200  0.03854410  0.12230000  1
  O  2065  1  0.39783100  0.98058800  0.11420400  1
  O  2066  1  0.29154300  0.97533800  0.21042900  1
  O  2093  1  0.18166200  0.95314900  0.80052200  1
  O  2094  1  0.13080200  0.96197400  0.90704600  1
  O  2095  1  0.89870300  0.02060510  0.91552600  1
  O  2096  1  0.79331400  0.02661610  0.81917100  1
  O  2123  1  0.55924000  0.78740500  0.56127100  1
  O  2124  1  0.61218800  0.89378600  0.55264200  1
  O  2125  1  0.84537400  0.90176900  0.49499100  1
  O  2126  1  0.94910200  0.80516400  0.48847700  1
  O  2153  1  0.06084100  0.21593700  0.46647900  1
  O  2154  1  0.10853300  0.10910400  0.47547200  1
  O  2155  1  0.34273800  0.10002600  0.53392500  1
  O  2156  1  0.44825600  0.19608600  0.53981000  1
  O  2183  1  0.81261100  0.95453200  0.30395200  1
  O  2184  1  0.85911900  0.96366900  0.41060500  1
  O  2185  1  0.09166800  0.02134010  0.41948000  1
  O  2186  1  0.20722300  0.02353310  0.32507000  1
  O  2213  1  0.30964900  0.04735210  0.72503800  1
  O  2214  1  0.36184800  0.03928510  0.61866200  1
  O  2215  1  0.59292600  0.98075800  0.61051700  1
  O  2216  1  0.70294200  0.97673300  0.70580100  1
  O  2243  1  0.42971200  0.71190100  0.46741700  1
  O  2244  1  0.38469400  0.60529000  0.47825600  1
  O  2245  1  0.14836000  0.59589900  0.53263100  1
  O  2246  1  0.03585800  0.69091800  0.53717500  1
  O  2273  1  0.92859900  0.28873300  0.56206300  1
  O  2274  1  0.88418900  0.39559900  0.55214200  1
  O  2275  1  0.64937400  0.40530100  0.49625800  1
  O  2276  1  0.53660400  0.31039300  0.49161200  1
  O  2303  1  0.17923500  0.54739700  0.72580400  1
  O  2304  1  0.13483700  0.53669300  0.61920500  1
  O  2305  1  0.89857900  0.48229900  0.60984700  1
  O  2306  1  0.78499200  0.47817100  0.70473600  1
  O  2333  1  0.68079000  0.45364300  0.30303100  1
  O  2334  1  0.63658800  0.46362800  0.40975900  1
  O  2335  1  0.40132500  0.51876500  0.41968600  1
  O  2336  1  0.28788000  0.52350200  0.32479600  1
  O  2345  1  0.05738900  0.26560700  0.96373500  1
  O  2346  1  0.10900100  0.23979300  0.97599300  1
  O  2359  1  0.55660700  0.73498700  0.06478780  1
  O  2360  1  0.60813000  0.76131400  0.05361180  1
  O  2373  1  0.30577700  0.55174700  0.77967100  1
  O  2374  1  0.35690400  0.54033500  0.75334500  1
  O  2387  1  0.80621400  0.44996500  0.24872500  1
  O  2388  1  0.85761500  0.46121000  0.27505200  1
  O  2401  1  0.94999000  0.75439900  0.95920400  1
  O  2402  1  0.88409200  0.76997500  0.97782700  1
  O  2415  1  0.44557700  0.24612400  0.06911880  1
  O  2416  1  0.38119900  0.23068800  0.04967880  1
  O  2429  1  0.69464200  0.44607000  0.75890700  1
  O  2430  1  0.62988900  0.46604000  0.74438600  1
  O  2443  1  0.19778400  0.55536700  0.27037900  1
  O  2444  1  0.13243000  0.53611200  0.28548800  1
  O  2457  1  0.68665800  0.94992200  0.24999700  1
  O  2458  1  0.63532100  0.96141500  0.27623500  1
  O  2471  1  0.18477500  0.05150910  0.77942800  1
  O  2472  1  0.13303000  0.03993110  0.75333500  1
  O  2485  1  0.29886300  0.05510410  0.27114200  1
  O  2486  1  0.36338700  0.03506210  0.28570400  1
  O  2499  1  0.79517600  0.94572300  0.75987500  1
  O  2500  1  0.86002200  0.96511700  0.74464700  1
  O  2513  1  0.55550900  0.76601900  0.46296000  1
  O  2514  1  0.60672200  0.73983900  0.47465400  1
  O  2527  1  0.05546200  0.23485800  0.56529100  1
  O  2528  1  0.10650200  0.26142500  0.55438900  1
  O  2541  1  0.44614200  0.25633300  0.45963000  1
  O  2542  1  0.38069900  0.27112600  0.47908900  1
  O  2555  1  0.94346200  0.74485600  0.56855500  1
  O  2556  1  0.87899100  0.72999900  0.54870800  1
  O  2569  1  0.37656300  0.36476100  0.88056500  1
  O  2570  1  0.45712000  0.37925100  0.89001400  1
  O  2583  1  0.86644000  0.63867900  0.14850200  1
  O  2584  1  0.94915000  0.62592000  0.13908400  1
  O  2597  1  0.63322100  0.63356600  0.87673300  1
  O  2598  1  0.71192200  0.62395000  0.89243500  1
  O  2611  1  0.12513400  0.36774400  0.15135900  1
  O  2612  1  0.20644100  0.37717000  0.13743600  1
  O  2625  1  0.59515900  0.13466000  0.14524000  1
  O  2626  1  0.51966200  0.11690100  0.13571400  1
  O  2639  1  0.10067400  0.86571100  0.88384500  1
  O  2640  1  0.02424900  0.88298600  0.89325500  1
  O  2653  1  0.35944000  0.86850200  0.14933500  1
  O  2654  1  0.28138600  0.87796200  0.13309900  1
  O  2667  1  0.86621800  0.13324300  0.88132800  1
  O  2668  1  0.78676200  0.12393200  0.89670800  1
  O  2681  1  0.87938400  0.86816900  0.38221900  1
  O  2682  1  0.95843400  0.88386300  0.39148400  1
  O  2695  1  0.37390200  0.13513600  0.64637000  1
  O  2696  1  0.45413300  0.12028300  0.63710400  1
  O  2709  1  0.15109900  0.13083200  0.38015300  1
  O  2710  1  0.22384900  0.12153300  0.39951100  1
  O  2723  1  0.64481800  0.87021700  0.64840300  1
  O  2724  1  0.72029600  0.87968500  0.63060200  1
  O  2737  1  0.09764700  0.63189600  0.64388000  1
  O  2738  1  0.02297300  0.61350100  0.63467400  1
  O  2751  1  0.60049200  0.36862400  0.38520000  1
  O  2752  1  0.52616500  0.38726800  0.39428000  1
  O  2765  1  0.84286000  0.37167700  0.64653700  1
  O  2766  1  0.77044800  0.38087600  0.62695500  1
  O  2779  1  0.35012100  0.62988000  0.38340500  1
  O  2780  1  0.27583900  0.62068100  0.40201800  1
