# generated using pymatgen
data_H9C14(NO2)2
_symmetry_space_group_name_H-M   'P 1'
_cell_length_a   22.41090000
_cell_length_b   44.51016569
_cell_length_c   44.51016569
_cell_angle_alpha   86.36625883
_cell_angle_beta   75.41888664
_cell_angle_gamma   75.41888664
_symmetry_Int_Tables_number   1
_chemical_formula_structural   H9C14(NO2)2
_chemical_formula_sum   'H288 C448 N64 O128'
_cell_volume   41585.50333967
_cell_formula_units_Z   32
loop_
 _symmetry_equiv_pos_site_id
 _symmetry_equiv_pos_as_xyz
  1  'x, y, z'
loop_
 _atom_site_type_symbol
 _atom_site_label
 _atom_site_symmetry_multiplicity
 _atom_site_fract_x
 _atom_site_fract_y
 _atom_site_fract_z
 _atom_site_occupancy
  C  1  1  0.80969550  0.92270200  0.90917000  1
  C  2  1  0.75177550  0.94199050  0.92596550  1
  C  3  1  0.69619650  0.95082700  0.91426200  1
  C  4  1  0.70037750  0.93885000  0.88462400  1
  C  5  1  0.75806200  0.92047550  0.86705450  1
  C  6  1  0.81263000  0.91318050  0.87884650  1
  C  9  1  0.86358100  0.91208650  0.92191950  1
  C  10  1  0.89044700  0.93177850  0.93571750  1
  C  11  1  0.95083850  0.92051000  0.94305600  1
  C  12  1  0.98282700  0.88868200  0.93690200  1
  C  13  1  0.95415400  0.86835000  0.92567400  1
  C  14  1  0.89523700  0.88031150  0.91848450  1
  C  23  1  0.98427500  0.83648200  0.92014600  1
  C  24  1  0.98114050  0.94039700  0.95439200  1
  C  25  1  0.63716800  0.96939300  0.93139400  1
  C  26  1  0.76298900  0.91228250  0.83625350  1
  C  31  1  0.63640500  0.58715000  0.59089500  1
  C  32  1  0.61434050  0.56802750  0.57402550  1
  C  33  1  0.55561800  0.55941950  0.58563950  1
  C  34  1  0.51822550  0.57140950  0.61528250  1
  C  35  1  0.54031050  0.58950500  0.63297300  1
  C  36  1  0.59960100  0.59658750  0.62125950  1
  C  39  1  0.69252700  0.59770850  0.57821350  1
  C  40  1  0.75282750  0.57800900  0.56432700  1
  C  41  1  0.80935800  0.58921800  0.55715800  1
  C  42  1  0.80349100  0.62099000  0.56348600  1
  C  43  1  0.74331500  0.64134000  0.57477400  1
  C  44  1  0.68909300  0.62944600  0.58181700  1
  C  53  1  0.73619850  0.67314600  0.58051700  1
  C  54  1  0.87085900  0.56931400  0.54580600  1
  C  55  1  0.53210050  0.54101150  0.56842250  1
  C  56  1  0.50620650  0.59770900  0.66377600  1
  C  61  1  0.72745750  0.91409950  0.58215150  1
  C  62  1  0.68859000  0.93086250  0.56295350  1
  C  63  1  0.64167050  0.91913300  0.55430200  1
  C  64  1  0.63415300  0.88944750  0.56627450  1
  C  65  1  0.67387100  0.87187200  0.58446300  1
  C  66  1  0.72121150  0.88371800  0.59161600  1
  C  69  1  0.77058650  0.92693100  0.59279000  1
  C  70  1  0.81703050  0.94081750  0.57312850  1
  C  71  1  0.86609850  0.94817800  0.58442900  1
  C  72  1  0.86615100  0.94207650  0.61628050  1
  C  73  1  0.81723350  0.93075750  0.63657250  1
  C  74  1  0.77039500  0.92350150  0.62457250  1
  C  83  1  0.81551750  0.92517200  0.66842800  1
  C  84  1  0.91634100  0.95950300  0.56456600  1
  C  85  1  0.60090650  0.93630450  0.53587950  1
  C  86  1  0.67074250  0.84106500  0.59271100  1
  C  91  1  0.21868150  0.59570900  0.91773700  1
  C  92  1  0.17747150  0.57894450  0.93700750  1
  C  93  1  0.11016400  0.59062550  0.94569050  1
  C  94  1  0.08480800  0.62025850  0.93366150  1
  C  95  1  0.12502900  0.63782500  0.91536900  1
  C  96  1  0.19137800  0.62602900  0.90817400  1
  C  99  1  0.28534150  0.58297550  0.90719050  1
  C  100  1  0.32592100  0.56918900  0.92692400  1
  C  101  1  0.39366300  0.56194800  0.91571700  1
  C  102  1  0.41961550  0.56810350  0.88390150  1
  C  103  1  0.37978100  0.57927250  0.86352650  1
  C  104  1  0.31365700  0.58638700  0.87542400  1
  C  113  1  0.40446400  0.58484050  0.83167850  1
  C  114  1  0.43521200  0.55071150  0.93566350  1
  C  115  1  0.06820650  0.57347900  0.96419500  1
  C  116  1  0.09923300  0.66862750  0.90709750  1
  C  121  1  0.19519450  0.08706150  0.09081850  1
  C  122  1  0.25310350  0.06779100  0.07399100  1
  C  123  1  0.30870750  0.05894350  0.08567250  1
  C  124  1  0.30456950  0.07088850  0.11531950  1
  C  125  1  0.24689050  0.08924000  0.13292000  1
  C  126  1  0.19229750  0.09654750  0.12114850  1
  C  129  1  0.14129000  0.09770750  0.07808750  1
  C  130  1  0.11437350  0.07804150  0.06428550  1
  C  131  1  0.05395000  0.08933750  0.05698350  1
  C  132  1  0.02199950  0.12116500  0.06316700  1
  C  133  1  0.05072900  0.14147300  0.07439200  1
  C  134  1  0.10966550  0.12948550  0.08155450  1
  C  143  1  0.02065300  0.17334450  0.07994050  1
  C  144  1  0.02358700  0.06947750  0.04565350  1
  C  145  1  0.36773450  0.04040850  0.06850650  1
  C  146  1  0.24201300  0.09742050  0.16371950  1
  C  151  1  0.36841400  0.42257350  0.40917050  1
  C  152  1  0.39058950  0.44167750  0.42600750  1
  C  153  1  0.44933750  0.45025100  0.41435100  1
  C  154  1  0.48662250  0.43825750  0.38469150  1
  C  155  1  0.46443900  0.42016500  0.36704100  1
  C  156  1  0.40513750  0.41311150  0.37880150  1
  C  159  1  0.31220200  0.41209700  0.42187000  1
  C  160  1  0.25195750  0.43188450  0.43568950  1
  C  161  1  0.19531600  0.42076850  0.44283750  1
  C  162  1  0.20101500  0.38900100  0.43656700  1
  C  163  1  0.26112400  0.36857150  0.42535150  1
  C  164  1  0.31546250  0.38037300  0.41831500  1
  C  173  1  0.26807450  0.33677150  0.41966850  1
  C  174  1  0.13387500  0.44075400  0.45410900  1
  C  175  1  0.47295900  0.46863750  0.43153950  1
  C  176  1  0.49828100  0.41207300  0.33618400  1
  C  181  1  0.27766800  0.09564750  0.41780650  1
  C  182  1  0.31660550  0.07886150  0.43696350  1
  C  183  1  0.36353050  0.09059100  0.44561200  1
  C  184  1  0.37095700  0.12030350  0.43368850  1
  C  185  1  0.33115900  0.13790050  0.41554950  1
  C  186  1  0.28384000  0.12604650  0.40838350  1
  C  189  1  0.23452900  0.08282100  0.40717200  1
  C  190  1  0.18810250  0.06892750  0.42683550  1
  C  191  1  0.13901250  0.06157400  0.41554600  1
  C  192  1  0.13892700  0.06769100  0.38370100  1
  C  193  1  0.18782100  0.07902400  0.36340500  1
  C  194  1  0.23467750  0.08627500  0.37539500  1
  C  203  1  0.18951050  0.08461550  0.33155250  1
  C  204  1  0.08878450  0.05024300  0.43541300  1
  C  205  1  0.40436150  0.07339800  0.46399200  1
  C  206  1  0.33413250  0.16874400  0.40739900  1
  C  211  1  0.78624400  0.41408600  0.08227100  1
  C  212  1  0.82745550  0.43084500  0.06299100  1
  C  213  1  0.89476550  0.41917000  0.05432100  1
  C  214  1  0.92012300  0.38955250  0.06637450  1
  C  215  1  0.87990700  0.37199050  0.08468150  1
  C  216  1  0.81355400  0.38378150  0.09186450  1
  C  219  1  0.71957600  0.42681050  0.09278850  1
  C  220  1  0.67903500  0.44056900  0.07302800  1
  C  221  1  0.61128850  0.44780700  0.08420700  1
  C  222  1  0.58528800  0.44167200  0.11602200  1
  C  223  1  0.62507850  0.43052750  0.13642150  1
  C  224  1  0.69120700  0.42342000  0.12455300  1
  C  233  1  0.60035000  0.42498350  0.16826850  1
  C  234  1  0.56978350  0.45902150  0.06423450  1
  C  235  1  0.93672250  0.43630900  0.03580100  1
  C  236  1  0.90571150  0.34119300  0.09296500  1
  C  481  1  0.94286100  0.99960200  0.01442600  1
  C  482  1  0.96906600  0.01875950  0.02859650  1
  C  483  1  0.02863200  0.02520100  0.01424200  1
  C  484  1  0.06172050  0.01035750  0.98553650  1
  C  485  1  0.03555300  0.99117250  0.97138250  1
  C  486  1  0.97599650  0.98472400  0.98574100  1
  C  495  1  0.95220650  0.51065150  0.48535950  1
  C  496  1  0.01180450  0.49158100  0.47114600  1
  C  497  1  0.06330500  0.48493900  0.48561500  1
  C  498  1  0.05263450  0.49950950  0.51448650  1
  C  499  1  0.99303700  0.51858250  0.52869950  1
  C  500  1  0.94152250  0.52520600  0.51424000  1
  C  509  1  0.93781150  0.01939750  0.50531550  1
  C  510  1  0.98332800  0.03348550  0.48616950  1
  C  511  1  0.04929850  0.01904900  0.47978100  1
  C  512  1  0.06734500  0.99035550  0.49468350  1
  C  513  1  0.02182250  0.97625650  0.51380550  1
  C  514  1  0.95585550  0.99069750  0.52020050  1
  C  523  1  0.45776850  0.49033550  0.99443750  1
  C  524  1  0.49830350  0.47611750  0.01350450  1
  C  525  1  0.54329750  0.49054450  0.02006950  1
  C  526  1  0.54731700  0.51937600  0.00543000  1
  C  527  1  0.50676500  0.53359700  0.98637300  1
  C  528  1  0.46177300  0.51917150  0.97980850  1
  C  537  1  0.56867550  0.49889200  0.49496500  1
  C  538  1  0.54154000  0.48563950  0.47553950  1
  C  539  1  0.47467650  0.49177000  0.47959400  1
  C  540  1  0.43641550  0.51089800  0.50491800  1
  C  541  1  0.46354850  0.52414400  0.52434800  1
  C  542  1  0.53040900  0.51799500  0.52030800  1
  C  551  1  0.55757800  0.01040150  0.00544950  1
  C  552  1  0.49769800  0.02346600  0.02491100  1
  C  553  1  0.44100100  0.01784150  0.02031250  1
  C  554  1  0.44727850  0.99943000  0.99443400  1
  C  555  1  0.50716600  0.98635550  0.97497850  1
  C  556  1  0.56386400  0.99197700  0.97957900  1
  C  565  1  0.56387750  0.00975000  0.49376300  1
  C  566  1  0.51719950  0.02922200  0.48061700  1
  C  567  1  0.45431100  0.02524850  0.48691950  1
  C  568  1  0.44142350  0.99993250  0.50607450  1
  C  569  1  0.48810200  0.98046050  0.51921950  1
  C  570  1  0.55098800  0.98443750  0.51291950  1
  C  579  1  0.06268500  0.49979900  0.00591500  1
  C  580  1  0.02234550  0.48031550  0.01904050  1
  C  581  1  0.96153100  0.48447900  0.01297300  1
  C  582  1  0.94225450  0.50998000  0.99406700  1
  C  583  1  0.98259550  0.52946400  0.98094100  1
  C  584  1  0.04340550  0.52530300  0.98701400  1
  C  705  1  0.74455500  0.96145200  0.73888400  1
  C  706  1  0.75106800  0.96052700  0.76950100  1
  C  707  1  0.77232550  0.93193100  0.78382700  1
  C  708  1  0.78700900  0.90419100  0.76675200  1
  C  709  1  0.78105900  0.90509450  0.73603750  1
  C  710  1  0.76106700  0.93378800  0.72163400  1
  C  719  1  0.44081350  0.54842100  0.76117300  1
  C  720  1  0.47680050  0.54939400  0.73051800  1
  C  721  1  0.48359350  0.57801850  0.71620250  1
  C  722  1  0.45349100  0.60573100  0.73332400  1
  C  723  1  0.41785550  0.60477950  0.76405650  1
  C  724  1  0.41228150  0.57606500  0.77844500  1
  C  733  1  0.70336450  0.74356700  0.54409800  1
  C  734  1  0.70931650  0.77411750  0.54503750  1
  C  735  1  0.70159950  0.78846200  0.57366700  1
  C  736  1  0.68791700  0.77148200  0.60141500  1
  C  737  1  0.68256200  0.74082250  0.60049050  1
  C  738  1  0.69143650  0.72641400  0.57178000  1
  C  747  1  0.98356650  0.76595800  0.95652600  1
  C  748  1  0.02046350  0.73529150  0.95557650  1
  C  749  1  0.05603150  0.72097500  0.92697000  1
  C  750  1  0.05377900  0.73810200  0.89924900  1
  C  751  1  0.01739150  0.76887450  0.90018550  1
  C  752  1  0.98300500  0.78326600  0.92888700  1
  C  761  1  0.26038900  0.04828750  0.26110550  1
  C  762  1  0.25386700  0.04920000  0.23049000  1
  C  763  1  0.23263300  0.07779350  0.21615150  1
  C  764  1  0.21796850  0.10553950  0.23321450  1
  C  765  1  0.22392450  0.10464600  0.26392900  1
  C  766  1  0.24390450  0.07595800  0.27834100  1
  C  775  1  0.56419050  0.46145950  0.23883650  1
  C  776  1  0.52826800  0.46049050  0.26950450  1
  C  777  1  0.52132850  0.43187550  0.28380150  1
  C  778  1  0.55125650  0.40416800  0.26664800  1
  C  779  1  0.58682650  0.40511600  0.23590300  1
  C  780  1  0.59251400  0.43382450  0.22152950  1
  C  789  1  0.30116750  0.26620100  0.45623400  1
  C  790  1  0.29551650  0.23560250  0.45525450  1
  C  791  1  0.30315800  0.22129500  0.42661400  1
  C  792  1  0.31646850  0.23836500  0.39889600  1
  C  793  1  0.32150550  0.26907350  0.39986250  1
  C  794  1  0.31269000  0.28344550  0.42858750  1
  C  803  1  0.02139700  0.24385150  0.04354750  1
  C  804  1  0.98449950  0.27452000  0.04449600  1
  C  805  1  0.94895200  0.28884300  0.07310000  1
  C  806  1  0.95122800  0.27172300  0.10082500  1
  C  807  1  0.98761450  0.24095050  0.09989050  1
  C  808  1  0.02197550  0.22655150  0.07119050  1
  C  1857  1  0.80969550  0.69289100  0.13898100  1
  C  1858  1  0.75177550  0.71217950  0.15577650  1
  C  1859  1  0.69619650  0.72101600  0.14407300  1
  C  1860  1  0.70037750  0.70903900  0.11443500  1
  C  1861  1  0.75806200  0.69066450  0.09686550  1
  C  1862  1  0.81263000  0.68336950  0.10865750  1
  C  1865  1  0.86358100  0.68227550  0.15173050  1
  C  1866  1  0.89044700  0.70196750  0.16552850  1
  C  1867  1  0.95083850  0.69069900  0.17286700  1
  C  1868  1  0.98282700  0.65887100  0.16671300  1
  C  1869  1  0.95415400  0.63853900  0.15548500  1
  C  1870  1  0.89523700  0.65050050  0.14829550  1
  C  1879  1  0.98427500  0.60667100  0.14995700  1
  C  1880  1  0.98114050  0.71058600  0.18420300  1
  C  1881  1  0.63716800  0.73958200  0.16120500  1
  C  1882  1  0.76298900  0.68247150  0.06606450  1
  C  1887  1  0.63640500  0.35733900  0.82070600  1
  C  1888  1  0.61434050  0.33821650  0.80383650  1
  C  1889  1  0.55561800  0.32960850  0.81545050  1
  C  1890  1  0.51822550  0.34159850  0.84509350  1
  C  1891  1  0.54031050  0.35969400  0.86278400  1
  C  1892  1  0.59960100  0.36677650  0.85107050  1
  C  1895  1  0.69252700  0.36789750  0.80802450  1
  C  1896  1  0.75282750  0.34819800  0.79413800  1
  C  1897  1  0.80935800  0.35940700  0.78696900  1
  C  1898  1  0.80349100  0.39117900  0.79329700  1
  C  1899  1  0.74331500  0.41152900  0.80458500  1
  C  1900  1  0.68909300  0.39963500  0.81162800  1
  C  1909  1  0.73619850  0.44333500  0.81032800  1
  C  1910  1  0.87085900  0.33950300  0.77561700  1
  C  1911  1  0.53210050  0.31120050  0.79823350  1
  C  1912  1  0.50620650  0.36789800  0.89358700  1
  C  1917  1  0.72745750  0.68428825  0.81196275  1
  C  1918  1  0.68859000  0.70105125  0.79276475  1
  C  1919  1  0.64167050  0.68932175  0.78411325  1
  C  1920  1  0.63415300  0.65963625  0.79608575  1
  C  1921  1  0.67387100  0.64206075  0.81427425  1
  C  1922  1  0.72121150  0.65390675  0.82142725  1
  C  1925  1  0.77058650  0.69711975  0.82260125  1
  C  1926  1  0.81703050  0.71100625  0.80293975  1
  C  1927  1  0.86609850  0.71836675  0.81424025  1
  C  1928  1  0.86615100  0.71226525  0.84609175  1
  C  1929  1  0.81723350  0.70094625  0.86638375  1
  C  1930  1  0.77039500  0.69369025  0.85438375  1
  C  1939  1  0.81551750  0.69536100  0.89823900  1
  C  1940  1  0.91634100  0.72969175  0.79437725  1
  C  1941  1  0.60090650  0.70649325  0.76569075  1
  C  1942  1  0.67074250  0.61125400  0.82252200  1
  C  1947  1  0.21868150  0.36589800  0.14754800  1
  C  1948  1  0.17747150  0.34913350  0.16681850  1
  C  1949  1  0.11016400  0.36081450  0.17550150  1
  C  1950  1  0.08480800  0.39044750  0.16347250  1
  C  1951  1  0.12502900  0.40801400  0.14518000  1
  C  1952  1  0.19137800  0.39621800  0.13798500  1
  C  1955  1  0.28534150  0.35316450  0.13700150  1
  C  1956  1  0.32592100  0.33937800  0.15673500  1
  C  1957  1  0.39366300  0.33213700  0.14552800  1
  C  1958  1  0.41961550  0.33829250  0.11371250  1
  C  1959  1  0.37978100  0.34946150  0.09333750  1
  C  1960  1  0.31365700  0.35657600  0.10523500  1
  C  1969  1  0.40446400  0.35502950  0.06148950  1
  C  1970  1  0.43521200  0.32090050  0.16547450  1
  C  1971  1  0.06820650  0.34366800  0.19400600  1
  C  1972  1  0.09923300  0.43881650  0.13690850  1
  C  1977  1  0.19519450  0.85725050  0.32062950  1
  C  1978  1  0.25310350  0.83798000  0.30380200  1
  C  1979  1  0.30870750  0.82913250  0.31548350  1
  C  1980  1  0.30456950  0.84107750  0.34513050  1
  C  1981  1  0.24689050  0.85942900  0.36273100  1
  C  1982  1  0.19229750  0.86673650  0.35095950  1
  C  1985  1  0.14129000  0.86789650  0.30789850  1
  C  1986  1  0.11437350  0.84823050  0.29409650  1
  C  1987  1  0.05395000  0.85952650  0.28679450  1
  C  1988  1  0.02199950  0.89135400  0.29297800  1
  C  1989  1  0.05072900  0.91166200  0.30420300  1
  C  1990  1  0.10966550  0.89967450  0.31136550  1
  C  1999  1  0.02065300  0.94353350  0.30975150  1
  C  2000  1  0.02358700  0.83966650  0.27546450  1
  C  2001  1  0.36773450  0.81059750  0.29831750  1
  C  2002  1  0.24201300  0.86760950  0.39353050  1
  C  2007  1  0.36841400  0.19276250  0.63898150  1
  C  2008  1  0.39058950  0.21186650  0.65581850  1
  C  2009  1  0.44933750  0.22044000  0.64416200  1
  C  2010  1  0.48662250  0.20844650  0.61450250  1
  C  2011  1  0.46443900  0.19035400  0.59685200  1
  C  2012  1  0.40513750  0.18330050  0.60861250  1
  C  2015  1  0.31220200  0.18228600  0.65168100  1
  C  2016  1  0.25195750  0.20207350  0.66550050  1
  C  2017  1  0.19531600  0.19095750  0.67264850  1
  C  2018  1  0.20101500  0.15919000  0.66637800  1
  C  2019  1  0.26112400  0.13876050  0.65516250  1
  C  2020  1  0.31546250  0.15056200  0.64812600  1
  C  2029  1  0.26807450  0.10696050  0.64947950  1
  C  2030  1  0.13387500  0.21094300  0.68392000  1
  C  2031  1  0.47295900  0.23882650  0.66135050  1
  C  2032  1  0.49828100  0.18226200  0.56599500  1
  C  2037  1  0.27766800  0.86583650  0.64761750  1
  C  2038  1  0.31660550  0.84905050  0.66677450  1
  C  2039  1  0.36353050  0.86078000  0.67542300  1
  C  2040  1  0.37095700  0.89049250  0.66349950  1
  C  2041  1  0.33115900  0.90808950  0.64536050  1
  C  2042  1  0.28384000  0.89623550  0.63819450  1
  C  2045  1  0.23452900  0.85301000  0.63698300  1
  C  2046  1  0.18810250  0.83911650  0.65664650  1
  C  2047  1  0.13901250  0.83176300  0.64535700  1
  C  2048  1  0.13892700  0.83788000  0.61351200  1
  C  2049  1  0.18782100  0.84921300  0.59321600  1
  C  2050  1  0.23467750  0.85646400  0.60520600  1
  C  2059  1  0.18951050  0.85480450  0.56136350  1
  C  2060  1  0.08878450  0.82043200  0.66522400  1
  C  2061  1  0.40436150  0.84358700  0.69380300  1
  C  2062  1  0.33413250  0.93893300  0.63721000  1
  C  2067  1  0.78624400  0.18427475  0.31208225  1
  C  2068  1  0.82745550  0.20103375  0.29280225  1
  C  2069  1  0.89476550  0.18935875  0.28413225  1
  C  2070  1  0.92012300  0.15974125  0.29618575  1
  C  2071  1  0.87990700  0.14217925  0.31449275  1
  C  2072  1  0.81355400  0.15397025  0.32167575  1
  C  2075  1  0.71957600  0.19699925  0.32259975  1
  C  2076  1  0.67903500  0.21075775  0.30283925  1
  C  2077  1  0.61128850  0.21799575  0.31401825  1
  C  2078  1  0.58528800  0.21186075  0.34583325  1
  C  2079  1  0.62507850  0.20071625  0.36623275  1
  C  2080  1  0.69120700  0.19360875  0.35436425  1
  C  2089  1  0.60035000  0.19517250  0.39807950  1
  C  2090  1  0.56978350  0.22921025  0.29404575  1
  C  2091  1  0.93672250  0.20649775  0.26561225  1
  C  2092  1  0.90571150  0.11138200  0.32277600  1
  C  2337  1  0.94286100  0.76979100  0.24423700  1
  C  2338  1  0.96906600  0.78894850  0.25840750  1
  C  2339  1  0.02863200  0.79539000  0.24405300  1
  C  2340  1  0.06172050  0.78054650  0.21534750  1
  C  2341  1  0.03555300  0.76136150  0.20119350  1
  C  2342  1  0.97599650  0.75491300  0.21555200  1
  C  2351  1  0.95220650  0.28084050  0.71517050  1
  C  2352  1  0.01180450  0.26177000  0.70095700  1
  C  2353  1  0.06330500  0.25512800  0.71542600  1
  C  2354  1  0.05263450  0.26969850  0.74429750  1
  C  2355  1  0.99303700  0.28877150  0.75851050  1
  C  2356  1  0.94152250  0.29539500  0.74405100  1
  C  2365  1  0.93781150  0.78958650  0.73512650  1
  C  2366  1  0.98332800  0.80367450  0.71598050  1
  C  2367  1  0.04929850  0.78923800  0.70959200  1
  C  2368  1  0.06734500  0.76054450  0.72449450  1
  C  2369  1  0.02182250  0.74644550  0.74361650  1
  C  2370  1  0.95585550  0.76088650  0.75001150  1
  C  2379  1  0.45776850  0.26052450  0.22424850  1
  C  2380  1  0.49830350  0.24630650  0.24331550  1
  C  2381  1  0.54329750  0.26073350  0.24988050  1
  C  2382  1  0.54731700  0.28956500  0.23524100  1
  C  2383  1  0.50676500  0.30378600  0.21618400  1
  C  2384  1  0.46177300  0.28936050  0.20961950  1
  C  2393  1  0.56867550  0.26908100  0.72477600  1
  C  2394  1  0.54154000  0.25582850  0.70535050  1
  C  2395  1  0.47467650  0.26195900  0.70940500  1
  C  2396  1  0.43641550  0.28108700  0.73472900  1
  C  2397  1  0.46354850  0.29433300  0.75415900  1
  C  2398  1  0.53040900  0.28818400  0.75011900  1
  C  2407  1  0.55757800  0.78059050  0.23526050  1
  C  2408  1  0.49769800  0.79365500  0.25472200  1
  C  2409  1  0.44100100  0.78803050  0.25012350  1
  C  2410  1  0.44727850  0.76961900  0.22424500  1
  C  2411  1  0.50716600  0.75654450  0.20478950  1
  C  2412  1  0.56386400  0.76216600  0.20939000  1
  C  2421  1  0.56387750  0.77993900  0.72357400  1
  C  2422  1  0.51719950  0.79941100  0.71042800  1
  C  2423  1  0.45431100  0.79543750  0.71673050  1
  C  2424  1  0.44142350  0.77012150  0.73588550  1
  C  2425  1  0.48810200  0.75064950  0.74903050  1
  C  2426  1  0.55098800  0.75462650  0.74273050  1
  C  2435  1  0.06268500  0.26998800  0.23572600  1
  C  2436  1  0.02234550  0.25050450  0.24885150  1
  C  2437  1  0.96153100  0.25466800  0.24278400  1
  C  2438  1  0.94225450  0.28016900  0.22387800  1
  C  2439  1  0.98259550  0.29965300  0.21075200  1
  C  2440  1  0.04340550  0.29549200  0.21682500  1
  C  2561  1  0.74455500  0.73164100  0.96869500  1
  C  2562  1  0.75106800  0.73071600  0.99931200  1
  C  2563  1  0.77232550  0.70212000  0.01363800  1
  C  2564  1  0.78700900  0.67438000  0.99656300  1
  C  2565  1  0.78105900  0.67528350  0.96584850  1
  C  2566  1  0.76106700  0.70397700  0.95144500  1
  C  2575  1  0.44081350  0.31861000  0.99098400  1
  C  2576  1  0.47680050  0.31958300  0.96032900  1
  C  2577  1  0.48359350  0.34820750  0.94601350  1
  C  2578  1  0.45349100  0.37592000  0.96313500  1
  C  2579  1  0.41785550  0.37496850  0.99386750  1
  C  2580  1  0.41228150  0.34625400  0.00825600  1
  C  2589  1  0.70336450  0.51375600  0.77390900  1
  C  2590  1  0.70931650  0.54430650  0.77484850  1
  C  2591  1  0.70159950  0.55865100  0.80347800  1
  C  2592  1  0.68791700  0.54167100  0.83122600  1
  C  2593  1  0.68256200  0.51101150  0.83030150  1
  C  2594  1  0.69143650  0.49660300  0.80159100  1
  C  2603  1  0.98356650  0.53614700  0.18633700  1
  C  2604  1  0.02046350  0.50548050  0.18538750  1
  C  2605  1  0.05603150  0.49116400  0.15678100  1
  C  2606  1  0.05377900  0.50829100  0.12906000  1
  C  2607  1  0.01739150  0.53906350  0.12999650  1
  C  2608  1  0.98300500  0.55345500  0.15869800  1
  C  2617  1  0.26038900  0.81847650  0.49091650  1
  C  2618  1  0.25386700  0.81938900  0.46030100  1
  C  2619  1  0.23263300  0.84798250  0.44596250  1
  C  2620  1  0.21796850  0.87572850  0.46302550  1
  C  2621  1  0.22392450  0.87483500  0.49374000  1
  C  2622  1  0.24390450  0.84614700  0.50815200  1
  C  2631  1  0.56419050  0.23164850  0.46864750  1
  C  2632  1  0.52826800  0.23067950  0.49931550  1
  C  2633  1  0.52132850  0.20206450  0.51361250  1
  C  2634  1  0.55125650  0.17435700  0.49645900  1
  C  2635  1  0.58682650  0.17530500  0.46571400  1
  C  2636  1  0.59251400  0.20401350  0.45134050  1
  C  2645  1  0.30116750  0.03639000  0.68604500  1
  C  2646  1  0.29551650  0.00579150  0.68506550  1
  C  2647  1  0.30315800  0.99148400  0.65642500  1
  C  2648  1  0.31646850  0.00855400  0.62870700  1
  C  2649  1  0.32150550  0.03926250  0.62967350  1
  C  2650  1  0.31269000  0.05363450  0.65839850  1
  C  2659  1  0.02139700  0.01404050  0.27335850  1
  C  2660  1  0.98449950  0.04470900  0.27430700  1
  C  2661  1  0.94895200  0.05903200  0.30291100  1
  C  2662  1  0.95122800  0.04191200  0.33063600  1
  C  2663  1  0.98761450  0.01113950  0.32970150  1
  C  2664  1  0.02197550  0.99674050  0.30100150  1
  H  7  1  0.75001950  0.94837050  0.94783650  1
  H  16  1  0.87534350  0.86542150  0.90985150  1
  H  19  1  0.89289400  0.91331250  0.85167550  1
  H  20  1  0.88316100  0.97161800  0.91696700  1
  H  21  1  0.62610000  0.92857100  0.87992000  1
  H  22  1  0.07283700  0.87572400  0.92824900  1
  H  37  1  0.64069050  0.56176250  0.55210250  1
  H  46  1  0.64571600  0.64435300  0.59048500  1
  H  49  1  0.65306250  0.59612600  0.64839500  1
  H  50  1  0.76651400  0.53804200  0.58281100  1
  H  51  1  0.42894550  0.58201550  0.62004950  1
  H  52  1  0.87194050  0.63380450  0.57226750  1
  H  67  1  0.69283100  0.95281550  0.55671150  1
  H  76  1  0.73567200  0.91480550  0.63943350  1
  H  79  1  0.80192000  0.85681100  0.59140500  1
  H  80  1  0.84967150  0.92213000  0.53326300  1
  H  81  1  0.54985950  0.88438800  0.57667800  1
  H  82  1  0.94315850  0.93346000  0.62928500  1
  H  97  1  0.19751950  0.55704750  0.94334650  1
  H  106  1  0.28519500  0.59499200  0.86050000  1
  H  109  1  0.24441700  0.65320450  0.90840050  1
  H  110  1  0.29959850  0.58789400  0.96678900  1
  H  111  1  0.00592950  0.62514700  0.92322900  1
  H  112  1  0.50089000  0.57685500  0.87101500  1
  H  127  1  0.25483650  0.06143900  0.05211500  1
  H  136  1  0.12959650  0.14435450  0.09018950  1
  H  139  1  0.11205100  0.09639550  0.14832950  1
  H  140  1  0.12167300  0.03818300  0.08299100  1
  H  141  1  0.37886700  0.08117150  0.11998950  1
  H  142  1  0.93198800  0.13415100  0.07185600  1
  H  157  1  0.36428750  0.44796050  0.44793350  1
  H  166  1  0.35878800  0.36541000  0.40968500  1
  H  169  1  0.35163500  0.41362750  0.35167350  1
  H  170  1  0.23856700  0.47182050  0.41712550  1
  H  171  1  0.57593050  0.42762150  0.37982250  1
  H  172  1  0.13250600  0.37626050  0.42775950  1
  H  187  1  0.31241250  0.05689650  0.44317150  1
  H  196  1  0.26937750  0.09498600  0.36053300  1
  H  199  1  0.20308900  0.15294500  0.40866300  1
  H  200  1  0.15550000  0.08759400  0.46671200  1
  H  201  1  0.45520150  0.12543500  0.42325000  1
  H  202  1  0.06190050  0.07631450  0.37071150  1
  H  217  1  0.80740500  0.45273200  0.05662700  1
  H  226  1  0.71963750  0.41483500  0.13949600  1
  H  229  1  0.76055150  0.35658400  0.09164700  1
  H  230  1  0.70543700  0.42182600  0.03317800  1
  H  231  1  0.99898900  0.38469400  0.07681400  1
  H  232  1  0.50401600  0.43291450  0.12888150  1
  H  487  1  0.10427300  0.01467950  0.97378950  1
  H  488  1  0.94492400  0.02678150  0.05036350  1
  H  489  1  0.90036900  0.99523250  0.02619650  1
  H  490  1  0.05971750  0.98312950  0.94962350  1
  H  492  1  0.09984150  0.04385500  0.01690600  1
  H  494  1  0.90480500  0.96605800  0.98307700  1
  H  501  1  0.08764150  0.49503000  0.52631500  1
  H  502  1  0.01760200  0.48375700  0.44928400  1
  H  503  1  0.91717750  0.51511500  0.47354400  1
  H  504  1  0.98721900  0.52639100  0.55057000  1
  H  506  1  0.15580800  0.46613100  0.48303600  1
  H  508  1  0.84897100  0.54392350  0.51686450  1
  H  515  1  0.11417350  0.97854150  0.49037450  1
  H  516  1  0.96735500  0.05525600  0.47811600  1
  H  517  1  0.89098450  0.03120950  0.50961050  1
  H  518  1  0.03780100  0.95449350  0.52187650  1
  H  520  1  0.13926500  0.02160600  0.46118200  1
  H  522  1  0.86586450  0.98814650  0.53883250  1
  H  529  1  0.57790350  0.53118500  0.00987700  1
  H  530  1  0.49620850  0.45427550  0.02136950  1
  H  531  1  0.42716550  0.47852800  0.99000200  1
  H  532  1  0.50887300  0.55543850  0.97850650  1
  H  534  1  0.61710800  0.48792700  0.03877000  1
  H  536  1  0.38794650  0.52179450  0.96109350  1
  H  543  1  0.38793650  0.51651200  0.50862000  1
  H  544  1  0.57179400  0.47014200  0.45924200  1
  H  545  1  0.61714850  0.49323900  0.49129500  1
  H  546  1  0.43329050  0.53960800  0.54067500  1
  H  548  1  0.40157800  0.47965250  0.46961050  1
  H  550  1  0.60348900  0.53009200  0.53033700  1
  H  557  1  0.40810400  0.99418350  0.99032450  1
  H  558  1  0.49615950  0.03847150  0.04166550  1
  H  559  1  0.59676100  0.01563200  0.00957000  1
  H  560  1  0.50870300  0.97134050  0.95823250  1
  H  562  1  0.34586600  0.03042450  0.02991550  1
  H  564  1  0.65899200  0.97938950  0.96999050  1
  H  571  1  0.39659350  0.99629400  0.51181900  1
  H  572  1  0.53108750  0.04552350  0.46510650  1
  H  573  1  0.60870650  0.01338950  0.48802050  1
  H  574  1  0.47421300  0.96415900  0.53473100  1
  H  576  1  0.37095600  0.03536050  0.47506550  1
  H  578  1  0.63431900  0.97433850  0.52480050  1
  H  585  1  0.89935900  0.51374850  0.98847250  1
  H  586  1  0.03721150  0.46388900  0.03440400  1
  H  587  1  0.10558200  0.49603050  0.01150850  1
  H  588  1  0.96772850  0.54589150  0.96557950  1
  H  590  1  0.87629450  0.47453500  0.02511000  1
  H  592  1  0.12863850  0.53525200  0.97488300  1
  H  711  1  0.80446600  0.88324000  0.77612500  1
  H  712  1  0.74055400  0.98096150  0.78127650  1
  H  713  1  0.73100650  0.98250300  0.72870600  1
  H  714  1  0.79343700  0.88479600  0.72386000  1
  H  716  1  0.79454250  0.94972700  0.81860400  1
  H  718  1  0.72540650  0.94973700  0.68509200  1
  H  725  1  0.45921550  0.62670350  0.72394950  1
  H  726  1  0.49843800  0.52898000  0.71869800  1
  H  727  1  0.43808500  0.52735650  0.77130750  1
  H  728  1  0.39766300  0.62507000  0.77623800  1
  H  730  1  0.55817950  0.56034200  0.68129800  1
  H  732  1  0.35617900  0.55998850  0.81498050  1
  H  739  1  0.68405100  0.78091750  0.62238950  1
  H  740  1  0.71960800  0.78585550  0.52460850  1
  H  741  1  0.71092700  0.73339400  0.52303600  1
  H  742  1  0.67396700  0.72873150  0.62080750  1
  H  744  1  0.74189300  0.82321700  0.55612800  1
  H  746  1  0.67148250  0.68998250  0.55563550  1
  H  753  1  0.08068150  0.72876000  0.87829700  1
  H  754  1  0.02158450  0.72347200  0.97599800  1
  H  755  1  0.95978200  0.77610100  0.97758900  1
  H  756  1  0.01767750  0.78107250  0.87989550  1
  H  758  1  0.11277700  0.68609300  0.94477300  1
  H  760  1  0.91097900  0.81994850  0.94492750  1
  H  767  1  0.20052750  0.12648750  0.22383250  1
  H  768  1  0.26437050  0.02876200  0.21872200  1
  H  769  1  0.27393050  0.02723900  0.27129100  1
  H  770  1  0.21156950  0.12495100  0.27609300  1
  H  772  1  0.21040150  0.05999500  0.18137900  1
  H  774  1  0.27958850  0.06001350  0.31487850  1
  H  781  1  0.54541200  0.38320600  0.27600100  1
  H  782  1  0.50675250  0.48090350  0.28134150  1
  H  783  1  0.56699250  0.48252250  0.22871450  1
  H  784  1  0.60687000  0.38483050  0.22369950  1
  H  786  1  0.44688450  0.44965000  0.31874600  1
  H  788  1  0.64861250  0.44986350  0.18497050  1
  H  795  1  0.32026550  0.22895900  0.37791600  1
  H  796  1  0.28548500  0.22380100  0.47566500  1
  H  797  1  0.29365900  0.27633600  0.47730900  1
  H  798  1  0.32985500  0.28121500  0.37956500  1
  H  800  1  0.26323600  0.18642200  0.44414800  1
  H  802  1  0.33250550  0.31992150  0.44472950  1
  H  809  1  0.92433750  0.28106900  0.12177600  1
  H  810  1  0.98336200  0.28633300  0.02407200  1
  H  811  1  0.04515900  0.23370250  0.02248650  1
  H  812  1  0.98733600  0.22875700  0.12018400  1
  H  814  1  0.89219100  0.32371300  0.05529300  1
  H  816  1  0.09396400  0.18985700  0.05514300  1
  H  1863  1  0.75001950  0.71855950  0.17764750  1
  H  1872  1  0.87534350  0.63561050  0.13966250  1
  H  1875  1  0.89289400  0.68350150  0.08148650  1
  H  1876  1  0.88316100  0.74180700  0.14677800  1
  H  1877  1  0.62610000  0.69876000  0.10973100  1
  H  1878  1  0.07283700  0.64591300  0.15806000  1
  H  1893  1  0.64069050  0.33195150  0.78191350  1
  H  1902  1  0.64571600  0.41454200  0.82029600  1
  H  1905  1  0.65306250  0.36631500  0.87820600  1
  H  1906  1  0.76651400  0.30823100  0.81262200  1
  H  1907  1  0.42894550  0.35220450  0.84986050  1
  H  1908  1  0.87194050  0.40399350  0.80207850  1
  H  1923  1  0.69283100  0.72300425  0.78652275  1
  H  1932  1  0.73567200  0.68499425  0.86924475  1
  H  1935  1  0.80192000  0.62699975  0.82121625  1
  H  1936  1  0.84967150  0.69231875  0.76307425  1
  H  1937  1  0.54985950  0.65457675  0.80648925  1
  H  1938  1  0.94315850  0.70364875  0.85909625  1
  H  1953  1  0.19751950  0.32723650  0.17315750  1
  H  1962  1  0.28519500  0.36518100  0.09031100  1
  H  1965  1  0.24441700  0.42339350  0.13821150  1
  H  1966  1  0.29959850  0.35808300  0.19660000  1
  H  1967  1  0.00592950  0.39533600  0.15304000  1
  H  1968  1  0.50089000  0.34704400  0.10082600  1
  H  1983  1  0.25483650  0.83162800  0.28192600  1
  H  1992  1  0.12959650  0.91454350  0.32000050  1
  H  1995  1  0.11205100  0.86658450  0.37814050  1
  H  1996  1  0.12167300  0.80837200  0.31280200  1
  H  1997  1  0.37886700  0.85136050  0.34980050  1
  H  1998  1  0.93198800  0.90434000  0.30166700  1
  H  2013  1  0.36428750  0.21814950  0.67774450  1
  H  2022  1  0.35878800  0.13559900  0.63949600  1
  H  2025  1  0.35163500  0.18381650  0.58148450  1
  H  2026  1  0.23856700  0.24200950  0.64693650  1
  H  2027  1  0.57593050  0.19781050  0.60963350  1
  H  2028  1  0.13250600  0.14644950  0.65757050  1
  H  2043  1  0.31241250  0.82708550  0.67298250  1
  H  2052  1  0.26937750  0.86517500  0.59034400  1
  H  2055  1  0.20308900  0.92313400  0.63847400  1
  H  2056  1  0.15550000  0.85778300  0.69652300  1
  H  2057  1  0.45520150  0.89562400  0.65306100  1
  H  2058  1  0.06190050  0.84650350  0.60052250  1
  H  2073  1  0.80740500  0.22292075  0.28643825  1
  H  2082  1  0.71963750  0.18502375  0.36930725  1
  H  2085  1  0.76055150  0.12677275  0.32145825  1
  H  2086  1  0.70543700  0.19201475  0.26298925  1
  H  2087  1  0.99898900  0.15488275  0.30662525  1
  H  2088  1  0.50401600  0.20310325  0.35869275  1
  H  2343  1  0.10427300  0.78486850  0.20360050  1
  H  2344  1  0.94492400  0.79697050  0.28017450  1
  H  2345  1  0.90036900  0.76542150  0.25600750  1
  H  2346  1  0.05971750  0.75331850  0.17943450  1
  H  2348  1  0.09984150  0.81404400  0.24671700  1
  H  2350  1  0.90480500  0.73624700  0.21288800  1
  H  2357  1  0.08764150  0.26521900  0.75612600  1
  H  2358  1  0.01760200  0.25394600  0.67909500  1
  H  2359  1  0.91717750  0.28530400  0.70335500  1
  H  2360  1  0.98721900  0.29658000  0.78038100  1
  H  2362  1  0.15580800  0.23632000  0.71284700  1
  H  2364  1  0.84897100  0.31411250  0.74667550  1
  H  2371  1  0.11417350  0.74873050  0.72018550  1
  H  2372  1  0.96735500  0.82544500  0.70792700  1
  H  2373  1  0.89098450  0.80139850  0.73942150  1
  H  2374  1  0.03780100  0.72468225  0.75168775  1
  H  2376  1  0.13926500  0.79179500  0.69099300  1
  H  2378  1  0.86586450  0.75833527  0.76864373  1
  H  2385  1  0.57790350  0.30137400  0.23968800  1
  H  2386  1  0.49620850  0.22446425  0.25118075  1
  H  2387  1  0.42716550  0.24871700  0.21981300  1
  H  2388  1  0.50887300  0.32562750  0.20831750  1
  H  2390  1  0.61710800  0.25811576  0.26858124  1
  H  2392  1  0.38794650  0.29198350  0.19090450  1
  H  2399  1  0.38793650  0.28670100  0.73843100  1
  H  2400  1  0.57179400  0.24033100  0.68905300  1
  H  2401  1  0.61714850  0.26342800  0.72110600  1
  H  2402  1  0.43329050  0.30979700  0.77048600  1
  H  2404  1  0.40157800  0.24984150  0.69942150  1
  H  2406  1  0.60348900  0.30028100  0.76014800  1
  H  2413  1  0.40810400  0.76437250  0.22013550  1
  H  2414  1  0.49615950  0.80866050  0.27147650  1
  H  2415  1  0.59676100  0.78582100  0.23938100  1
  H  2416  1  0.50870300  0.74152950  0.18804350  1
  H  2418  1  0.34586600  0.80061350  0.25972650  1
  H  2420  1  0.65899200  0.74957850  0.19980150  1
  H  2427  1  0.39659350  0.76648300  0.74163000  1
  H  2428  1  0.53108750  0.81571250  0.69491750  1
  H  2429  1  0.60870650  0.78357850  0.71783150  1
  H  2430  1  0.47421300  0.73434775  0.76454225  1
  H  2432  1  0.37095600  0.80554950  0.70487650  1
  H  2434  1  0.63431900  0.74452726  0.75461174  1
  H  2441  1  0.89935900  0.28393750  0.21828350  1
  H  2442  1  0.03721150  0.23407775  0.26421525  1
  H  2443  1  0.10558200  0.26621950  0.24131950  1
  H  2444  1  0.96772850  0.31608050  0.19539050  1
  H  2446  1  0.87629450  0.24472377  0.25492123  1
  H  2448  1  0.12863850  0.30544100  0.20469400  1
  H  2567  1  0.80446600  0.65342900  0.00593600  1
  H  2568  1  0.74055400  0.75115050  0.01108750  1
  H  2569  1  0.73100650  0.75269200  0.95851700  1
  H  2570  1  0.79343700  0.65498500  0.95367100  1
  H  2572  1  0.79454250  0.71991600  0.04841500  1
  H  2574  1  0.72540650  0.71992575  0.91490325  1
  H  2581  1  0.45921550  0.39689250  0.95376050  1
  H  2582  1  0.49843800  0.29916900  0.94850900  1
  H  2583  1  0.43808500  0.29754550  0.00111850  1
  H  2584  1  0.39766300  0.39525900  0.00604900  1
  H  2586  1  0.55817950  0.33053100  0.91110900  1
  H  2588  1  0.35617900  0.33017750  0.04479150  1
  H  2595  1  0.68405100  0.55110650  0.85220050  1
  H  2596  1  0.71960800  0.55604425  0.75441975  1
  H  2597  1  0.71092700  0.50358300  0.75284700  1
  H  2598  1  0.67396700  0.49892050  0.85061850  1
  H  2600  1  0.74189300  0.59340575  0.78593925  1
  H  2602  1  0.67148250  0.46017150  0.78544650  1
  H  2609  1  0.08068150  0.49894900  0.10810800  1
  H  2610  1  0.02158450  0.49366100  0.20580900  1
  H  2611  1  0.95978200  0.54629000  0.20740000  1
  H  2612  1  0.01767750  0.55126150  0.10970650  1
  H  2614  1  0.11277700  0.45628200  0.17458400  1
  H  2616  1  0.91097900  0.59013750  0.17473850  1
  H  2623  1  0.20052750  0.89667650  0.45364350  1
  H  2624  1  0.26437050  0.79895100  0.44853300  1
  H  2625  1  0.27393050  0.79742800  0.50110200  1
  H  2626  1  0.21156950  0.89514000  0.50590400  1
  H  2628  1  0.21040150  0.83018400  0.41119000  1
  H  2630  1  0.27958850  0.83020250  0.54468950  1
  H  2637  1  0.54541200  0.15339500  0.50581200  1
  H  2638  1  0.50675250  0.25109250  0.51115250  1
  H  2639  1  0.56699250  0.25271150  0.45852550  1
  H  2640  1  0.60687000  0.15501950  0.45351050  1
  H  2642  1  0.44688450  0.21983900  0.54855700  1
  H  2644  1  0.64861250  0.22005225  0.41478175  1
  H  2651  1  0.32026550  0.99914800  0.60772700  1
  H  2652  1  0.28548500  0.99399000  0.70547600  1
  H  2653  1  0.29365900  0.04652500  0.70712000  1
  H  2654  1  0.32985500  0.05140400  0.60937600  1
  H  2656  1  0.26323600  0.95661100  0.67395900  1
  H  2658  1  0.33250550  0.09011050  0.67454050  1
  H  2665  1  0.92433750  0.05125800  0.35158700  1
  H  2666  1  0.98336200  0.05652175  0.25388325  1
  H  2667  1  0.04515900  0.00389150  0.25229750  1
  H  2668  1  0.98733600  0.99894600  0.34999500  1
  H  2670  1  0.89219100  0.09390175  0.28510425  1
  H  2672  1  0.09396400  0.96004600  0.28495400  1
  N  491  1  0.05509350  0.04483500  0.02629600  1
  N  493  1  0.94955350  0.96506850  0.97370050  1
  N  505  1  0.12147400  0.46532950  0.47354550  1
  N  507  1  0.88329750  0.54475850  0.52634250  1
  N  519  1  0.09554550  0.03101850  0.46015750  1
  N  521  1  0.90960700  0.97873000  0.53981900  1
  N  533  1  0.58189350  0.47846400  0.03966300  1
  N  535  1  0.42314950  0.53125850  0.96023250  1
  N  547  1  0.44600900  0.47955450  0.46110750  1
  N  549  1  0.55906500  0.53016950  0.53882950  1
  N  561  1  0.38153450  0.02997150  0.03874550  1
  N  563  1  0.62333550  0.97983850  0.96115350  1
  N  575  1  0.40702850  0.04380350  0.47483750  1
  N  577  1  0.59826150  0.96588950  0.52501550  1
  N  589  1  0.92066650  0.46595900  0.02508600  1
  N  591  1  0.08426750  0.54382500  0.97490200  1
  N  715  1  0.78068050  0.93207800  0.81313600  1
  N  717  1  0.76134100  0.93530500  0.69096600  1
  N  729  1  0.52111250  0.57793950  0.68683450  1
  N  731  1  0.38336900  0.57450550  0.80910250  1
  N  743  1  0.71002800  0.81777050  0.57360550  1
  N  745  1  0.69256500  0.69583200  0.57026600  1
  N  757  1  0.09353750  0.69162300  0.92709800  1
  N  759  1  0.95270750  0.81393900  0.93044900  1
  N  771  1  0.22428800  0.07763750  0.18684250  1
  N  773  1  0.24365950  0.07445200  0.30900600  1
  N  785  1  0.48377550  0.43197650  0.31316550  1
  N  787  1  0.62128250  0.43540750  0.19085350  1
  N  799  1  0.29494250  0.19195050  0.42664350  1
  N  801  1  0.31124450  0.31405650  0.43017850  1
  N  813  1  0.91143400  0.31819000  0.07296700  1
  N  815  1  0.05224900  0.19587550  0.06963150  1
  N  2347  1  0.05509350  0.81502400  0.25610700  1
  N  2349  1  0.94955350  0.73525750  0.20351150  1
  N  2361  1  0.12147400  0.23551850  0.70335650  1
  N  2363  1  0.88329750  0.31494750  0.75615350  1
  N  2375  1  0.09554550  0.80120750  0.68996850  1
  N  2377  1  0.90960700  0.74891875  0.76963025  1
  N  2389  1  0.58189350  0.24865275  0.26947425  1
  N  2391  1  0.42314950  0.30144750  0.19004350  1
  N  2403  1  0.44600900  0.24974350  0.69091850  1
  N  2405  1  0.55906500  0.30035850  0.76864050  1
  N  2417  1  0.38153450  0.80016050  0.26855650  1
  N  2419  1  0.62333550  0.75002750  0.19096450  1
  N  2431  1  0.40702850  0.81399250  0.70464850  1
  N  2433  1  0.59826150  0.73607827  0.75482673  1
  N  2445  1  0.92066650  0.23614777  0.25489723  1
  N  2447  1  0.08426750  0.31401400  0.20471300  1
  N  2571  1  0.78068050  0.70226700  0.04294700  1
  N  2573  1  0.76134100  0.70549400  0.92077700  1
  N  2585  1  0.52111250  0.34812850  0.91664550  1
  N  2587  1  0.38336900  0.34469450  0.03891350  1
  N  2599  1  0.71002800  0.58795950  0.80341650  1
  N  2601  1  0.69256500  0.46602100  0.80007700  1
  N  2613  1  0.09353750  0.46181200  0.15690900  1
  N  2615  1  0.95270750  0.58412800  0.16026000  1
  N  2627  1  0.22428800  0.84782650  0.41665350  1
  N  2629  1  0.24365950  0.84464100  0.53881700  1
  N  2641  1  0.48377550  0.20216550  0.54297650  1
  N  2643  1  0.62128250  0.20559650  0.42066450  1
  N  2655  1  0.29494250  0.96213950  0.65645450  1
  N  2657  1  0.31124450  0.08424550  0.65998950  1
  N  2669  1  0.91143400  0.08837900  0.30277800  1
  N  2671  1  0.05224900  0.96607167  0.29943533  1
  O  8  1  0.64942400  0.94450100  0.87162300  1
  O  15  1  0.03713550  0.87552650  0.94636950  1
  O  17  1  0.86874250  0.89767800  0.85983800  1
  O  18  1  0.86295500  0.96288200  0.93663600  1
  O  27  1  0.04663000  0.82908000  0.90501600  1
  O  28  1  0.04518500  0.93139000  0.95019000  1
  O  29  1  0.72929750  0.89199200  0.83264500  1
  O  30  1  0.59196300  0.98176450  0.91570950  1
  O  38  1  0.45977450  0.56591450  0.62824950  1
  O  45  1  0.85418350  0.63410900  0.55412300  1
  O  47  1  0.62142750  0.61187450  0.64035350  1
  O  48  1  0.75715150  0.54694300  0.56321200  1
  O  57  1  0.77596950  0.68031650  0.59582850  1
  O  58  1  0.92166750  0.57820300  0.55021100  1
  O  59  1  0.44852150  0.61793950  0.66759350  1
  O  60  1  0.48257850  0.52921950  0.58386750  1
  O  68  1  0.58904400  0.87631000  0.56062600  1
  O  75  1  0.90726650  0.95157350  0.62943850  1
  O  77  1  0.76203200  0.86476400  0.60705000  1
  O  78  1  0.82062950  0.94176500  0.54202600  1
  O  87  1  0.87052450  0.91012050  0.67582350  1
  O  88  1  0.97139450  0.95516900  0.57358500  1
  O  89  1  0.61651150  0.83720350  0.61260550  1
  O  90  1  0.56651200  0.92088700  0.52428500  1
  O  98  1  0.02088500  0.63331450  0.93926450  1
  O  105  1  0.48342400  0.55869700  0.87081100  1
  O  107  1  0.22854850  0.64503250  0.89272550  1
  O  108  1  0.29925850  0.56821050  0.95801250  1
  O  117  1  0.45162700  0.60000950  0.82434150  1
  O  118  1  0.49489200  0.55513600  0.92674200  1
  O  119  1  0.06204150  0.67226200  0.88676300  1
  O  120  1  0.00692100  0.58895200  0.97599400  1
  O  128  1  0.35555900  0.06523700  0.12829400  1
  O  135  1  0.96767000  0.13434600  0.05372500  1
  O  137  1  0.13619800  0.11203400  0.14017900  1
  O  138  1  0.14184800  0.04693400  0.06332600  1
  O  147  1  0.95830800  0.18075900  0.09508500  1
  O  148  1  0.95952800  0.07848850  0.04991950  1
  O  149  1  0.27573100  0.11770050  0.16732150  1
  O  150  1  0.41292300  0.02798250  0.08418750  1
  O  158  1  0.54506050  0.44374100  0.37166900  1
  O  165  1  0.15019750  0.37597000  0.44592400  1
  O  167  1  0.38318050  0.39784900  0.35974000  1
  O  168  1  0.24781350  0.46293850  0.43675250  1
  O  177  1  0.22830150  0.32960850  0.40435550  1
  O  178  1  0.08303500  0.43193450  0.44965450  1
  O  179  1  0.55580950  0.39170150  0.33242050  1
  O  180  1  0.52248900  0.48040350  0.41605250  1
  O  188  1  0.41604850  0.13345100  0.43934300  1
  O  195  1  0.09779700  0.05820150  0.37054650  1
  O  197  1  0.24295100  0.14501250  0.39299250  1
  O  198  1  0.18454700  0.06796450  0.45793450  1
  O  207  1  0.13449750  0.09967800  0.32417000  1
  O  208  1  0.03373100  0.05456050  0.42639750  1
  O  209  1  0.38820600  0.17270150  0.38743650  1
  O  210  1  0.43881000  0.08879950  0.47556850  1
  O  218  1  0.98405000  0.37650450  0.06078550  1
  O  225  1  0.52146750  0.45107650  0.12908650  1
  O  227  1  0.77639200  0.36477800  0.10732100  1
  O  228  1  0.70574700  0.44152150  0.04194150  1
  O  237  1  0.55313250  0.40984750  0.17561650  1
  O  238  1  0.51009600  0.45460900  0.07314400  1
  O  239  1  0.94289800  0.33757450  0.11330050  1
  O  240  1  0.99800400  0.42083000  0.02400200  1
  O  1864  1  0.64942400  0.71469000  0.10143400  1
  O  1871  1  0.03713550  0.64571550  0.17618050  1
  O  1873  1  0.86874250  0.66786700  0.08964900  1
  O  1874  1  0.86295500  0.73307100  0.16644700  1
  O  1883  1  0.04663000  0.59926900  0.13482700  1
  O  1884  1  0.04518500  0.70157900  0.18000100  1
  O  1885  1  0.72929750  0.66218100  0.06245600  1
  O  1886  1  0.59196300  0.75195350  0.14552050  1
  O  1894  1  0.45977450  0.33610350  0.85806050  1
  O  1901  1  0.85418350  0.40429800  0.78393400  1
  O  1903  1  0.62142750  0.38206350  0.87016450  1
  O  1904  1  0.75715150  0.31713200  0.79302300  1
  O  1913  1  0.77596950  0.45050550  0.82563950  1
  O  1914  1  0.92166750  0.34839200  0.78002200  1
  O  1915  1  0.44852150  0.38812850  0.89740450  1
  O  1916  1  0.48257850  0.29940850  0.81367850  1
  O  1924  1  0.58904400  0.64649875  0.79043725  1
  O  1931  1  0.90726650  0.72176225  0.85924975  1
  O  1933  1  0.76203200  0.63495300  0.83686100  1
  O  1934  1  0.82062950  0.71195375  0.77183725  1
  O  1943  1  0.87052450  0.68030950  0.90563450  1
  O  1944  1  0.97139450  0.72535775  0.80339625  1
  O  1945  1  0.61651150  0.60739250  0.84241650  1
  O  1946  1  0.56651200  0.69107575  0.75409625  1
  O  1954  1  0.02088500  0.40350350  0.16907550  1
  O  1961  1  0.48342400  0.32888600  0.10062200  1
  O  1963  1  0.22854850  0.41522150  0.12253650  1
  O  1964  1  0.29925850  0.33839950  0.18782350  1
  O  1973  1  0.45162700  0.37019850  0.05415250  1
  O  1974  1  0.49489200  0.32532500  0.15655300  1
  O  1975  1  0.06204150  0.44245100  0.11657400  1
  O  1976  1  0.00692100  0.35914100  0.20580500  1
  O  1984  1  0.35555900  0.83542600  0.35810500  1
  O  1991  1  0.96767000  0.90453500  0.28353600  1
  O  1993  1  0.13619800  0.88222300  0.36999000  1
  O  1994  1  0.14184800  0.81712300  0.29313700  1
  O  2003  1  0.95830800  0.95094800  0.32489600  1
  O  2004  1  0.95952800  0.84867750  0.27973050  1
  O  2005  1  0.27573100  0.88788950  0.39713250  1
  O  2006  1  0.41292300  0.79817150  0.31399850  1
  O  2014  1  0.54506050  0.21393000  0.60148000  1
  O  2021  1  0.15019750  0.14615900  0.67573500  1
  O  2023  1  0.38318050  0.16803800  0.58955100  1
  O  2024  1  0.24781350  0.23312750  0.66656350  1
  O  2033  1  0.22830150  0.09979750  0.63416650  1
  O  2034  1  0.08303500  0.20212350  0.67946550  1
  O  2035  1  0.55580950  0.16189050  0.56223150  1
  O  2036  1  0.52248900  0.25059250  0.64586350  1
  O  2044  1  0.41604850  0.90364000  0.66915400  1
  O  2051  1  0.09779700  0.82839050  0.60035750  1
  O  2053  1  0.24295100  0.91520150  0.62280350  1
  O  2054  1  0.18454700  0.83815350  0.68774550  1
  O  2063  1  0.13449750  0.86986700  0.55398100  1
  O  2064  1  0.03373100  0.82474950  0.65620850  1
  O  2065  1  0.38820600  0.94289050  0.61724750  1
  O  2066  1  0.43881000  0.85898850  0.70537950  1
  O  2074  1  0.98405000  0.14669325  0.29059675  1
  O  2081  1  0.52146750  0.22126525  0.35889775  1
  O  2083  1  0.77639200  0.13496700  0.33713200  1
  O  2084  1  0.70574700  0.21171025  0.27175275  1
  O  2093  1  0.55313250  0.18003650  0.40542750  1
  O  2094  1  0.51009600  0.22479775  0.30295525  1
  O  2095  1  0.94289800  0.10776350  0.34311150  1
  O  2096  1  0.99800400  0.19101875  0.25381325  1
