# generated using pymatgen
data_Pr2CoH24C48(NO2)8
_symmetry_space_group_name_H-M   'P 1'
_cell_length_a   11.23670000
_cell_length_b   32.96820000
_cell_length_c   32.96819609
_cell_angle_alpha   88.33578524
_cell_angle_beta   80.18793930
_cell_angle_gamma   80.18770000
_symmetry_Int_Tables_number   1
_chemical_formula_structural   Pr2CoH24C48(NO2)8
_chemical_formula_sum   'Pr16 Co8 H192 C384 N64 O128'
_cell_volume   11858.48940707
_cell_formula_units_Z   8
loop_
 _symmetry_equiv_pos_site_id
 _symmetry_equiv_pos_as_xyz
  1  'x, y, z'
loop_
 _atom_site_type_symbol
 _atom_site_label
 _atom_site_symmetry_multiplicity
 _atom_site_fract_x
 _atom_site_fract_y
 _atom_site_fract_z
 _atom_site_occupancy
  Pr  Pr1  1  0.01220000  0.02862000  0.17134000  1.0
  Pr  Pr2  1  0.50999000  0.02592000  0.17314000  1.0
  Pr  Pr3  1  0.21216000  0.47138000  0.32866000  1.0
  Pr  Pr4  1  0.70905000  0.47408000  0.32686000  1.0
  Pr  Pr5  1  0.54082000  0.17134000  0.47138000  1.0
  Pr  Pr6  1  0.03590000  0.17315000  0.47408000  1.0
  Pr  Pr7  1  0.18354000  0.32866000  0.02862000  1.0
  Pr  Pr8  1  0.68314000  0.32685000  0.02592000  1.0
  Pr  Pr9  1  0.98780000  0.97138000  0.82866000  1.0
  Pr  Pr10  1  0.49001000  0.97408000  0.82686000  1.0
  Pr  Pr11  1  0.78784000  0.52862000  0.67134000  1.0
  Pr  Pr12  1  0.29095000  0.52592000  0.67314000  1.0
  Pr  Pr13  1  0.45918000  0.82866000  0.52862000  1.0
  Pr  Pr14  1  0.96410000  0.82685000  0.52592000  1.0
  Pr  Pr15  1  0.81646000  0.67134000  0.97138000  1.0
  Pr  Pr16  1  0.31686000  0.67315000  0.97408000  1.0
  Co  Co1  1  0.32514000  0.12893000  0.96359000  1.0
  Co  Co2  1  0.41766000  0.37107000  0.53641000  1.0
  Co  Co3  1  0.95407000  0.96359000  0.37107000  1.0
  Co  Co4  1  0.28873000  0.53641000  0.12893000  1.0
  Co  Co5  1  0.67486000  0.87107000  0.03641000  1.0
  Co  Co6  1  0.58234000  0.62893000  0.46359000  1.0
  Co  Co7  1  0.04593000  0.03641000  0.62893000  1.0
  Co  Co8  1  0.71127000  0.46359000  0.87107000  1.0
  H  H1  1  0.98090000  0.98350000  0.05930000  1.0
  H  H2  1  0.05820000  0.93610000  0.00610000  1.0
  H  H3  1  0.93720000  0.88630000  0.99670000  1.0
  H  H4  1  0.47390000  0.86110000  0.11170000  1.0
  H  H5  1  0.47290000  0.85180000  0.18000000  1.0
  H  H6  1  0.62520000  0.87330000  0.20970000  1.0
  H  H7  1  0.31190000  0.15770000  0.13270000  1.0
  H  H8  1  0.24290000  0.21260000  0.09360000  1.0
  H  H9  1  0.21410000  0.20110000  0.02670000  1.0
  H  H10  1  0.42230000  0.03320000  0.94180000  1.0
  H  H11  1  0.37500000  0.97170000  0.97230000  1.0
  H  H12  1  0.26470000  0.97400000  0.03800000  1.0
  H  H13  1  0.11320000  0.87640000  0.21980000  1.0
  H  H14  1  0.91970000  0.87190000  0.25570000  1.0
  H  H15  1  0.84450000  0.91340000  0.31300000  1.0
  H  H16  1  0.18010000  0.00050000  0.39610000  1.0
  H  H17  1  0.32020000  0.03740000  0.36100000  1.0
  H  H18  1  0.33450000  0.04450000  0.29030000  1.0
  H  H19  1  0.58440000  0.04350000  0.31350000  1.0
  H  H20  1  0.61260000  0.07460000  0.37180000  1.0
  H  H21  1  0.67900000  0.13450000  0.36330000  1.0
  H  H22  1  0.52590000  0.24030000  0.20590000  1.0
  H  H23  1  0.59320000  0.21450000  0.13950000  1.0
  H  H24  1  0.73900000  0.15480000  0.13400000  1.0
  H  H25  1  0.02370000  0.51650000  0.44070000  1.0
  H  H26  1  0.00040000  0.56390000  0.49390000  1.0
  H  H27  1  0.82020000  0.61370000  0.50330000  1.0
  H  H28  1  0.44670000  0.63890000  0.38830000  1.0
  H  H29  1  0.50470000  0.64820000  0.32000000  1.0
  H  H30  1  0.70820000  0.62670000  0.29030000  1.0
  H  H31  1  0.60230000  0.34230000  0.36730000  1.0
  H  H32  1  0.54910000  0.28740000  0.40640000  1.0
  H  H33  1  0.44190000  0.29890000  0.47330000  1.0
  H  H34  1  0.39730000  0.46680000  0.55820000  1.0
  H  H35  1  0.31900000  0.52830000  0.52770000  1.0
  H  H36  1  0.27670000  0.52600000  0.46200000  1.0
  H  H37  1  0.20940000  0.62360000  0.28020000  1.0
  H  H38  1  0.04730000  0.62810000  0.24430000  1.0
  H  H39  1  0.07090000  0.58660000  0.18700000  1.0
  H  H40  1  0.57670000  0.49950000  0.10390000  1.0
  H  H41  1  0.71860000  0.46260000  0.13900000  1.0
  H  H42  1  0.66930000  0.45550000  0.20970000  1.0
  H  H43  1  0.94140000  0.45650000  0.18650000  1.0
  H  H44  1  0.05900000  0.42540000  0.12820000  1.0
  H  H45  1  0.17680000  0.36550000  0.13670000  1.0
  H  H46  1  0.97210000  0.25970000  0.29410000  1.0
  H  H47  1  0.94720000  0.28550000  0.36050000  1.0
  H  H48  1  0.02780000  0.34520000  0.36600000  1.0
  H  H49  1  0.46440000  0.05930000  0.51650000  1.0
  H  H50  1  0.49430000  0.00610000  0.56390000  1.0
  H  H51  1  0.32350000  0.99670000  0.61370000  1.0
  H  H52  1  0.83500000  0.11170000  0.63890000  1.0
  H  H53  1  0.82470000  0.18000000  0.64820000  1.0
  H  H54  1  0.99850000  0.20970000  0.62670000  1.0
  H  H55  1  0.96960000  0.13270000  0.34230000  1.0
  H  H56  1  0.95550000  0.09360000  0.28740000  1.0
  H  H57  1  0.91520000  0.02670000  0.29890000  1.0
  H  H58  1  0.95550000  0.94180000  0.46680000  1.0
  H  H59  1  0.84670000  0.97230000  0.52830000  1.0
  H  H60  1  0.73870000  0.03800000  0.52600000  1.0
  H  H61  1  0.48960000  0.21980000  0.62360000  1.0
  H  H62  1  0.29160000  0.25570000  0.62810000  1.0
  H  H63  1  0.25790000  0.31300000  0.58660000  1.0
  H  H64  1  0.68060000  0.39610000  0.49950000  1.0
  H  H65  1  0.85760000  0.36100000  0.46260000  1.0
  H  H66  1  0.87900000  0.29030000  0.45550000  1.0
  H  H67  1  0.12790000  0.31350000  0.45650000  1.0
  H  H68  1  0.18720000  0.37180000  0.42540000  1.0
  H  H69  1  0.31350000  0.36330000  0.36550000  1.0
  H  H70  1  0.26620000  0.20590000  0.25970000  1.0
  H  H71  1  0.30770000  0.13950000  0.28550000  1.0
  H  H72  1  0.39380000  0.13400000  0.34520000  1.0
  H  H73  1  0.04020000  0.44070000  0.98350000  1.0
  H  H74  1  0.06430000  0.49390000  0.93610000  1.0
  H  H75  1  0.93390000  0.50330000  0.88630000  1.0
  H  H76  1  0.58560000  0.38830000  0.86110000  1.0
  H  H77  1  0.65290000  0.32000000  0.85180000  1.0
  H  H78  1  0.83490000  0.29030000  0.87330000  1.0
  H  H79  1  0.44460000  0.36730000  0.15770000  1.0
  H  H80  1  0.33650000  0.40640000  0.21260000  1.0
  H  H81  1  0.24080000  0.47330000  0.20110000  1.0
  H  H82  1  0.36410000  0.55820000  0.03320000  1.0
  H  H83  1  0.34730000  0.52770000  0.97170000  1.0
  H  H84  1  0.30270000  0.46200000  0.97400000  1.0
  H  H85  1  0.33300000  0.28020000  0.87640000  1.0
  H  H86  1  0.17540000  0.24430000  0.87190000  1.0
  H  H87  1  0.15750000  0.18700000  0.91340000  1.0
  H  H88  1  0.57620000  0.10390000  0.00050000  1.0
  H  H89  1  0.68120000  0.13900000  0.03740000  1.0
  H  H90  1  0.62480000  0.20970000  0.04450000  1.0
  H  H91  1  0.89790000  0.18650000  0.04350000  1.0
  H  H92  1  0.98440000  0.12820000  0.07460000  1.0
  H  H93  1  0.04230000  0.13670000  0.13450000  1.0
  H  H94  1  0.73180000  0.29410000  0.24030000  1.0
  H  H95  1  0.73270000  0.36050000  0.21450000  1.0
  H  H96  1  0.87300000  0.36600000  0.15480000  1.0
  H  H97  1  0.01910000  0.01650000  0.94070000  1.0
  H  H98  1  0.94180000  0.06390000  0.99390000  1.0
  H  H99  1  0.06280000  0.11370000  0.00330000  1.0
  H  H100  1  0.52610000  0.13890000  0.88830000  1.0
  H  H101  1  0.52710000  0.14820000  0.82000000  1.0
  H  H102  1  0.37480000  0.12670000  0.79030000  1.0
  H  H103  1  0.68810000  0.84230000  0.86730000  1.0
  H  H104  1  0.75710000  0.78740000  0.90640000  1.0
  H  H105  1  0.78590000  0.79890000  0.97330000  1.0
  H  H106  1  0.57770000  0.96680000  0.05820000  1.0
  H  H107  1  0.62500000  0.02830000  0.02770000  1.0
  H  H108  1  0.73530000  0.02600000  0.96200000  1.0
  H  H109  1  0.88680000  0.12360000  0.78020000  1.0
  H  H110  1  0.08030000  0.12810000  0.74430000  1.0
  H  H111  1  0.15550000  0.08660000  0.68700000  1.0
  H  H112  1  0.81990000  0.99950000  0.60390000  1.0
  H  H113  1  0.67980000  0.96260000  0.63900000  1.0
  H  H114  1  0.66550000  0.95550000  0.70970000  1.0
  H  H115  1  0.41560000  0.95650000  0.68650000  1.0
  H  H116  1  0.38740000  0.92540000  0.62820000  1.0
  H  H117  1  0.32100000  0.86550000  0.63670000  1.0
  H  H118  1  0.47410000  0.75970000  0.79410000  1.0
  H  H119  1  0.40680000  0.78550000  0.86050000  1.0
  H  H120  1  0.26100000  0.84520000  0.86600000  1.0
  H  H121  1  0.97630000  0.48350000  0.55930000  1.0
  H  H122  1  0.99960000  0.43610000  0.50610000  1.0
  H  H123  1  0.17980000  0.38630000  0.49670000  1.0
  H  H124  1  0.55330000  0.36110000  0.61170000  1.0
  H  H125  1  0.49530000  0.35180000  0.68000000  1.0
  H  H126  1  0.29180000  0.37330000  0.70970000  1.0
  H  H127  1  0.39770000  0.65770000  0.63270000  1.0
  H  H128  1  0.45090000  0.71260000  0.59360000  1.0
  H  H129  1  0.55810000  0.70110000  0.52670000  1.0
  H  H130  1  0.60270000  0.53320000  0.44180000  1.0
  H  H131  1  0.68100000  0.47170000  0.47230000  1.0
  H  H132  1  0.72330000  0.47400000  0.53800000  1.0
  H  H133  1  0.79060000  0.37640000  0.71980000  1.0
  H  H134  1  0.95270000  0.37190000  0.75570000  1.0
  H  H135  1  0.92910000  0.41340000  0.81300000  1.0
  H  H136  1  0.42330000  0.50050000  0.89610000  1.0
  H  H137  1  0.28140000  0.53740000  0.86100000  1.0
  H  H138  1  0.33070000  0.54450000  0.79030000  1.0
  H  H139  1  0.05860000  0.54350000  0.81350000  1.0
  H  H140  1  0.94100000  0.57460000  0.87180000  1.0
  H  H141  1  0.82320000  0.63450000  0.86330000  1.0
  H  H142  1  0.02790000  0.74030000  0.70590000  1.0
  H  H143  1  0.05280000  0.71450000  0.63950000  1.0
  H  H144  1  0.97220000  0.65480000  0.63400000  1.0
  H  H145  1  0.53560000  0.94070000  0.48350000  1.0
  H  H146  1  0.50570000  0.99390000  0.43610000  1.0
  H  H147  1  0.67650000  0.00330000  0.38630000  1.0
  H  H148  1  0.16500000  0.88830000  0.36110000  1.0
  H  H149  1  0.17530000  0.82000000  0.35180000  1.0
  H  H150  1  0.00150000  0.79030000  0.37330000  1.0
  H  H151  1  0.03040000  0.86730000  0.65770000  1.0
  H  H152  1  0.04450000  0.90640000  0.71260000  1.0
  H  H153  1  0.08480000  0.97330000  0.70110000  1.0
  H  H154  1  0.04450000  0.05820000  0.53320000  1.0
  H  H155  1  0.15330000  0.02770000  0.47170000  1.0
  H  H156  1  0.26130000  0.96200000  0.47400000  1.0
  H  H157  1  0.51040000  0.78020000  0.37640000  1.0
  H  H158  1  0.70840000  0.74430000  0.37190000  1.0
  H  H159  1  0.74210000  0.68700000  0.41340000  1.0
  H  H160  1  0.31940000  0.60390000  0.50050000  1.0
  H  H161  1  0.14240000  0.63900000  0.53740000  1.0
  H  H162  1  0.12100000  0.70970000  0.54450000  1.0
  H  H163  1  0.87210000  0.68650000  0.54350000  1.0
  H  H164  1  0.81280000  0.62820000  0.57460000  1.0
  H  H165  1  0.68650000  0.63670000  0.63450000  1.0
  H  H166  1  0.73380000  0.79410000  0.74030000  1.0
  H  H167  1  0.69230000  0.86050000  0.71450000  1.0
  H  H168  1  0.60620000  0.86600000  0.65480000  1.0
  H  H169  1  0.95980000  0.55930000  0.01650000  1.0
  H  H170  1  0.93570000  0.50610000  0.06390000  1.0
  H  H171  1  0.06610000  0.49670000  0.11370000  1.0
  H  H172  1  0.41440000  0.61170000  0.13890000  1.0
  H  H173  1  0.34710000  0.68000000  0.14820000  1.0
  H  H174  1  0.16510000  0.70970000  0.12670000  1.0
  H  H175  1  0.55540000  0.63270000  0.84230000  1.0
  H  H176  1  0.66350000  0.59360000  0.78740000  1.0
  H  H177  1  0.75920000  0.52670000  0.79890000  1.0
  H  H178  1  0.63590000  0.44180000  0.96680000  1.0
  H  H179  1  0.65270000  0.47230000  0.02830000  1.0
  H  H180  1  0.69730000  0.53800000  0.02600000  1.0
  H  H181  1  0.66700000  0.71980000  0.12360000  1.0
  H  H182  1  0.82460000  0.75570000  0.12810000  1.0
  H  H183  1  0.84250000  0.81300000  0.08660000  1.0
  H  H184  1  0.42380000  0.89610000  0.99950000  1.0
  H  H185  1  0.31880000  0.86100000  0.96260000  1.0
  H  H186  1  0.37520000  0.79030000  0.95550000  1.0
  H  H187  1  0.10210000  0.81350000  0.95650000  1.0
  H  H188  1  0.01560000  0.87180000  0.92540000  1.0
  H  H189  1  0.95770000  0.86330000  0.86550000  1.0
  H  H190  1  0.26820000  0.70590000  0.75970000  1.0
  H  H191  1  0.26730000  0.63950000  0.78550000  1.0
  H  H192  1  0.12700000  0.63400000  0.84520000  1.0
  C  C1  1  0.80770000  0.98210000  0.12310000  1.0
  C  C2  1  0.85640000  0.95050000  0.08910000  1.0
  C  C3  1  0.94760000  0.95970000  0.05790000  1.0
  C  C4  1  0.98840000  0.93330000  0.02490000  1.0
  C  C5  1  0.91990000  0.90160000  0.02080000  1.0
  C  C6  1  0.80410000  0.91660000  0.08480000  1.0
  C  C7  1  0.70920000  0.89950000  0.11630000  1.0
  C  C8  1  0.53500000  0.86960000  0.12360000  1.0
  C  C9  1  0.53360000  0.86410000  0.16390000  1.0
  C  C10  1  0.62530000  0.87700000  0.18160000  1.0
  C  C11  1  0.71530000  0.89510000  0.15830000  1.0
  C  C12  1  0.81190000  0.90890000  0.17770000  1.0
  C  C13  1  0.38520000  0.07870000  0.11350000  1.0
  C  C14  1  0.32210000  0.11390000  0.08970000  1.0
  C  C15  1  0.29930000  0.15350000  0.10610000  1.0
  C  C16  1  0.25840000  0.18600000  0.08320000  1.0
  C  C17  1  0.23990000  0.17880000  0.04280000  1.0
  C  C18  1  0.29330000  0.10840000  0.05020000  1.0
  C  C19  1  0.30500000  0.06860000  0.03000000  1.0
  C  C20  1  0.38510000  0.03330000  0.96930000  1.0
  C  C21  1  0.35370000  0.99620000  0.98700000  1.0
  C  C22  1  0.29090000  0.99780000  0.02640000  1.0
  C  C23  1  0.26490000  0.03400000  0.05000000  1.0
  C  C24  1  0.18010000  0.03650000  0.09050000  1.0
  C  C25  1  0.27730000  0.92070000  0.23070000  1.0
  C  C26  1  0.15030000  0.91990000  0.25490000  1.0
  C  C27  1  0.08120000  0.89300000  0.24280000  1.0
  C  C28  1  0.96570000  0.89010000  0.26390000  1.0
  C  C29  1  0.92120000  0.91530000  0.29790000  1.0
  C  C30  1  0.09590000  0.94450000  0.28810000  1.0
  C  C31  1  0.15570000  0.97560000  0.30580000  1.0
  C  C32  1  0.19420000  0.00020000  0.36740000  1.0
  C  C33  1  0.27430000  0.02360000  0.34680000  1.0
  C  C34  1  0.28620000  0.02670000  0.30450000  1.0
  C  C35  1  0.22670000  0.00340000  0.28340000  1.0
  C  C36  1  0.22720000  0.01110000  0.23770000  1.0
  C  C37  1  0.61310000  0.09100000  0.27380000  1.0
  C  C38  1  0.60420000  0.06970000  0.31210000  1.0
  C  C39  1  0.62380000  0.08700000  0.34600000  1.0
  C  C40  1  0.66030000  0.12310000  0.34010000  1.0
  C  C41  1  0.64770000  0.13000000  0.27060000  1.0
  C  C42  1  0.64840000  0.15400000  0.23260000  1.0
  C  C43  1  0.56850000  0.21350000  0.20270000  1.0
  C  C44  1  0.61560000  0.20010000  0.16250000  1.0
  C  C45  1  0.69720000  0.16420000  0.15960000  1.0
  C  C46  1  0.71970000  0.14040000  0.19660000  1.0
  C  C47  1  0.81740000  0.10060000  0.19180000  1.0
  C  C48  1  0.57360000  0.07100000  0.23880000  1.0
  C  C49  1  0.91290000  0.51790000  0.37690000  1.0
  C  C50  1  0.89600000  0.54950000  0.41090000  1.0
  C  C51  1  0.96520000  0.54030000  0.44210000  1.0
  C  C52  1  0.94660000  0.56670000  0.47510000  1.0
  C  C53  1  0.84230000  0.59840000  0.47920000  1.0
  C  C54  1  0.80550000  0.58340000  0.41520000  1.0
  C  C55  1  0.72500000  0.60050000  0.38370000  1.0
  C  C56  1  0.52820000  0.63040000  0.37640000  1.0
  C  C57  1  0.56160000  0.63590000  0.33610000  1.0
  C  C58  1  0.68390000  0.62300000  0.31840000  1.0
  C  C59  1  0.76870000  0.60490000  0.34170000  1.0
  C  C60  1  0.89850000  0.59110000  0.32230000  1.0
  C  C61  1  0.57740000  0.42130000  0.38650000  1.0
  C  C62  1  0.52570000  0.38610000  0.41030000  1.0
  C  C63  1  0.55890000  0.34650000  0.39390000  1.0
  C  C64  1  0.52760000  0.31400000  0.41680000  1.0
  C  C65  1  0.46150000  0.32120000  0.45720000  1.0
  C  C66  1  0.45190000  0.39160000  0.44980000  1.0
  C  C67  1  0.40360000  0.43140000  0.47000000  1.0
  C  C68  1  0.38770000  0.46670000  0.53070000  1.0
  C  C69  1  0.33690000  0.50380000  0.51300000  1.0
  C  C70  1  0.31510000  0.50220000  0.47360000  1.0
  C  C71  1  0.34890000  0.46600000  0.45000000  1.0
  C  C72  1  0.30710000  0.46350000  0.40950000  1.0
  C  C73  1  0.42870000  0.57930000  0.26930000  1.0
  C  C74  1  0.32510000  0.58010000  0.24510000  1.0
  C  C75  1  0.21700000  0.60700000  0.25720000  1.0
  C  C76  1  0.11970000  0.60990000  0.23610000  1.0
  C  C77  1  0.13440000  0.58470000  0.20210000  1.0
  C  C78  1  0.32850000  0.55550000  0.21190000  1.0
  C  C79  1  0.43710000  0.52440000  0.19420000  1.0
  C  C80  1  0.56180000  0.49980000  0.13260000  1.0
  C  C81  1  0.64470000  0.47640000  0.15320000  1.0
  C  C82  1  0.61740000  0.47330000  0.19550000  1.0
  C  C83  1  0.51350000  0.49660000  0.21660000  1.0
  C  C84  1  0.47600000  0.48890000  0.26230000  1.0
  C  C85  1  0.97790000  0.40900000  0.22620000  1.0
  C  C86  1  0.98600000  0.43030000  0.18790000  1.0
  C  C87  1  0.05680000  0.41300000  0.15400000  1.0
  C  C88  1  0.12350000  0.37690000  0.15990000  1.0
  C  C89  1  0.04830000  0.37000000  0.22940000  1.0
  C  C90  1  0.03500000  0.34600000  0.26740000  1.0
  C  C91  1  0.98470000  0.28650000  0.29730000  1.0
  C  C92  1  0.97820000  0.29990000  0.33750000  1.0
  C  C93  1  0.02100000  0.33580000  0.34040000  1.0
  C  C94  1  0.05670000  0.35960000  0.30340000  1.0
  C  C95  1  0.10980000  0.39940000  0.30820000  1.0
  C  C96  1  0.88340000  0.42900000  0.26120000  1.0
  C  C97  1  0.28980000  0.12310000  0.51790000  1.0
  C  C98  1  0.30690000  0.08910000  0.54950000  1.0
  C  C99  1  0.40730000  0.05790000  0.54030000  1.0
  C  C100  1  0.42170000  0.02490000  0.56670000  1.0
  C  C101  1  0.32150000  0.02080000  0.59840000  1.0
  C  C102  1  0.22070000  0.08480000  0.58340000  1.0
  C  C103  1  0.10870000  0.11630000  0.60050000  1.0
  C  C104  1  0.90460000  0.12360000  0.63040000  1.0
  C  C105  1  0.89770000  0.16390000  0.63590000  1.0
  C  C106  1  0.00230000  0.18160000  0.62300000  1.0
  C  C107  1  0.11040000  0.15830000  0.60490000  1.0
  C  C108  1  0.22080000  0.17770000  0.59110000  1.0
  C  C109  1  0.96390000  0.11350000  0.42130000  1.0
  C  C110  1  0.93600000  0.08970000  0.38610000  1.0
  C  C111  1  0.95280000  0.10610000  0.34650000  1.0
  C  C112  1  0.94440000  0.08320000  0.31400000  1.0
  C  C113  1  0.91870000  0.04280000  0.32120000  1.0
  C  C114  1  0.90170000  0.05020000  0.39160000  1.0
  C  C115  1  0.87360000  0.03000000  0.43140000  1.0
  C  C116  1  0.91840000  0.96930000  0.46670000  1.0
  C  C117  1  0.84990000  0.98700000  0.50380000  1.0
  C  C118  1  0.78870000  0.02640000  0.50220000  1.0
  C  C119  1  0.79890000  0.05000000  0.46600000  1.0
  C  C120  1  0.71660000  0.09050000  0.46350000  1.0
  C  C121  1  0.69800000  0.23070000  0.57930000  1.0
  C  C122  1  0.57020000  0.25490000  0.58010000  1.0
  C  C123  1  0.47420000  0.24280000  0.60700000  1.0
  C  C124  1  0.35580000  0.26390000  0.60990000  1.0
  C  C125  1  0.33650000  0.29790000  0.58470000  1.0
  C  C126  1  0.54040000  0.28810000  0.55550000  1.0
  C  C127  1  0.63130000  0.30580000  0.52440000  1.0
  C  C128  1  0.69440000  0.36740000  0.49980000  1.0
  C  C129  1  0.79790000  0.34680000  0.47640000  1.0
  C  C130  1  0.81290000  0.30450000  0.47330000  1.0
  C  C131  1  0.73010000  0.28340000  0.49660000  1.0
  C  C132  1  0.73830000  0.23770000  0.48890000  1.0
  C  C133  1  0.20410000  0.27380000  0.40900000  1.0
  C  C134  1  0.17390000  0.31210000  0.43030000  1.0
  C  C135  1  0.21080000  0.34600000  0.41300000  1.0
  C  C136  1  0.28340000  0.34010000  0.37690000  1.0
  C  C137  1  0.27770000  0.27060000  0.37000000  1.0
  C  C138  1  0.30240000  0.23260000  0.34600000  1.0
  C  C139  1  0.28200000  0.20270000  0.28650000  1.0
  C  C140  1  0.31570000  0.16250000  0.29990000  1.0
  C  C141  1  0.36140000  0.15960000  0.33580000  1.0
  C  C142  1  0.36010000  0.19660000  0.35960000  1.0
  C  C143  1  0.41800000  0.19180000  0.39940000  1.0
  C  C144  1  0.14460000  0.23880000  0.42900000  1.0
  C  C145  1  0.93080000  0.37690000  0.98210000  1.0
  C  C146  1  0.94550000  0.41090000  0.95050000  1.0
  C  C147  1  0.00550000  0.44210000  0.95970000  1.0
  C  C148  1  0.01330000  0.47510000  0.93330000  1.0
  C  C149  1  0.94070000  0.47920000  0.90160000  1.0
  C  C150  1  0.88890000  0.41520000  0.91660000  1.0
  C  C151  1  0.82550000  0.38370000  0.89950000  1.0
  C  C152  1  0.65860000  0.37640000  0.86960000  1.0
  C  C153  1  0.69750000  0.33610000  0.86410000  1.0
  C  C154  1  0.80690000  0.31840000  0.87700000  1.0
  C  C155  1  0.87360000  0.34170000  0.89510000  1.0
  C  C156  1  0.98960000  0.32230000  0.90890000  1.0
  C  C157  1  0.49870000  0.38650000  0.07870000  1.0
  C  C158  1  0.41180000  0.41030000  0.11390000  1.0
  C  C159  1  0.40540000  0.39390000  0.15350000  1.0
  C  C160  1  0.34160000  0.41680000  0.18600000  1.0
  C  C161  1  0.28270000  0.45720000  0.17880000  1.0
  C  C162  1  0.34350000  0.44980000  0.10840000  1.0
  C  C163  1  0.33500000  0.47000000  0.06860000  1.0
  C  C164  1  0.35440000  0.53070000  0.03330000  1.0
  C  C165  1  0.34070000  0.51300000  0.99620000  1.0
  C  C166  1  0.31730000  0.47360000  0.99780000  1.0
  C  C167  1  0.31490000  0.45000000  0.03400000  1.0
  C  C168  1  0.27060000  0.40950000  0.03650000  1.0
  C  C169  1  0.50800000  0.26930000  0.92070000  1.0
  C  C170  1  0.40520000  0.24510000  0.91990000  1.0
  C  C171  1  0.32400000  0.25720000  0.89300000  1.0
  C  C172  1  0.22960000  0.23610000  0.89010000  1.0
  C  C173  1  0.21910000  0.20210000  0.91530000  1.0
  C  C174  1  0.38400000  0.21190000  0.94450000  1.0
  C  C175  1  0.46150000  0.19420000  0.97560000  1.0
  C  C176  1  0.56160000  0.13260000  0.00020000  1.0
  C  C177  1  0.62110000  0.15320000  0.02360000  1.0
  C  C178  1  0.59070000  0.19550000  0.02670000  1.0
  C  C179  1  0.51010000  0.21660000  0.00340000  1.0
  C  C180  1  0.46490000  0.26230000  0.01110000  1.0
  C  C181  1  0.88690000  0.22620000  0.09100000  1.0
  C  C182  1  0.91630000  0.18790000  0.06970000  1.0
  C  C183  1  0.96980000  0.15400000  0.08700000  1.0
  C  C184  1  0.00040000  0.15990000  0.12310000  1.0
  C  C185  1  0.91830000  0.22940000  0.13000000  1.0
  C  C186  1  0.88100000  0.26740000  0.15400000  1.0
  C  C187  1  0.77120000  0.29730000  0.21350000  1.0
  C  C188  1  0.77810000  0.33750000  0.20010000  1.0
  C  C189  1  0.85680000  0.34040000  0.16420000  1.0
  C  C190  1  0.91630000  0.30340000  0.14040000  1.0
  C  C191  1  0.00920000  0.30820000  0.10060000  1.0
  C  C192  1  0.81240000  0.26120000  0.07100000  1.0
  C  C193  1  0.19230000  0.01790000  0.87690000  1.0
  C  C194  1  0.14360000  0.04950000  0.91090000  1.0
  C  C195  1  0.05240000  0.04030000  0.94210000  1.0
  C  C196  1  0.01160000  0.06670000  0.97510000  1.0
  C  C197  1  0.08010000  0.09840000  0.97920000  1.0
  C  C198  1  0.19590000  0.08340000  0.91520000  1.0
  C  C199  1  0.29080000  0.10050000  0.88370000  1.0
  C  C200  1  0.46500000  0.13040000  0.87640000  1.0
  C  C201  1  0.46640000  0.13590000  0.83610000  1.0
  C  C202  1  0.37470000  0.12300000  0.81840000  1.0
  C  C203  1  0.28470000  0.10490000  0.84170000  1.0
  C  C204  1  0.18810000  0.09110000  0.82230000  1.0
  C  C205  1  0.61480000  0.92130000  0.88650000  1.0
  C  C206  1  0.67790000  0.88610000  0.91030000  1.0
  C  C207  1  0.70070000  0.84650000  0.89390000  1.0
  C  C208  1  0.74160000  0.81400000  0.91680000  1.0
  C  C209  1  0.76010000  0.82120000  0.95720000  1.0
  C  C210  1  0.70670000  0.89160000  0.94980000  1.0
  C  C211  1  0.69500000  0.93140000  0.97000000  1.0
  C  C212  1  0.61490000  0.96670000  0.03070000  1.0
  C  C213  1  0.64630000  0.00380000  0.01300000  1.0
  C  C214  1  0.70910000  0.00220000  0.97360000  1.0
  C  C215  1  0.73510000  0.96600000  0.95000000  1.0
  C  C216  1  0.81990000  0.96350000  0.90950000  1.0
  C  C217  1  0.72270000  0.07930000  0.76930000  1.0
  C  C218  1  0.84970000  0.08010000  0.74510000  1.0
  C  C219  1  0.91880000  0.10700000  0.75720000  1.0
  C  C220  1  0.03430000  0.10990000  0.73610000  1.0
  C  C221  1  0.07880000  0.08470000  0.70210000  1.0
  C  C222  1  0.90410000  0.05550000  0.71190000  1.0
  C  C223  1  0.84430000  0.02440000  0.69420000  1.0
  C  C224  1  0.80580000  0.99980000  0.63260000  1.0
  C  C225  1  0.72570000  0.97640000  0.65320000  1.0
  C  C226  1  0.71380000  0.97330000  0.69550000  1.0
  C  C227  1  0.77330000  0.99660000  0.71660000  1.0
  C  C228  1  0.77280000  0.98890000  0.76230000  1.0
  C  C229  1  0.38690000  0.90900000  0.72620000  1.0
  C  C230  1  0.39580000  0.93030000  0.68790000  1.0
  C  C231  1  0.37620000  0.91300000  0.65400000  1.0
  C  C232  1  0.33970000  0.87690000  0.65990000  1.0
  C  C233  1  0.35230000  0.87000000  0.72940000  1.0
  C  C234  1  0.35160000  0.84600000  0.76740000  1.0
  C  C235  1  0.43150000  0.78650000  0.79730000  1.0
  C  C236  1  0.38440000  0.79990000  0.83750000  1.0
  C  C237  1  0.30280000  0.83580000  0.84040000  1.0
  C  C238  1  0.28030000  0.85960000  0.80340000  1.0
  C  C239  1  0.18260000  0.89940000  0.80820000  1.0
  C  C240  1  0.42640000  0.92900000  0.76120000  1.0
  C  C241  1  0.08710000  0.48210000  0.62310000  1.0
  C  C242  1  0.10400000  0.45050000  0.58910000  1.0
  C  C243  1  0.03480000  0.45970000  0.55790000  1.0
  C  C244  1  0.05340000  0.43330000  0.52490000  1.0
  C  C245  1  0.15770000  0.40160000  0.52080000  1.0
  C  C246  1  0.19450000  0.41660000  0.58480000  1.0
  C  C247  1  0.27500000  0.39950000  0.61630000  1.0
  C  C248  1  0.47180000  0.36960000  0.62360000  1.0
  C  C249  1  0.43840000  0.36410000  0.66390000  1.0
  C  C250  1  0.31610000  0.37700000  0.68160000  1.0
  C  C251  1  0.23130000  0.39510000  0.65830000  1.0
  C  C252  1  0.10150000  0.40890000  0.67770000  1.0
  C  C253  1  0.42260000  0.57870000  0.61350000  1.0
  C  C254  1  0.47430000  0.61390000  0.58970000  1.0
  C  C255  1  0.44110000  0.65350000  0.60610000  1.0
  C  C256  1  0.47240000  0.68600000  0.58320000  1.0
  C  C257  1  0.53850000  0.67880000  0.54280000  1.0
  C  C258  1  0.54810000  0.60840000  0.55020000  1.0
  C  C259  1  0.59640000  0.56860000  0.53000000  1.0
  C  C260  1  0.61230000  0.53330000  0.46930000  1.0
  C  C261  1  0.66310000  0.49620000  0.48700000  1.0
  C  C262  1  0.68490000  0.49780000  0.52640000  1.0
  C  C263  1  0.65110000  0.53400000  0.55000000  1.0
  C  C264  1  0.69290000  0.53650000  0.59050000  1.0
  C  C265  1  0.57130000  0.42070000  0.73070000  1.0
  C  C266  1  0.67490000  0.41990000  0.75490000  1.0
  C  C267  1  0.78300000  0.39300000  0.74280000  1.0
  C  C268  1  0.88030000  0.39010000  0.76390000  1.0
  C  C269  1  0.86560000  0.41530000  0.79790000  1.0
  C  C270  1  0.67150000  0.44450000  0.78810000  1.0
  C  C271  1  0.56290000  0.47560000  0.80580000  1.0
  C  C272  1  0.43820000  0.50020000  0.86740000  1.0
  C  C273  1  0.35530000  0.52360000  0.84680000  1.0
  C  C274  1  0.38260000  0.52670000  0.80450000  1.0
  C  C275  1  0.48650000  0.50340000  0.78340000  1.0
  C  C276  1  0.52400000  0.51110000  0.73770000  1.0
  C  C277  1  0.02210000  0.59100000  0.77380000  1.0
  C  C278  1  0.01400000  0.56970000  0.81210000  1.0
  C  C279  1  0.94320000  0.58700000  0.84600000  1.0
  C  C280  1  0.87650000  0.62310000  0.84010000  1.0
  C  C281  1  0.95170000  0.63000000  0.77060000  1.0
  C  C282  1  0.96500000  0.65400000  0.73260000  1.0
  C  C283  1  0.01530000  0.71350000  0.70270000  1.0
  C  C284  1  0.02180000  0.70010000  0.66250000  1.0
  C  C285  1  0.97900000  0.66420000  0.65960000  1.0
  C  C286  1  0.94330000  0.64040000  0.69660000  1.0
  C  C287  1  0.89020000  0.60060000  0.69180000  1.0
  C  C288  1  0.11660000  0.57100000  0.73880000  1.0
  C  C289  1  0.71020000  0.87690000  0.48210000  1.0
  C  C290  1  0.69310000  0.91090000  0.45050000  1.0
  C  C291  1  0.59270000  0.94210000  0.45970000  1.0
  C  C292  1  0.57830000  0.97510000  0.43330000  1.0
  C  C293  1  0.67850000  0.97920000  0.40160000  1.0
  C  C294  1  0.77930000  0.91520000  0.41660000  1.0
  C  C295  1  0.89130000  0.88370000  0.39950000  1.0
  C  C296  1  0.09540000  0.87640000  0.36960000  1.0
  C  C297  1  0.10230000  0.83610000  0.36410000  1.0
  C  C298  1  0.99770000  0.81840000  0.37700000  1.0
  C  C299  1  0.88960000  0.84170000  0.39510000  1.0
  C  C300  1  0.77920000  0.82230000  0.40890000  1.0
  C  C301  1  0.03610000  0.88650000  0.57870000  1.0
  C  C302  1  0.06400000  0.91030000  0.61390000  1.0
  C  C303  1  0.04720000  0.89390000  0.65350000  1.0
  C  C304  1  0.05560000  0.91680000  0.68600000  1.0
  C  C305  1  0.08130000  0.95720000  0.67880000  1.0
  C  C306  1  0.09830000  0.94980000  0.60840000  1.0
  C  C307  1  0.12640000  0.97000000  0.56860000  1.0
  C  C308  1  0.08160000  0.03070000  0.53330000  1.0
  C  C309  1  0.15010000  0.01300000  0.49620000  1.0
  C  C310  1  0.21130000  0.97360000  0.49780000  1.0
  C  C311  1  0.20110000  0.95000000  0.53400000  1.0
  C  C312  1  0.28340000  0.90950000  0.53650000  1.0
  C  C313  1  0.30200000  0.76930000  0.42070000  1.0
  C  C314  1  0.42980000  0.74510000  0.41990000  1.0
  C  C315  1  0.52580000  0.75720000  0.39300000  1.0
  C  C316  1  0.64420000  0.73610000  0.39010000  1.0
  C  C317  1  0.66350000  0.70210000  0.41530000  1.0
  C  C318  1  0.45960000  0.71190000  0.44450000  1.0
  C  C319  1  0.36870000  0.69420000  0.47560000  1.0
  C  C320  1  0.30560000  0.63260000  0.50020000  1.0
  C  C321  1  0.20210000  0.65320000  0.52360000  1.0
  C  C322  1  0.18710000  0.69550000  0.52670000  1.0
  C  C323  1  0.26990000  0.71660000  0.50340000  1.0
  C  C324  1  0.26170000  0.76230000  0.51110000  1.0
  C  C325  1  0.79590000  0.72620000  0.59100000  1.0
  C  C326  1  0.82610000  0.68790000  0.56970000  1.0
  C  C327  1  0.78920000  0.65400000  0.58700000  1.0
  C  C328  1  0.71660000  0.65990000  0.62310000  1.0
  C  C329  1  0.72230000  0.72940000  0.63000000  1.0
  C  C330  1  0.69760000  0.76740000  0.65400000  1.0
  C  C331  1  0.71800000  0.79730000  0.71350000  1.0
  C  C332  1  0.68430000  0.83750000  0.70010000  1.0
  C  C333  1  0.63860000  0.84040000  0.66420000  1.0
  C  C334  1  0.63990000  0.80340000  0.64040000  1.0
  C  C335  1  0.58200000  0.80820000  0.60060000  1.0
  C  C336  1  0.85540000  0.76120000  0.57100000  1.0
  C  C337  1  0.06920000  0.62310000  0.01790000  1.0
  C  C338  1  0.05450000  0.58910000  0.04950000  1.0
  C  C339  1  0.99450000  0.55790000  0.04030000  1.0
  C  C340  1  0.98670000  0.52490000  0.06670000  1.0
  C  C341  1  0.05930000  0.52080000  0.09840000  1.0
  C  C342  1  0.11110000  0.58480000  0.08340000  1.0
  C  C343  1  0.17450000  0.61630000  0.10050000  1.0
  C  C344  1  0.34140000  0.62360000  0.13040000  1.0
  C  C345  1  0.30250000  0.66390000  0.13590000  1.0
  C  C346  1  0.19310000  0.68160000  0.12300000  1.0
  C  C347  1  0.12640000  0.65830000  0.10490000  1.0
  C  C348  1  0.01040000  0.67770000  0.09110000  1.0
  C  C349  1  0.50130000  0.61350000  0.92130000  1.0
  C  C350  1  0.58820000  0.58970000  0.88610000  1.0
  C  C351  1  0.59460000  0.60610000  0.84650000  1.0
  C  C352  1  0.65840000  0.58320000  0.81400000  1.0
  C  C353  1  0.71730000  0.54280000  0.82120000  1.0
  C  C354  1  0.65650000  0.55020000  0.89160000  1.0
  C  C355  1  0.66500000  0.53000000  0.93140000  1.0
  C  C356  1  0.64560000  0.46930000  0.96670000  1.0
  C  C357  1  0.65930000  0.48700000  0.00380000  1.0
  C  C358  1  0.68270000  0.52640000  0.00220000  1.0
  C  C359  1  0.68510000  0.55000000  0.96600000  1.0
  C  C360  1  0.72940000  0.59050000  0.96350000  1.0
  C  C361  1  0.49200000  0.73070000  0.07930000  1.0
  C  C362  1  0.59480000  0.75490000  0.08010000  1.0
  C  C363  1  0.67600000  0.74280000  0.10700000  1.0
  C  C364  1  0.77040000  0.76390000  0.10990000  1.0
  C  C365  1  0.78090000  0.79790000  0.08470000  1.0
  C  C366  1  0.61600000  0.78810000  0.05550000  1.0
  C  C367  1  0.53850000  0.80580000  0.02440000  1.0
  C  C368  1  0.43840000  0.86740000  0.99980000  1.0
  C  C369  1  0.37890000  0.84680000  0.97640000  1.0
  C  C370  1  0.40930000  0.80450000  0.97330000  1.0
  C  C371  1  0.48990000  0.78340000  0.99660000  1.0
  C  C372  1  0.53510000  0.73770000  0.98890000  1.0
  C  C373  1  0.11310000  0.77380000  0.90900000  1.0
  C  C374  1  0.08370000  0.81210000  0.93030000  1.0
  C  C375  1  0.03020000  0.84600000  0.91300000  1.0
  C  C376  1  0.99960000  0.84010000  0.87690000  1.0
  C  C377  1  0.08170000  0.77060000  0.87000000  1.0
  C  C378  1  0.11900000  0.73260000  0.84600000  1.0
  C  C379  1  0.22880000  0.70270000  0.78650000  1.0
  C  C380  1  0.22190000  0.66250000  0.79990000  1.0
  C  C381  1  0.14320000  0.65960000  0.83580000  1.0
  C  C382  1  0.08370000  0.69660000  0.85960000  1.0
  C  C383  1  0.99080000  0.69180000  0.89940000  1.0
  C  C384  1  0.18760000  0.73880000  0.92900000  1.0
  N  N1  1  0.83230000  0.89320000  0.05040000  1.0
  N  N2  1  0.62190000  0.88720000  0.09900000  1.0
  N  N3  1  0.36350000  0.06840000  0.99020000  1.0
  N  N4  1  0.25810000  0.14160000  0.02720000  1.0
  N  N5  1  0.98460000  0.94220000  0.30960000  1.0
  N  N6  1  0.13470000  0.97650000  0.34770000  1.0
  N  N7  1  0.67460000  0.14660000  0.30540000  1.0
  N  N8  1  0.57790000  0.19200000  0.23700000  1.0
  N  N9  1  0.77590000  0.60680000  0.44960000  1.0
  N  N10  1  0.60810000  0.61280000  0.40100000  1.0
  N  N11  1  0.42210000  0.43160000  0.50980000  1.0
  N  N12  1  0.42690000  0.35840000  0.47280000  1.0
  N  N13  1  0.23640000  0.55780000  0.19040000  1.0
  N  N14  1  0.45890000  0.52350000  0.15230000  1.0
  N  N15  1  0.12660000  0.35340000  0.19460000  1.0
  N  N16  1  0.00690000  0.30800000  0.26300000  1.0
  N  N17  1  0.22550000  0.05040000  0.60680000  1.0
  N  N18  1  0.00910000  0.09900000  0.61280000  1.0
  N  N19  1  0.93190000  0.99020000  0.43160000  1.0
  N  N20  1  0.89970000  0.02720000  0.35840000  1.0
  N  N21  1  0.42680000  0.30960000  0.55780000  1.0
  N  N22  1  0.61120000  0.34770000  0.52350000  1.0
  N  N23  1  0.32120000  0.30540000  0.35340000  1.0
  N  N24  1  0.26990000  0.23700000  0.30800000  1.0
  N  N25  1  0.88270000  0.44960000  0.89320000  1.0
  N  N26  1  0.72090000  0.40100000  0.88720000  1.0
  N  N27  1  0.35370000  0.50980000  0.06840000  1.0
  N  N28  1  0.28530000  0.47280000  0.14160000  1.0
  N  N29  1  0.29420000  0.19040000  0.94220000  1.0
  N  N30  1  0.48240000  0.15230000  0.97650000  1.0
  N  N31  1  0.98000000  0.19460000  0.14660000  1.0
  N  N32  1  0.81490000  0.26300000  0.19200000  1.0
  N  N33  1  0.16770000  0.10680000  0.94960000  1.0
  N  N34  1  0.37810000  0.11280000  0.90100000  1.0
  N  N35  1  0.63650000  0.93160000  0.00980000  1.0
  N  N36  1  0.74190000  0.85840000  0.97280000  1.0
  N  N37  1  0.01540000  0.05780000  0.69040000  1.0
  N  N38  1  0.86530000  0.02350000  0.65230000  1.0
  N  N39  1  0.32540000  0.85340000  0.69460000  1.0
  N  N40  1  0.42210000  0.80800000  0.76300000  1.0
  N  N41  1  0.22410000  0.39320000  0.55040000  1.0
  N  N42  1  0.39190000  0.38720000  0.59900000  1.0
  N  N43  1  0.57790000  0.56840000  0.49020000  1.0
  N  N44  1  0.57310000  0.64160000  0.52720000  1.0
  N  N45  1  0.76360000  0.44220000  0.80960000  1.0
  N  N46  1  0.54110000  0.47650000  0.84770000  1.0
  N  N47  1  0.87340000  0.64660000  0.80540000  1.0
  N  N48  1  0.99310000  0.69200000  0.73700000  1.0
  N  N49  1  0.77450000  0.94960000  0.39320000  1.0
  N  N50  1  0.99090000  0.90100000  0.38720000  1.0
  N  N51  1  0.06810000  0.00980000  0.56840000  1.0
  N  N52  1  0.10030000  0.97280000  0.64160000  1.0
  N  N53  1  0.57320000  0.69040000  0.44220000  1.0
  N  N54  1  0.38880000  0.65230000  0.47650000  1.0
  N  N55  1  0.67880000  0.69460000  0.64660000  1.0
  N  N56  1  0.73010000  0.76300000  0.69200000  1.0
  N  N57  1  0.11730000  0.55040000  0.10680000  1.0
  N  N58  1  0.27910000  0.59900000  0.11280000  1.0
  N  N59  1  0.64630000  0.49020000  0.93160000  1.0
  N  N60  1  0.71470000  0.52720000  0.85840000  1.0
  N  N61  1  0.70580000  0.80960000  0.05780000  1.0
  N  N62  1  0.51760000  0.84770000  0.02350000  1.0
  N  N63  1  0.02000000  0.80540000  0.85340000  1.0
  N  N64  1  0.18510000  0.73700000  0.80800000  1.0
  O  O1  1  0.35801000  0.08277000  0.15341000  1.0
  O  O2  1  0.45880000  0.05070000  0.09650000  1.0
  O  O3  1  0.07530000  0.05730000  0.09370000  1.0
  O  O4  1  0.21590000  0.01393000  0.11967000  1.0
  O  O5  1  0.88018000  0.00330000  0.13194000  1.0
  O  O6  1  0.69582000  0.98486000  0.13790000  1.0
  O  O7  1  0.92164000  0.89997000  0.16055000  1.0
  O  O8  1  0.77738000  0.92798000  0.21086000  1.0
  O  O9  1  0.28612000  0.92231000  0.19185000  1.0
  O  O10  1  0.36309000  0.92133000  0.25009000  1.0
  O  O11  1  0.13081000  0.00717000  0.22521000  1.0
  O  O12  1  0.31974000  0.02237000  0.21735000  1.0
  O  O13  1  0.64280000  0.03990000  0.22350000  1.0
  O  O14  1  0.47820000  0.08540000  0.22600000  1.0
  O  O15  1  0.84830000  0.08680000  0.15780000  1.0
  O  O16  1  0.87200000  0.08900000  0.22160000  1.0
  O  O17  1  0.59419000  0.41723000  0.34659000  1.0
  O  O18  1  0.60600000  0.44930000  0.40350000  1.0
  O  O19  1  0.22630000  0.44270000  0.40630000  1.0
  O  O20  1  0.34950000  0.48607000  0.38033000  1.0
  O  O21  1  0.01542000  0.49670000  0.36806000  1.0
  O  O22  1  0.81858000  0.51514000  0.36210000  1.0
  O  O23  1  0.98216000  0.60003000  0.33945000  1.0
  O  O24  1  0.91622000  0.57202000  0.28914000  1.0
  O  O25  1  0.40028000  0.57769000  0.30815000  1.0
  O  O26  1  0.53451000  0.57867000  0.24991000  1.0
  O  O27  1  0.36319000  0.49283000  0.27479000  1.0
  O  O28  1  0.55946000  0.47763000  0.28265000  1.0
  O  O29  1  0.90620000  0.46010000  0.27650000  1.0
  O  O30  1  0.78960000  0.41460000  0.27400000  1.0
  O  O31  1  0.09290000  0.41320000  0.34220000  1.0
  O  O32  1  0.18260000  0.41100000  0.27840000  1.0
  O  O33  1  0.94078000  0.15341000  0.41723000  1.0
  O  O34  1  0.00950000  0.09650000  0.44930000  1.0
  O  O35  1  0.63260000  0.09370000  0.44270000  1.0
  O  O36  1  0.72983000  0.11967000  0.48607000  1.0
  O  O37  1  0.38348000  0.13194000  0.49670000  1.0
  O  O38  1  0.18068000  0.13790000  0.51514000  1.0
  O  O39  1  0.32161000  0.16055000  0.60003000  1.0
  O  O40  1  0.20536000  0.21086000  0.57202000  1.0
  O  O41  1  0.70843000  0.19185000  0.57769000  1.0
  O  O42  1  0.78442000  0.25009000  0.57867000  1.0
  O  O43  1  0.63798000  0.22521000  0.49283000  1.0
  O  O44  1  0.84211000  0.21735000  0.47763000  1.0
  O  O45  1  0.18270000  0.22350000  0.46010000  1.0
  O  O46  1  0.06360000  0.22600000  0.41460000  1.0
  O  O47  1  0.43510000  0.15780000  0.41320000  1.0
  O  O48  1  0.46100000  0.22160000  0.41100000  1.0
  O  O49  1  0.51142000  0.34659000  0.08277000  1.0
  O  O50  1  0.55530000  0.40350000  0.05070000  1.0
  O  O51  1  0.16900000  0.40630000  0.05730000  1.0
  O  O52  1  0.33557000  0.38033000  0.01393000  1.0
  O  O53  1  0.01212000  0.36806000  0.00330000  1.0
  O  O54  1  0.83372000  0.36210000  0.98486000  1.0
  O  O55  1  0.08219000  0.33945000  0.89997000  1.0
  O  O56  1  0.98824000  0.28914000  0.92798000  1.0
  O  O57  1  0.47797000  0.30815000  0.92231000  1.0
  O  O58  1  0.61318000  0.24991000  0.92133000  1.0
  O  O59  1  0.35602000  0.27479000  0.00717000  1.0
  O  O60  1  0.53709000  0.28265000  0.02237000  1.0
  O  O61  1  0.86630000  0.27650000  0.03990000  1.0
  O  O62  1  0.70420000  0.27400000  0.08540000  1.0
  O  O63  1  0.00610000  0.34220000  0.08680000  1.0
  O  O64  1  0.09360000  0.27840000  0.08900000  1.0
  O  O65  1  0.64199000  0.91723000  0.84659000  1.0
  O  O66  1  0.54120000  0.94930000  0.90350000  1.0
  O  O67  1  0.92470000  0.94270000  0.90630000  1.0
  O  O68  1  0.78410000  0.98607000  0.88033000  1.0
  O  O69  1  0.11982000  0.99670000  0.86806000  1.0
  O  O70  1  0.30418000  0.01514000  0.86210000  1.0
  O  O71  1  0.07836000  0.10003000  0.83945000  1.0
  O  O72  1  0.22262000  0.07202000  0.78914000  1.0
  O  O73  1  0.71388000  0.07769000  0.80815000  1.0
  O  O74  1  0.63691000  0.07867000  0.74991000  1.0
  O  O75  1  0.86919000  0.99283000  0.77479000  1.0
  O  O76  1  0.68026000  0.97763000  0.78265000  1.0
  O  O77  1  0.35720000  0.96010000  0.77650000  1.0
  O  O78  1  0.52180000  0.91460000  0.77400000  1.0
  O  O79  1  0.15170000  0.91320000  0.84220000  1.0
  O  O80  1  0.12800000  0.91100000  0.77840000  1.0
  O  O81  1  0.40581000  0.58277000  0.65341000  1.0
  O  O82  1  0.39400000  0.55070000  0.59650000  1.0
  O  O83  1  0.77370000  0.55730000  0.59370000  1.0
  O  O84  1  0.65050000  0.51393000  0.61967000  1.0
  O  O85  1  0.98458000  0.50330000  0.63194000  1.0
  O  O86  1  0.18142000  0.48486000  0.63790000  1.0
  O  O87  1  0.01784000  0.39997000  0.66055000  1.0
  O  O88  1  0.08378000  0.42798000  0.71086000  1.0
  O  O89  1  0.59972000  0.42231000  0.69185000  1.0
  O  O90  1  0.46549000  0.42133000  0.75009000  1.0
  O  O91  1  0.63681000  0.50717000  0.72521000  1.0
  O  O92  1  0.44054000  0.52237000  0.71735000  1.0
  O  O93  1  0.09380000  0.53990000  0.72350000  1.0
  O  O94  1  0.21040000  0.58540000  0.72600000  1.0
  O  O95  1  0.90710000  0.58680000  0.65780000  1.0
  O  O96  1  0.81740000  0.58900000  0.72160000  1.0
  O  O97  1  0.05922000  0.84659000  0.58277000  1.0
  O  O98  1  0.99050000  0.90350000  0.55070000  1.0
  O  O99  1  0.36740000  0.90630000  0.55730000  1.0
  O  O100  1  0.27017000  0.88033000  0.51393000  1.0
  O  O101  1  0.61652000  0.86806000  0.50330000  1.0
  O  O102  1  0.81932000  0.86210000  0.48486000  1.0
  O  O103  1  0.67839000  0.83945000  0.39997000  1.0
  O  O104  1  0.79464000  0.78914000  0.42798000  1.0
  O  O105  1  0.29157000  0.80815000  0.42231000  1.0
  O  O106  1  0.21558000  0.74991000  0.42133000  1.0
  O  O107  1  0.36202000  0.77479000  0.50717000  1.0
  O  O108  1  0.15789000  0.78265000  0.52237000  1.0
  O  O109  1  0.81730000  0.77650000  0.53990000  1.0
  O  O110  1  0.93640000  0.77400000  0.58540000  1.0
  O  O111  1  0.56490000  0.84220000  0.58680000  1.0
  O  O112  1  0.53900000  0.77840000  0.58900000  1.0
  O  O113  1  0.48858000  0.65341000  0.91723000  1.0
  O  O114  1  0.44470000  0.59650000  0.94930000  1.0
  O  O115  1  0.83100000  0.59370000  0.94270000  1.0
  O  O116  1  0.66443000  0.61967000  0.98607000  1.0
  O  O117  1  0.98788000  0.63194000  0.99670000  1.0
  O  O118  1  0.16628000  0.63790000  0.01514000  1.0
  O  O119  1  0.91781000  0.66055000  0.10003000  1.0
  O  O120  1  0.01176000  0.71086000  0.07202000  1.0
  O  O121  1  0.52203000  0.69185000  0.07769000  1.0
  O  O122  1  0.38682000  0.75009000  0.07867000  1.0
  O  O123  1  0.64398000  0.72521000  0.99283000  1.0
  O  O124  1  0.46291000  0.71735000  0.97763000  1.0
  O  O125  1  0.13370000  0.72350000  0.96010000  1.0
  O  O126  1  0.29580000  0.72600000  0.91460000  1.0
  O  O127  1  0.99390000  0.65780000  0.91320000  1.0
  O  O128  1  0.90640000  0.72160000  0.91100000  1.0
