# generated using pymatgen
data_H10C11O2
_symmetry_space_group_name_H-M   'P 1'
_cell_length_a   29.92610000
_cell_length_b   39.54850000
_cell_length_c   39.54850000
_cell_angle_alpha   90.00000000
_cell_angle_beta   90.00000000
_cell_angle_gamma   90.00000000
_symmetry_Int_Tables_number   1
_chemical_formula_structural   H10C11O2
_chemical_formula_sum   'H640 C704 O128'
_cell_volume   46806.92977082
_cell_formula_units_Z   64
loop_
 _symmetry_equiv_pos_site_id
 _symmetry_equiv_pos_as_xyz
  1  'x, y, z'
loop_
 _atom_site_type_symbol
 _atom_site_label
 _atom_site_symmetry_multiplicity
 _atom_site_fract_x
 _atom_site_fract_y
 _atom_site_fract_z
 _atom_site_occupancy
  H  5  1  0.21599200  0.08521900  0.29065100  1
  H  6  1  0.17182600  0.08549200  0.31986800  1
  H  9  1  0.12305700  0.13784200  0.32604300  1
  H  10  1  0.12925400  0.17358000  0.30063600  1
  H  11  1  0.09158300  0.08380700  0.29837000  1
  H  12  1  0.07895400  0.08351600  0.25478600  1
  H  15  1  0.11842200  0.17123100  0.23642100  1
  H  16  1  0.09313000  0.13492300  0.21932500  1
  H  18  1  0.19851600  0.17075200  0.25369600  1
  H  19  1  0.23058600  0.13358200  0.25282600  1
  H  21  1  0.14214600  0.07925200  0.21214800  1
  H  22  1  0.19823600  0.08102500  0.22467800  1
  H  27  1  0.21598300  0.91711700  0.71164300  1
  H  28  1  0.17179900  0.91684400  0.68244000  1
  H  31  1  0.12301400  0.86449500  0.67629600  1
  H  32  1  0.12921600  0.82876500  0.70171000  1
  H  33  1  0.09156900  0.91853500  0.70397100  1
  H  34  1  0.07897100  0.91884400  0.74755800  1
  H  37  1  0.11843400  0.83112600  0.76593000  1
  H  38  1  0.09316900  0.86744400  0.78303100  1
  H  40  1  0.19851400  0.83158900  0.74861000  1
  H  41  1  0.23059900  0.86875100  0.74946400  1
  H  43  1  0.14219600  0.92309900  0.79017400  1
  H  44  1  0.19827500  0.92132200  0.77761700  1
  H  49  1  0.21600600  0.71163800  0.08520200  1
  H  50  1  0.17182500  0.68243300  0.08547800  1
  H  53  1  0.12304300  0.67629400  0.13783100  1
  H  54  1  0.12925200  0.70171000  0.17356000  1
  H  55  1  0.09159200  0.70396300  0.08378700  1
  H  56  1  0.07899700  0.74755000  0.08347700  1
  H  59  1  0.11846200  0.76592500  0.17119500  1
  H  60  1  0.09319200  0.78302300  0.13487800  1
  H  62  1  0.19854600  0.74860700  0.17073100  1
  H  63  1  0.23062800  0.74946200  0.13356700  1
  H  65  1  0.14222300  0.79016400  0.07921400  1
  H  66  1  0.19830200  0.77761000  0.08099500  1
  H  71  1  0.21591000  0.29066300  0.91710900  1
  H  72  1  0.17172400  0.31986300  0.91681800  1
  H  75  1  0.12295900  0.32599000  0.86445700  1
  H  76  1  0.12917100  0.30055700  0.82873900  1
  H  77  1  0.09150000  0.29833700  0.91851300  1
  H  78  1  0.07889700  0.25475300  0.91883600  1
  H  81  1  0.11837500  0.23634100  0.83112900  1
  H  82  1  0.09309900  0.21926100  0.86745100  1
  H  84  1  0.19846000  0.25365800  0.83159400  1
  H  85  1  0.23053500  0.25281700  0.86876400  1
  H  87  1  0.14211300  0.21213600  0.92311500  1
  H  88  1  0.19819500  0.22468500  0.92133900  1
  H  93  1  0.78632000  0.91709200  0.29065100  1
  H  94  1  0.83048500  0.91681800  0.31986800  1
  H  97  1  0.87925500  0.86446800  0.32604300  1
  H  98  1  0.87305700  0.82873200  0.30063600  1
  H  99  1  0.91072900  0.91850200  0.29837000  1
  H  100  1  0.92335700  0.91879600  0.25478600  1
  H  103  1  0.88389000  0.83108100  0.23642100  1
  H  104  1  0.90918200  0.86738800  0.21932500  1
  H  106  1  0.80379600  0.83155900  0.25369600  1
  H  107  1  0.77172700  0.86872800  0.25282600  1
  H  109  1  0.86016500  0.92305900  0.21214800  1
  H  110  1  0.80407700  0.92128600  0.22467800  1
  H  115  1  0.78633000  0.08519300  0.71164300  1
  H  116  1  0.83051200  0.08546700  0.68244000  1
  H  119  1  0.87929900  0.13781600  0.67629600  1
  H  120  1  0.87309700  0.17354800  0.70171000  1
  H  121  1  0.91074300  0.08377600  0.70397100  1
  H  122  1  0.92334000  0.08346700  0.74755800  1
  H  125  1  0.88387700  0.17118500  0.76593000  1
  H  126  1  0.90914200  0.13486800  0.78303100  1
  H  128  1  0.80379600  0.17072300  0.74861000  1
  H  129  1  0.77171400  0.13356000  0.74946400  1
  H  131  1  0.86011500  0.07921200  0.79017400  1
  H  132  1  0.80403700  0.08098800  0.77761700  1
  H  137  1  0.78630600  0.29067300  0.08520200  1
  H  138  1  0.83048800  0.31987800  0.08547800  1
  H  141  1  0.87926900  0.32601700  0.13783100  1
  H  142  1  0.87306000  0.30060000  0.17356000  1
  H  143  1  0.91071900  0.29834800  0.08378700  1
  H  144  1  0.92331400  0.25476100  0.08347700  1
  H  147  1  0.88385000  0.23638500  0.17119500  1
  H  148  1  0.90911900  0.21928800  0.13487800  1
  H  150  1  0.80376600  0.25370400  0.17073100  1
  H  151  1  0.77168400  0.25284800  0.13356700  1
  H  153  1  0.86008800  0.21214700  0.07921400  1
  H  154  1  0.80401000  0.22470100  0.08099500  1
  H  159  1  0.78640000  0.71164800  0.91710900  1
  H  160  1  0.83058900  0.68244800  0.91681800  1
  H  163  1  0.87935200  0.67632100  0.86445700  1
  H  164  1  0.87314000  0.70175300  0.82873900  1
  H  165  1  0.91081000  0.70397300  0.91851300  1
  H  166  1  0.92341400  0.74755800  0.91883600  1
  H  169  1  0.88393700  0.76597100  0.83112900  1
  H  170  1  0.90921200  0.78304900  0.86745100  1
  H  172  1  0.80385300  0.74865300  0.83159400  1
  H  173  1  0.77177700  0.74949500  0.86876400  1
  H  175  1  0.86019800  0.79017400  0.92311500  1
  H  176  1  0.80411700  0.77762700  0.92133900  1
  H  181  1  0.78984200  0.91833800  0.70906600  1
  H  182  1  0.83503600  0.91700300  0.68072900  1
  H  185  1  0.88338500  0.86410800  0.67641000  1
  H  186  1  0.87513200  0.82851400  0.70165000  1
  H  187  1  0.91417800  0.91698300  0.70399100  1
  H  188  1  0.92517200  0.91814600  0.74806900  1
  H  191  1  0.88223900  0.83112100  0.76624100  1
  H  192  1  0.90761200  0.86742600  0.78390600  1
  H  194  1  0.80325100  0.83248200  0.74647100  1
  H  195  1  0.77224500  0.87034900  0.74608400  1
  H  197  1  0.86003500  0.92313200  0.78926900  1
  H  198  1  0.80453800  0.92252300  0.77499000  1
  H  203  1  0.78985500  0.08393700  0.29324700  1
  H  204  1  0.83506000  0.08525400  0.32157500  1
  H  207  1  0.88342500  0.13813300  0.32590600  1
  H  208  1  0.87518900  0.17374300  0.30068100  1
  H  209  1  0.91419500  0.08527400  0.29828900  1
  H  210  1  0.92516500  0.08412700  0.25420400  1
  H  213  1  0.88224600  0.17116400  0.23608800  1
  H  214  1  0.90760200  0.13486500  0.21839600  1
  H  216  1  0.80326500  0.16980800  0.25587800  1
  H  217  1  0.77225500  0.13194500  0.25626000  1
  H  219  1  0.86000800  0.07917400  0.21302000  1
  H  220  1  0.80451800  0.07978000  0.22731800  1
  H  225  1  0.78980800  0.29326800  0.91835600  1
  H  226  1  0.83501300  0.32159200  0.91702300  1
  H  229  1  0.88336900  0.32589900  0.86412900  1
  H  230  1  0.87510200  0.30066400  0.82852900  1
  H  231  1  0.91414400  0.29830200  0.91699300  1
  H  232  1  0.92511100  0.25421700  0.91815400  1
  H  235  1  0.88216200  0.23607200  0.83112600  1
  H  236  1  0.90752100  0.21839200  0.86743100  1
  H  238  1  0.80318800  0.25587800  0.83248900  1
  H  239  1  0.77217500  0.25626800  0.87035100  1
  H  241  1  0.85994400  0.21304200  0.92313200  1
  H  242  1  0.80445800  0.22734300  0.92252500  1
  H  247  1  0.78989900  0.70904600  0.08395400  1
  H  248  1  0.83510300  0.68071900  0.08530300  1
  H  251  1  0.88344600  0.67643000  0.13820300  1
  H  252  1  0.87518900  0.70168800  0.17378700  1
  H  253  1  0.91423100  0.70400100  0.08531900  1
  H  254  1  0.92520500  0.74808400  0.08413800  1
  H  257  1  0.88225900  0.76628400  0.17115300  1
  H  258  1  0.90762800  0.78393600  0.13484200  1
  H  260  1  0.80327800  0.74648300  0.16979900  1
  H  261  1  0.77227500  0.74607400  0.13193200  1
  H  263  1  0.86005500  0.78926600  0.07914000  1
  H  264  1  0.80456100  0.77497000  0.07974700  1
  H  269  1  0.21246900  0.08397200  0.70906600  1
  H  270  1  0.16727600  0.08530800  0.68072900  1
  H  273  1  0.11892500  0.13820100  0.67641000  1
  H  274  1  0.12717900  0.17379800  0.70165000  1
  H  275  1  0.08813500  0.08532700  0.70399100  1
  H  276  1  0.07714100  0.08416500  0.74806900  1
  H  279  1  0.12007400  0.17118900  0.76624100  1
  H  280  1  0.09469900  0.13488500  0.78390600  1
  H  282  1  0.19906100  0.16982900  0.74647100  1
  H  283  1  0.23006600  0.13196200  0.74608400  1
  H  285  1  0.14227700  0.07917900  0.78926900  1
  H  286  1  0.19777500  0.07978900  0.77499000  1
  H  291  1  0.21245600  0.91837400  0.29324700  1
  H  292  1  0.16725000  0.91705600  0.32157500  1
  H  295  1  0.11888500  0.86417900  0.32590600  1
  H  296  1  0.12712300  0.82856700  0.30068100  1
  H  297  1  0.08811900  0.91703600  0.29828900  1
  H  298  1  0.07714800  0.91818400  0.25420400  1
  H  301  1  0.12006600  0.83114600  0.23608800  1
  H  302  1  0.09471100  0.86744600  0.21839600  1
  H  304  1  0.19904600  0.83250200  0.25587800  1
  H  305  1  0.23005800  0.87036700  0.25626000  1
  H  307  1  0.14230400  0.92313700  0.21302000  1
  H  308  1  0.19779400  0.92253000  0.22731800  1
  H  313  1  0.21250300  0.70904300  0.91835600  1
  H  314  1  0.16729700  0.68071900  0.91702300  1
  H  317  1  0.11894300  0.67641200  0.86412900  1
  H  318  1  0.12720900  0.70164700  0.82852900  1
  H  319  1  0.08816600  0.70400900  0.91699300  1
  H  320  1  0.07720000  0.74809400  0.91815400  1
  H  323  1  0.12014800  0.76623900  0.83112600  1
  H  324  1  0.09479000  0.78391800  0.86743100  1
  H  326  1  0.19912400  0.74643300  0.83248900  1
  H  327  1  0.23013500  0.74604300  0.87035100  1
  H  329  1  0.14236800  0.78926900  0.92313200  1
  H  330  1  0.19785500  0.77496700  0.92252500  1
  H  335  1  0.21241300  0.29326500  0.08395400  1
  H  336  1  0.16720700  0.32159200  0.08530300  1
  H  339  1  0.11886500  0.32588100  0.13820300  1
  H  340  1  0.12712400  0.30062300  0.17378700  1
  H  341  1  0.08808200  0.29831000  0.08531900  1
  H  342  1  0.07710700  0.25422700  0.08413800  1
  H  345  1  0.12005300  0.23602700  0.17115300  1
  H  346  1  0.09468300  0.21837400  0.13484200  1
  H  348  1  0.19903200  0.25582800  0.16979900  1
  H  349  1  0.23003500  0.25623700  0.13193200  1
  H  351  1  0.14225800  0.21304500  0.07914000  1
  H  352  1  0.19774900  0.22734100  0.07974700  1
  H  357  1  0.71343700  0.58541000  0.78065400  1
  H  358  1  0.67898200  0.58633600  0.81630400  1
  H  361  1  0.63164200  0.64222900  0.82883000  1
  H  362  1  0.63450300  0.67583600  0.79987100  1
  H  363  1  0.59695300  0.58556200  0.81098100  1
  H  364  1  0.56845000  0.58275500  0.77197600  1
  H  367  1  0.59916900  0.66901100  0.74034100  1
  H  368  1  0.56914500  0.63167200  0.73205000  1
  H  370  1  0.68175600  0.66964400  0.74516800  1
  H  371  1  0.71273200  0.63172000  0.73912800  1
  H  373  1  0.61469000  0.57713400  0.71752900  1
  H  374  1  0.67323100  0.57885900  0.71869700  1
  H  379  1  0.71338300  0.41693600  0.22162300  1
  H  380  1  0.67888800  0.41600100  0.18599600  1
  H  383  1  0.63148800  0.36011700  0.17353800  1
  H  384  1  0.63435900  0.32652800  0.20251800  1
  H  385  1  0.59687000  0.41681500  0.19138100  1
  H  386  1  0.56841000  0.41965900  0.23040200  1
  H  389  1  0.59910500  0.33341300  0.26208100  1
  H  390  1  0.56912100  0.37077300  0.27036400  1
  H  392  1  0.68168200  0.33273600  0.25718300  1
  H  393  1  0.71269800  0.37064600  0.26317600  1
  H  395  1  0.61472700  0.42529000  0.28481200  1
  H  396  1  0.67326500  0.42353800  0.28360100  1
  H  401  1  0.71341300  0.22164300  0.58537000  1
  H  402  1  0.67891500  0.18601700  0.58631000  1
  H  405  1  0.63156200  0.17354300  0.64219900  1
  H  406  1  0.63444600  0.20251100  0.67579500  1
  H  407  1  0.59689000  0.19140300  0.58551600  1
  H  408  1  0.56843600  0.23042700  0.58270000  1
  H  411  1  0.59919200  0.26206000  0.66895300  1
  H  412  1  0.56917500  0.27036400  0.63161400  1
  H  414  1  0.68176900  0.25718800  0.66958500  1
  H  415  1  0.71274900  0.26319800  0.63166000  1
  H  417  1  0.61473700  0.28483000  0.57706400  1
  H  418  1  0.67327800  0.28362600  0.57879300  1
  H  423  1  0.71337000  0.78070000  0.41690800  1
  H  424  1  0.67888800  0.81633200  0.41596000  1
  H  427  1  0.63149200  0.82877700  0.36006400  1
  H  428  1  0.63435500  0.79977700  0.32649300  1
  H  429  1  0.59687000  0.81097600  0.41677200  1
  H  430  1  0.56839000  0.77196300  0.41963900  1
  H  433  1  0.59906500  0.74022800  0.33340800  1
  H  434  1  0.56908800  0.73197500  0.37077800  1
  H  436  1  0.68165500  0.74511000  0.33272600  1
  H  437  1  0.71266800  0.73912300  0.37063600  1
  H  439  1  0.61468400  0.71754200  0.42529300  1
  H  440  1  0.67322100  0.71873500  0.42354100  1
  H  445  1  0.28887600  0.41690100  0.78065400  1
  H  446  1  0.32333000  0.41597500  0.81630400  1
  H  449  1  0.37066900  0.36008200  0.82883000  1
  H  450  1  0.36780900  0.32647500  0.79987100  1
  H  451  1  0.40535800  0.41674900  0.81098100  1
  H  452  1  0.43386200  0.41955600  0.77197600  1
  H  455  1  0.40314300  0.33333333  0.74034100  1
  H  456  1  0.43316700  0.37063900  0.73205000  1
  H  458  1  0.32055400  0.33266700  0.74516800  1
  H  459  1  0.28958100  0.37059000  0.73912800  1
  H  461  1  0.38762100  0.42517700  0.71752900  1
  H  462  1  0.32907900  0.42345200  0.71869700  1
  H  467  1  0.28892700  0.58537500  0.22162300  1
  H  468  1  0.32342200  0.58631000  0.18599600  1
  H  471  1  0.37082300  0.64219400  0.17353800  1
  H  472  1  0.36795300  0.67578300  0.20251800  1
  H  473  1  0.40544200  0.58549600  0.19138100  1
  H  474  1  0.43390200  0.58265200  0.23040200  1
  H  477  1  0.40320600  0.66889800  0.26208100  1
  H  478  1  0.43319000  0.63153800  0.27036400  1
  H  480  1  0.32062900  0.66957500  0.25718300  1
  H  481  1  0.28961400  0.63166500  0.26317600  1
  H  483  1  0.38758400  0.57702100  0.28481200  1
  H  484  1  0.32904600  0.57877300  0.28360100  1
  H  489  1  0.28889800  0.78066900  0.58537000  1
  H  490  1  0.32339500  0.81629400  0.58631000  1
  H  493  1  0.37075000  0.82876700  0.64219900  1
  H  494  1  0.36786600  0.79980000  0.67579500  1
  H  495  1  0.40542200  0.81090800  0.58551600  1
  H  496  1  0.43387500  0.77188300  0.58270000  1
  H  499  1  0.40311900  0.74025000  0.66895300  1
  H  500  1  0.43313700  0.73194700  0.63161400  1
  H  502  1  0.32054400  0.74512300  0.66958500  1
  H  503  1  0.28956200  0.73911300  0.63166000  1
  H  505  1  0.38757400  0.71748100  0.57706400  1
  H  506  1  0.32903300  0.71868500  0.57879300  1
  H  511  1  0.28894300  0.22161200  0.41690800  1
  H  512  1  0.32342400  0.18597800  0.41596000  1
  H  515  1  0.37082000  0.17353400  0.36006400  1
  H  516  1  0.36795600  0.20253300  0.32649300  1
  H  517  1  0.40544200  0.19133600  0.41677200  1
  H  518  1  0.43392200  0.23034700  0.41963900  1
  H  521  1  0.40324600  0.26208300  0.33340800  1
  H  522  1  0.43322400  0.27033600  0.37077800  1
  H  524  1  0.32065800  0.25720100  0.33272600  1
  H  525  1  0.28964500  0.26318800  0.37063600  1
  H  527  1  0.38762800  0.28476900  0.42529300  1
  H  528  1  0.32908900  0.28357600  0.42354100  1
  H  533  1  0.28962000  0.41883800  0.21961700  1
  H  534  1  0.32466900  0.41613700  0.18431300  1
  H  537  1  0.36979100  0.35892600  0.17351500  1
  H  538  1  0.36476500  0.32588100  0.20294700  1
  H  539  1  0.40667500  0.41460700  0.19077700  1
  H  540  1  0.43405900  0.41774500  0.23044100  1
  H  543  1  0.39810000  0.33287200  0.26266200  1
  H  544  1  0.43032300  0.36910400  0.27141900  1
  H  546  1  0.31634300  0.33435900  0.25694800  1
  H  547  1  0.28711200  0.37335400  0.26152900  1
  H  549  1  0.38675200  0.42541400  0.28392700  1
  H  550  1  0.32814700  0.42530800  0.28168700  1
  H  555  1  0.28965600  0.58344600  0.78270500  1
  H  556  1  0.32473700  0.58613600  0.81799300  1
  H  559  1  0.36994100  0.64332600  0.82875200  1
  H  560  1  0.36492200  0.67636700  0.79931500  1
  H  561  1  0.40672800  0.58762300  0.81147700  1
  H  562  1  0.43408200  0.58444900  0.77180400  1
  H  565  1  0.39818400  0.66933200  0.73957300  1
  H  566  1  0.43035600  0.63307800  0.73080600  1
  H  568  1  0.31643600  0.66790900  0.74534800  1
  H  569  1  0.28715300  0.62893100  0.74079200  1
  H  571  1  0.38670900  0.57680100  0.71834100  1
  H  572  1  0.32810700  0.57694500  0.72061900  1
  H  577  1  0.28961300  0.78270500  0.41887000  1
  H  578  1  0.32468700  0.81799600  0.41616200  1
  H  581  1  0.36981100  0.82877000  0.35894900  1
  H  582  1  0.36476200  0.79933700  0.32590900  1
  H  583  1  0.40668500  0.81149500  0.41463500  1
  H  584  1  0.43404600  0.77182200  0.41777100  1
  H  587  1  0.39805000  0.73961300  0.33290000  1
  H  588  1  0.43028000  0.73084200  0.36912600  1
  H  590  1  0.31629800  0.74535300  0.33439200  1
  H  591  1  0.28707700  0.74078100  0.37339500  1
  H  593  1  0.38671200  0.71835800  0.42544500  1
  H  594  1  0.32810600  0.72061600  0.42534100  1
  H  599  1  0.28964800  0.21957700  0.58348100  1
  H  600  1  0.32471000  0.18428200  0.58619900  1
  H  603  1  0.36989100  0.17355300  0.64341200  1
  H  604  1  0.36488200  0.20302400  0.67642500  1
  H  605  1  0.40671200  0.19076100  0.58769600  1
  H  606  1  0.43408200  0.23042500  0.58449200  1
  H  609  1  0.39819100  0.26275800  0.66933800  1
  H  610  1  0.43037000  0.27146900  0.63307100  1
  H  612  1  0.31643700  0.25699600  0.66791700  1
  H  613  1  0.28715400  0.26153500  0.62894200  1
  H  615  1  0.38673900  0.28389700  0.57678800  1
  H  616  1  0.32813400  0.28163600  0.57693000  1
  H  621  1  0.71269200  0.58347300  0.21961700  1
  H  622  1  0.67764200  0.58617400  0.18431300  1
  H  625  1  0.63252100  0.64338500  0.17351500  1
  H  626  1  0.63754700  0.67643000  0.20294700  1
  H  627  1  0.59563700  0.58770400  0.19077700  1
  H  628  1  0.56825300  0.58456600  0.23044100  1
  H  631  1  0.60421100  0.66943900  0.26266200  1
  H  632  1  0.57198900  0.63320700  0.27141900  1
  H  634  1  0.68596900  0.66795200  0.25694800  1
  H  635  1  0.71520100  0.62895700  0.26152900  1
  H  637  1  0.61555900  0.57689700  0.28392700  1
  H  638  1  0.67416400  0.57700300  0.28168700  1
  H  643  1  0.71265500  0.41886500  0.78270500  1
  H  644  1  0.67757500  0.41617500  0.81799300  1
  H  647  1  0.63237100  0.35898400  0.82875200  1
  H  648  1  0.63739000  0.32594400  0.79931500  1
  H  649  1  0.59558300  0.41468800  0.81147700  1
  H  650  1  0.56822900  0.41786200  0.77180400  1
  H  653  1  0.60412800  0.33297800  0.73957300  1
  H  654  1  0.57195500  0.36923300  0.73080600  1
  H  656  1  0.68587600  0.33440200  0.74534800  1
  H  657  1  0.71515800  0.37337900  0.74079200  1
  H  659  1  0.61560300  0.42551000  0.71834100  1
  H  660  1  0.67420400  0.42536600  0.72061900  1
  H  665  1  0.71269800  0.21960600  0.41887000  1
  H  666  1  0.67762500  0.18431600  0.41616200  1
  H  669  1  0.63250100  0.17354200  0.35894900  1
  H  670  1  0.63755000  0.20297400  0.32590900  1
  H  671  1  0.59562700  0.19081600  0.41463500  1
  H  672  1  0.56826600  0.23048900  0.41777100  1
  H  675  1  0.60426100  0.26269800  0.33290000  1
  H  676  1  0.57203200  0.27146900  0.36912600  1
  H  678  1  0.68601300  0.25695800  0.33439200  1
  H  679  1  0.71523500  0.26152900  0.37339500  1
  H  681  1  0.61559900  0.28395300  0.42544500  1
  H  682  1  0.67420400  0.28169500  0.42534100  1
  H  687  1  0.71266500  0.78273500  0.58348100  1
  H  688  1  0.67760200  0.81802800  0.58619900  1
  H  691  1  0.63242100  0.82875700  0.64341200  1
  H  692  1  0.63743000  0.79928700  0.67642500  1
  H  693  1  0.59560000  0.81155000  0.58769600  1
  H  694  1  0.56822900  0.77188500  0.58449200  1
  H  697  1  0.60412100  0.73955300  0.66933800  1
  H  698  1  0.57194200  0.73084200  0.63307100  1
  H  700  1  0.68587600  0.74531500  0.66791700  1
  H  701  1  0.71515800  0.74077600  0.62894200  1
  H  703  1  0.61557300  0.71841400  0.57678800  1
  H  704  1  0.67417700  0.72067500  0.57693000  1
  H  711  1  0.08107500  0.03175100  0.27798000  1
  H  713  1  0.21661800  0.96943000  0.26163600  1
  H  715  1  0.23925800  0.02712200  0.23567300  1
  H  716  1  0.06037100  0.97451000  0.30552400  1
  H  723  1  0.08107900  0.97059500  0.72431300  1
  H  725  1  0.21662500  0.03291300  0.74065000  1
  H  727  1  0.23927300  0.97523000  0.76661600  1
  H  728  1  0.06040500  0.02784100  0.69673700  1
  H  735  1  0.08111100  0.72431300  0.03172100  1
  H  737  1  0.21666700  0.74063700  0.96941200  1
  H  739  1  0.23931100  0.76660300  0.02709600  1
  H  740  1  0.06043200  0.69675200  0.97447400  1
  H  747  1  0.08101400  0.27801100  0.97058500  1
  H  749  1  0.21657400  0.26168600  0.03289200  1
  H  751  1  0.23921600  0.23571000  0.97522300  1
  H  752  1  0.06035500  0.30559700  0.02783500  1
  H  759  1  0.92123900  0.97056000  0.27798000  1
  H  761  1  0.78569500  0.03288000  0.26163600  1
  H  763  1  0.76305200  0.97519000  0.23567300  1
  H  764  1  0.94194000  0.02780000  0.30552400  1
  H  771  1  0.92123200  0.03171500  0.72431300  1
  H  773  1  0.78568500  0.96939700  0.74065000  1
  H  775  1  0.76303900  0.02708000  0.76661600  1
  H  776  1  0.94190600  0.97446900  0.69673700  1
  H  783  1  0.92120200  0.27799800  0.03172100  1
  H  785  1  0.78564500  0.26167400  0.96941200  1
  H  787  1  0.76299900  0.23570900  0.02709600  1
  H  788  1  0.94187900  0.30555900  0.97447400  1
  H  795  1  0.92129900  0.72430000  0.97058500  1
  H  797  1  0.78573800  0.74062500  0.03289200  1
  H  799  1  0.76309600  0.76660000  0.97522300  1
  H  800  1  0.94195600  0.69671400  0.02783500  1
  H  807  1  0.58015500  0.53159300  0.79608300  1
  H  809  1  0.70511000  0.46991400  0.75181100  1
  H  811  1  0.71862300  0.52679600  0.72284400  1
  H  812  1  0.57218200  0.47267000  0.82660800  1
  H  819  1  0.58012900  0.47079700  0.20623500  1
  H  821  1  0.70511300  0.53245800  0.25047800  1
  H  823  1  0.71867000  0.47558100  0.27941600  1
  H  824  1  0.57214900  0.52971700  0.17570900  1
  H  831  1  0.58012900  0.20627900  0.53154200  1
  H  833  1  0.70513300  0.25048400  0.46987600  1
  H  835  1  0.71867600  0.27944200  0.52674800  1
  H  836  1  0.57214200  0.17574500  0.47262200  1
  H  843  1  0.58013500  0.79615400  0.47076600  1
  H  845  1  0.70511600  0.75190500  0.53242700  1
  H  847  1  0.71864600  0.72293800  0.47556800  1
  H  848  1  0.57221200  0.82670400  0.52970100  1
  H  855  1  0.42215600  0.47071800  0.79608300  1
  H  857  1  0.29720200  0.53239700  0.75181100  1
  H  859  1  0.28368900  0.47551500  0.72284400  1
  H  860  1  0.43012900  0.52964100  0.82660800  1
  H  867  1  0.42218300  0.53151400  0.20623500  1
  H  869  1  0.29719900  0.46985300  0.25047800  1
  H  871  1  0.28364300  0.52673000  0.27941600  1
  H  872  1  0.43016300  0.47259400  0.17570900  1
  H  879  1  0.42218300  0.79603300  0.53154200  1
  H  881  1  0.29717900  0.75182600  0.46987600  1
  H  883  1  0.28363500  0.72286900  0.52674800  1
  H  884  1  0.43016900  0.82656700  0.47262200  1
  H  891  1  0.42217600  0.20615700  0.47076600  1
  H  893  1  0.29719600  0.25040700  0.53242700  1
  H  895  1  0.28366700  0.27937300  0.47556800  1
  H  896  1  0.43009900  0.17560700  0.52970100  1
  H  903  1  0.19235700  0.20138400  0.30178100  1
  H  905  1  0.30229000  0.14723700  0.37135200  1
  H  907  1  0.27631900  0.09631000  0.33376500  1
  H  908  1  0.25059000  0.24793700  0.30339200  1
  H  915  1  0.19229900  0.80095600  0.70052200  1
  H  917  1  0.30222400  0.85507100  0.63092100  1
  H  919  1  0.27629900  0.90599900  0.66852600  1
  H  920  1  0.25045400  0.75436500  0.69887300  1
  H  927  1  0.19235400  0.70051700  0.20136000  1
  H  929  1  0.30230300  0.63095200  0.14722800  1
  H  931  1  0.27636000  0.66855100  0.09630700  1
  H  932  1  0.25057200  0.69891100  0.24791600  1
  H  939  1  0.19227400  0.30173600  0.80094800  1
  H  941  1  0.30212700  0.37139200  0.85508200  1
  H  943  1  0.27618600  0.33381000  0.90601700  1
  H  944  1  0.25045200  0.30338700  0.75437700  1
  H  951  1  0.80995500  0.80092800  0.30178100  1
  H  953  1  0.70002100  0.85507400  0.37135200  1
  H  955  1  0.72599400  0.90600100  0.33376500  1
  H  956  1  0.75172100  0.75437200  0.30339200  1
  H  963  1  0.81001100  0.20135600  0.70052200  1
  H  965  1  0.70008700  0.14724000  0.63092100  1
  H  967  1  0.72601100  0.09631200  0.66852600  1
  H  968  1  0.75185800  0.24794500  0.69887300  1
  H  975  1  0.80995800  0.30179400  0.20136000  1
  H  977  1  0.70000700  0.37135900  0.14722800  1
  H  979  1  0.72595100  0.33376000  0.09630700  1
  H  980  1  0.75173800  0.30340000  0.24791600  1
  H  987  1  0.81003800  0.70057500  0.80094800  1
  H  989  1  0.70018400  0.63091900  0.85508200  1
  H  991  1  0.72612500  0.66850100  0.90601700  1
  H  992  1  0.75186200  0.69892400  0.75437700  1
  H  999  1  0.81272100  0.80153500  0.69809700  1
  H  1001  1  0.70059200  0.85619400  0.63099500  1
  H  1003  1  0.77083800  0.90350300  0.63571000  1
  H  1004  1  0.75571800  0.75489800  0.69639300  1
  H  1011  1  0.81281200  0.20073000  0.30426700  1
  H  1013  1  0.70064900  0.14610100  0.37135900  1
  H  1015  1  0.77085800  0.09875600  0.36660300  1
  H  1016  1  0.75592500  0.24741800  0.30602200  1
  H  1023  1  0.81270100  0.30426400  0.80156300  1
  H  1025  1  0.70052500  0.37132600  0.85620700  1
  H  1027  1  0.77075100  0.36657800  0.90355100  1
  H  1028  1  0.75572400  0.30594800  0.75492400  1
  H  1035  1  0.81278500  0.69810700  0.20075200  1
  H  1037  1  0.70069200  0.63095200  0.14610900  1
  H  1039  1  0.77093200  0.63568800  0.09880000  1
  H  1040  1  0.75586100  0.69635500  0.24742000  1
  H  1047  1  0.18959100  0.20077600  0.69809700  1
  H  1049  1  0.30172100  0.14611800  0.63099500  1
  H  1051  1  0.23147200  0.09880700  0.63571000  1
  H  1052  1  0.24659300  0.24741300  0.69639300  1
  H  1059  1  0.18950000  0.80158000  0.30426700  1
  H  1061  1  0.30166300  0.85620900  0.37135900  1
  H  1063  1  0.23145400  0.90355400  0.36660300  1
  H  1064  1  0.24638700  0.75489300  0.30602200  1
  H  1071  1  0.18961000  0.69804700  0.80156300  1
  H  1073  1  0.30178800  0.63098500  0.85620700  1
  H  1075  1  0.23156000  0.63573300  0.90355100  1
  H  1076  1  0.24658600  0.69636300  0.75492400  1
  H  1083  1  0.18952800  0.30420400  0.20075200  1
  H  1085  1  0.30161800  0.37135900  0.14610900  1
  H  1087  1  0.23137900  0.36662300  0.09880000  1
  H  1088  1  0.24645100  0.30595600  0.24742000  1
  H  1095  1  0.12490600  0.16734000  0.12161500  1
  H  1097  1  0.24298100  0.16057600  0.20329700  1
  H  1099  1  0.26266000  0.21700300  0.18206800  1
  H  1100  1  0.08597200  0.12827700  0.15864600  1
  H  1107  1  0.12501700  0.83491900  0.88073100  1
  H  1109  1  0.24302000  0.84173100  0.79899100  1
  H  1111  1  0.26264300  0.78528400  0.82011400  1
  H  1112  1  0.08606200  0.87406100  0.84372800  1
  H  1119  1  0.12492500  0.88066300  0.16734800  1
  H  1121  1  0.24304100  0.79900600  0.16057100  1
  H  1123  1  0.26262900  0.82015700  0.21705000  1
  H  1124  1  0.08607800  0.84369800  0.12818100  1
  H  1131  1  0.12489900  0.12158800  0.83490600  1
  H  1133  1  0.24297600  0.20326600  0.84179400  1
  H  1135  1  0.26259200  0.18217200  0.78532900  1
  H  1136  1  0.08597400  0.15857000  0.87407600  1
  H  1143  1  0.87740700  0.83497000  0.12161500  1
  H  1145  1  0.75933000  0.84173600  0.20329700  1
  H  1147  1  0.73965100  0.78530900  0.18206800  1
  H  1148  1  0.91634000  0.87403600  0.15864600  1
  H  1155  1  0.87729400  0.16739100  0.88073100  1
  H  1157  1  0.75929000  0.16058000  0.79899100  1
  H  1159  1  0.73966800  0.21702700  0.82011400  1
  H  1160  1  0.91625000  0.12825000  0.84372800  1
  H  1167  1  0.87738700  0.12164700  0.16734800  1
  H  1169  1  0.75927000  0.20330500  0.16057100  1
  H  1171  1  0.73968200  0.18215300  0.21705000  1
  H  1172  1  0.91623300  0.15861400  0.12818100  1
  H  1179  1  0.87741100  0.88072400  0.83490600  1
  H  1181  1  0.75933700  0.79904400  0.84179400  1
  H  1183  1  0.73971800  0.82014000  0.78532900  1
  H  1184  1  0.91633700  0.84374100  0.87407600  1
  H  1191  1  0.58143200  0.67549700  0.62971500  1
  H  1193  1  0.71603700  0.64120000  0.68517900  1
  H  1195  1  0.74901400  0.69038300  0.65718500  1
  H  1196  1  0.54389300  0.64373600  0.67474100  1
  H  1203  1  0.58151200  0.32679600  0.37263400  1
  H  1205  1  0.71605700  0.36118400  0.31713500  1
  H  1207  1  0.74900400  0.31187500  0.34491600  1
  H  1208  1  0.54391900  0.35867300  0.32768600  1
  H  1215  1  0.58146500  0.37261300  0.67545700  1
  H  1217  1  0.71610000  0.31716000  0.64117200  1
  H  1219  1  0.74903100  0.34506200  0.69042600  1
  H  1220  1  0.54395000  0.32770900  0.64353100  1
  H  1227  1  0.58143800  0.62973300  0.32673800  1
  H  1229  1  0.71600700  0.68514600  0.36123200  1
  H  1231  1  0.74896100  0.65740500  0.31189300  1
  H  1232  1  0.54386300  0.67466500  0.35864300  1
  H  1239  1  0.42088000  0.32681400  0.62971500  1
  H  1241  1  0.28627500  0.36111100  0.68517900  1
  H  1243  1  0.25329600  0.31192800  0.65718500  1
  H  1244  1  0.45841900  0.35857500  0.67474100  1
  H  1251  1  0.42080000  0.67551500  0.37263400  1
  H  1253  1  0.28625500  0.64112700  0.31713500  1
  H  1255  1  0.25330600  0.69043600  0.34491600  1
  H  1256  1  0.45839200  0.64363700  0.32768600  1
  H  1263  1  0.42084600  0.62969800  0.67545700  1
  H  1265  1  0.28621200  0.68515100  0.64117200  1
  H  1267  1  0.25328100  0.65724900  0.69042600  1
  H  1268  1  0.45836200  0.67460200  0.64353100  1
  H  1275  1  0.42087300  0.37257800  0.32673800  1
  H  1277  1  0.28630600  0.31716500  0.36123200  1
  H  1279  1  0.25335100  0.34490600  0.31189300  1
  H  1280  1  0.45844900  0.32764600  0.35864300  1
  H  1287  1  0.04266200  0.17640000  0.23819600  1
  H  1289  1  0.96043200  0.12118100  0.32629300  1
  H  1291  1  0.03267300  0.09426300  0.33899100  1
  H  1292  1  0.96905300  0.17404100  0.20831400  1
  H  1299  1  0.04267500  0.82597300  0.76418300  1
  H  1301  1  0.96044900  0.88106700  0.67601000  1
  H  1303  1  0.03264600  0.90806700  0.66336800  1
  H  1304  1  0.96903300  0.82822600  0.79401500  1
  H  1311  1  0.04269300  0.76419300  0.17635000  1
  H  1313  1  0.96045900  0.67602300  0.12125400  1
  H  1315  1  0.03268000  0.66335500  0.09427800  1
  H  1316  1  0.96906600  0.79404500  0.17403400  1
  H  1323  1  0.04261000  0.23809200  0.82597100  1
  H  1325  1  0.96039800  0.32628000  0.88106000  1
  H  1327  1  0.03260300  0.33894800  0.90802200  1
  H  1328  1  0.96896900  0.20825400  0.82826600  1
  H  1335  1  0.95965000  0.82591200  0.23819600  1
  H  1337  1  0.04187900  0.88113100  0.32629300  1
  H  1339  1  0.96963800  0.90804700  0.33899100  1
  H  1340  1  0.03325800  0.82826900  0.20831400  1
  H  1347  1  0.95963700  0.17633900  0.76418300  1
  H  1349  1  0.04186400  0.12124300  0.67601000  1
  H  1351  1  0.96966500  0.09424500  0.66336800  1
  H  1352  1  0.03328000  0.17408600  0.79401500  1
  H  1359  1  0.95962000  0.23811700  0.17635000  1
  H  1361  1  0.04185500  0.32628800  0.12125400  1
  H  1363  1  0.96963100  0.33895600  0.09427800  1
  H  1364  1  0.03324500  0.20826700  0.17403400  1
  H  1371  1  0.95970300  0.76421900  0.82597100  1
  H  1373  1  0.04191200  0.67603100  0.88106000  1
  H  1375  1  0.96970800  0.66336300  0.90802200  1
  H  1376  1  0.03334300  0.79405800  0.82826600  1
  H  1383  1  0.54192500  0.69019000  0.76719700  1
  H  1385  1  0.45889000  0.61536300  0.83834000  1
  H  1387  1  0.53095800  0.58709200  0.84696800  1
  H  1388  1  0.46935200  0.70020300  0.73961100  1
  H  1395  1  0.54190400  0.31220100  0.23524000  1
  H  1397  1  0.45885300  0.38682900  0.16390100  1
  H  1399  1  0.53083400  0.41526200  0.15544600  1
  H  1400  1  0.46926200  0.30198400  0.26264000  1
  H  1407  1  0.54189100  0.23527900  0.69013000  1
  H  1409  1  0.45891300  0.16392100  0.61546400  1
  H  1411  1  0.53095800  0.15535700  0.58714000  1
  H  1412  1  0.46927200  0.26268000  0.70030000  1
  H  1419  1  0.54188800  0.76707800  0.31216600  1
  H  1421  1  0.45882000  0.83837000  0.38683100  1
  H  1423  1  0.53081700  0.84689400  0.41521200  1
  H  1424  1  0.46926200  0.73958000  0.30205400  1
  H  1431  1  0.46038700  0.31212100  0.76719700  1
  H  1433  1  0.54342200  0.38694800  0.83834000  1
  H  1435  1  0.47135400  0.41521900  0.84696800  1
  H  1436  1  0.53295900  0.30210700  0.73961100  1
  H  1443  1  0.46040700  0.69011000  0.23524000  1
  H  1445  1  0.54345800  0.61548200  0.16390100  1
  H  1447  1  0.47147800  0.58704900  0.15544600  1
  H  1448  1  0.53304900  0.70032700  0.26264000  1
  H  1455  1  0.46042000  0.76703300  0.69013000  1
  H  1457  1  0.54339800  0.83839100  0.61546400  1
  H  1459  1  0.47135400  0.84695500  0.58714000  1
  H  1460  1  0.53303900  0.73963100  0.70030000  1
  H  1467  1  0.46042400  0.23523400  0.31216600  1
  H  1469  1  0.54349200  0.16394200  0.38683100  1
  H  1471  1  0.47149400  0.15541600  0.41521200  1
  H  1472  1  0.53304900  0.26273100  0.30205400  1
  C  1  1  0.15040100  0.07753600  0.26722600  1
  C  2  1  0.10250500  0.09303000  0.27377300  1
  C  3  1  0.18199900  0.09418200  0.29474900  1
  C  4  1  0.18240100  0.13426600  0.29400900  1
  C  7  1  0.13268500  0.14614600  0.30072900  1
  C  8  1  0.09926400  0.13250700  0.27363900  1
  C  13  1  0.11744700  0.14356800  0.23789100  1
  C  14  1  0.16496600  0.12960900  0.22810200  1
  C  17  1  0.19671600  0.14333600  0.25676300  1
  C  20  1  0.16480000  0.09006700  0.23094200  1
  C  23  1  0.15040900  0.92480900  0.73509000  1
  C  24  1  0.10250700  0.90931900  0.72856600  1
  C  25  1  0.18198600  0.90815600  0.70755600  1
  C  26  1  0.18238100  0.86807100  0.70830200  1
  C  29  1  0.13265700  0.85619700  0.70160700  1
  C  30  1  0.09925700  0.86984300  0.72871300  1
  C  35  1  0.11746600  0.85878800  0.76445400  1
  C  36  1  0.16500000  0.87273800  0.77421600  1
  C  39  1  0.19672300  0.85900300  0.74554300  1
  C  42  1  0.16483400  0.91228000  0.77136900  1
  C  45  1  0.15043400  0.73508200  0.07751000  1
  C  46  1  0.10253200  0.72855800  0.09300100  1
  C  47  1  0.18201100  0.70754900  0.09416400  1
  C  48  1  0.18241000  0.70830000  0.13424800  1
  C  51  1  0.13268700  0.70160400  0.14612700  1
  C  52  1  0.09928500  0.72870800  0.13247800  1
  C  57  1  0.11749300  0.76444900  0.14353200  1
  C  58  1  0.16502400  0.77421100  0.12957700  1
  C  61  1  0.19675200  0.74554000  0.14331400  1
  C  64  1  0.16486000  0.77136200  0.09003600  1
  C  67  1  0.15033600  0.26721900  0.92480100  1
  C  68  1  0.10243600  0.27374000  0.90930600  1
  C  69  1  0.18191500  0.29474400  0.90814300  1
  C  70  1  0.18231900  0.29398100  0.86806100  1
  C  73  1  0.13260100  0.30067400  0.85617400  1
  C  74  1  0.09919600  0.27358000  0.86983100  1
  C  79  1  0.11740100  0.23783100  0.85879100  1
  C  80  1  0.16493100  0.22807100  0.87275400  1
  C  83  1  0.19666100  0.25673800  0.85900800  1
  C  86  1  0.16475700  0.23093400  0.91229200  1
  C  89  1  0.85191100  0.92477600  0.26722600  1
  C  90  1  0.89980600  0.90928100  0.27377300  1
  C  91  1  0.82031300  0.90812800  0.29474900  1
  C  92  1  0.81991200  0.86804500  0.29400900  1
  C  95  1  0.86962500  0.85616400  0.30072900  1
  C  96  1  0.90304700  0.86980500  0.27363900  1
  C  101  1  0.88486600  0.85874300  0.23789100  1
  C  102  1  0.83734500  0.87270300  0.22810200  1
  C  105  1  0.80559400  0.85897600  0.25676300  1
  C  108  1  0.83751200  0.91224400  0.23094200  1
  C  111  1  0.85190500  0.07750100  0.73509000  1
  C  112  1  0.89980600  0.09299100  0.72856600  1
  C  113  1  0.82032700  0.09415500  0.70755600  1
  C  114  1  0.81993200  0.13423900  0.70830200  1
  C  117  1  0.86965500  0.14611500  0.70160700  1
  C  118  1  0.90305400  0.13246700  0.72871300  1
  C  123  1  0.88484600  0.14352300  0.76445400  1
  C  124  1  0.83731200  0.12957200  0.77421600  1
  C  127  1  0.80558700  0.14330700  0.74554300  1
  C  130  1  0.83747900  0.09003000  0.77136900  1
  C  133  1  0.85187800  0.26722900  0.07751000  1
  C  134  1  0.89977900  0.27375200  0.09300100  1
  C  135  1  0.82030000  0.29476200  0.09416400  1
  C  136  1  0.81990200  0.29401100  0.13424800  1
  C  139  1  0.86962500  0.30070700  0.14612700  1
  C  140  1  0.90302700  0.27360300  0.13247800  1
  C  145  1  0.88481900  0.23786300  0.14353200  1
  C  146  1  0.83728900  0.22809900  0.12957700  1
  C  149  1  0.80556000  0.25677100  0.14331400  1
  C  152  1  0.83745200  0.23094900  0.09003600  1
  C  155  1  0.85197500  0.73509200  0.92480100  1
  C  156  1  0.89987600  0.72857100  0.90930600  1
  C  157  1  0.82039700  0.70756700  0.90814300  1
  C  158  1  0.81999300  0.70833000  0.86806100  1
  C  161  1  0.86971200  0.70163700  0.85617400  1
  C  162  1  0.90311400  0.72873000  0.86983100  1
  C  167  1  0.88490900  0.76447900  0.85879100  1
  C  168  1  0.83738200  0.77423900  0.87275400  1
  C  171  1  0.80565100  0.74557300  0.85900800  1
  C  174  1  0.83755600  0.77137700  0.91229200  1
  C  177  1  0.85473500  0.92487200  0.73383100  1
  C  178  1  0.90224200  0.90864600  0.72867200  1
  C  179  1  0.82370200  0.90863100  0.70566800  1
  C  180  1  0.82231500  0.86853600  0.70658800  1
  C  183  1  0.87211400  0.85595100  0.70142000  1
  C  184  1  0.90442700  0.86910700  0.72952200  1
  C  189  1  0.88414700  0.85872300  0.76466100  1
  C  190  1  0.83631300  0.87323100  0.77282600  1
  C  193  1  0.80588500  0.85985000  0.74336800  1
  C  196  1  0.83799700  0.91275300  0.76978100  1
  C  199  1  0.85473500  0.07740600  0.26846300  1
  C  200  1  0.90224900  0.09362300  0.27361300  1
  C  201  1  0.82371800  0.09363900  0.29664300  1
  C  202  1  0.82234500  0.13373600  0.29574100  1
  C  205  1  0.87215100  0.14630700  0.30090100  1
  C  206  1  0.90444400  0.13316000  0.27278100  1
  C  211  1  0.88414700  0.14356300  0.23765400  1
  C  212  1  0.83630300  0.12906600  0.22949600  1
  C  215  1  0.80589800  0.14243900  0.25897100  1
  C  218  1  0.83798400  0.08954400  0.23252300  1
  C  221  1  0.85468500  0.26848300  0.92488200  1
  C  222  1  0.90219500  0.27362300  0.90865400  1
  C  223  1  0.82366800  0.29665800  0.90864600  1
  C  224  1  0.82227800  0.29574600  0.86855100  1
  C  227  1  0.87208100  0.30089400  0.85596700  1
  C  228  1  0.90437400  0.27277600  0.86911800  1
  C  233  1  0.88407000  0.23764800  0.85872800  1
  C  234  1  0.83622900  0.22950100  0.87323700  1
  C  237  1  0.80582100  0.25897300  0.85985800  1
  C  240  1  0.83792000  0.23254200  0.91275500  1
  C  243  1  0.85477800  0.73382300  0.07741900  1
  C  244  1  0.90228500  0.72868500  0.09364700  1
  C  245  1  0.82375900  0.70565800  0.09366500  1
  C  246  1  0.82236800  0.70659100  0.13376000  1
  C  249  1  0.87216800  0.70144200  0.14635000  1
  C  250  1  0.90446700  0.72955000  0.13318500  1
  C  255  1  0.88417100  0.76468900  0.14355400  1
  C  256  1  0.83633000  0.77283300  0.12903900  1
  C  259  1  0.80591800  0.74337100  0.14243100  1
  C  262  1  0.83802400  0.76977100  0.08952200  1
  C  265  1  0.14757700  0.07744000  0.73383100  1
  C  266  1  0.10006800  0.09366500  0.72867200  1
  C  267  1  0.17861000  0.09368100  0.70566800  1
  C  268  1  0.17999600  0.13377600  0.70658800  1
  C  271  1  0.13019600  0.14636100  0.70142000  1
  C  272  1  0.09788400  0.13320400  0.72952200  1
  C  277  1  0.11816500  0.14358800  0.76466100  1
  C  278  1  0.16600000  0.12907800  0.77282600  1
  C  281  1  0.19642600  0.14246100  0.74336800  1
  C  284  1  0.16431300  0.08955900  0.76978100  1
  C  287  1  0.14757600  0.92490500  0.26846300  1
  C  288  1  0.10006200  0.90868700  0.27361300  1
  C  289  1  0.17859300  0.90867100  0.29664300  1
  C  290  1  0.17996700  0.86857600  0.29574100  1
  C  293  1  0.13016000  0.85600500  0.30090100  1
  C  294  1  0.09786700  0.86915000  0.27278100  1
  C  299  1  0.11816400  0.85874800  0.23765400  1
  C  300  1  0.16600900  0.87324400  0.22949600  1
  C  303  1  0.19641500  0.85987300  0.25897100  1
  C  306  1  0.16432800  0.91276800  0.23252300  1
  C  309  1  0.14762700  0.73382800  0.92488200  1
  C  310  1  0.10011600  0.72868700  0.90865400  1
  C  311  1  0.17864500  0.70565200  0.90864600  1
  C  312  1  0.18003400  0.70656500  0.86855100  1
  C  315  1  0.13023000  0.70141700  0.85596700  1
  C  316  1  0.09793700  0.72953500  0.86911800  1
  C  321  1  0.11824200  0.76466400  0.85872800  1
  C  322  1  0.16608300  0.77281000  0.87323700  1
  C  325  1  0.19649200  0.74333800  0.85985800  1
  C  328  1  0.16439000  0.76976900  0.91275500  1
  C  331  1  0.14753300  0.26848800  0.07741900  1
  C  332  1  0.10002500  0.27362600  0.09364700  1
  C  333  1  0.17855500  0.29665300  0.09366500  1
  C  334  1  0.17994400  0.29572000  0.13376000  1
  C  337  1  0.13014400  0.30086900  0.14635000  1
  C  338  1  0.09784400  0.27276100  0.13318500  1
  C  343  1  0.11814100  0.23762100  0.14355400  1
  C  344  1  0.16598100  0.22947800  0.12903900  1
  C  347  1  0.19639400  0.25894000  0.14243100  1
  C  350  1  0.16428700  0.23253900  0.08952200  1
  C  353  1  0.64172700  0.57723800  0.76938200  1
  C  354  1  0.59782900  0.59341300  0.78462900  1
  C  355  1  0.68117100  0.59435900  0.78988800  1
  C  356  1  0.68093400  0.63425200  0.78776900  1
  C  359  1  0.63510700  0.64823700  0.80199000  1
  C  360  1  0.59387600  0.63312100  0.78301300  1
  C  365  1  0.59894200  0.64165800  0.74429600  1
  C  366  1  0.64213500  0.62749300  0.72678900  1
  C  369  1  0.68150800  0.64220100  0.74878700  1
  C  372  1  0.64307400  0.58824200  0.73100400  1
  C  375  1  0.64169700  0.42514400  0.23294000  1
  C  376  1  0.59776900  0.40897900  0.21773700  1
  C  377  1  0.68110400  0.40799300  0.21241500  1
  C  378  1  0.68084000  0.36810000  0.21455700  1
  C  381  1  0.63498400  0.35412500  0.20038000  1
  C  382  1  0.59378900  0.36927600  0.21938100  1
  C  387  1  0.59889100  0.36076500  0.25810100  1
  C  388  1  0.64212100  0.37491700  0.27556500  1
  C  391  1  0.68145500  0.36017500  0.25354700  1
  C  394  1  0.64308400  0.41416000  0.27132300  1
  C  397  1  0.64172000  0.23296200  0.57718700  1
  C  398  1  0.59779900  0.21775600  0.59336500  1
  C  399  1  0.68113700  0.21243400  0.59432100  1
  C  400  1  0.68090000  0.21457000  0.63421400  1
  C  403  1  0.63505700  0.20038300  0.64819900  1
  C  404  1  0.59384900  0.21938500  0.63307100  1
  C  409  1  0.59895500  0.25810100  0.64159700  1
  C  410  1  0.64216800  0.27557600  0.62742400  1
  C  413  1  0.68151800  0.25356000  0.64214300  1
  C  416  1  0.64310700  0.27134300  0.58817900  1
  C  419  1  0.64167700  0.76940500  0.42512100  1
  C  420  1  0.59775200  0.78461400  0.40894800  1
  C  421  1  0.68109100  0.78991100  0.40796500  1
  C  422  1  0.68082300  0.78774900  0.36807200  1
  C  425  1  0.63497700  0.80193200  0.35408900  1
  C  426  1  0.59377600  0.78295000  0.36924800  1
  C  431  1  0.59885800  0.74422300  0.36075700  1
  C  432  1  0.64208500  0.72675300  0.37491400  1
  C  435  1  0.68142800  0.74875600  0.36016300  1
  C  438  1  0.64304700  0.73101600  0.41415700  1
  C  441  1  0.36058500  0.42507300  0.76938200  1
  C  442  1  0.40448300  0.40889800  0.78462900  1
  C  443  1  0.32114100  0.40795200  0.78988800  1
  C  444  1  0.32137900  0.36805900  0.78776900  1
  C  447  1  0.36720400  0.35407400  0.80199000  1
  C  448  1  0.40843600  0.36919000  0.78301300  1
  C  453  1  0.40337000  0.36065300  0.74429600  1
  C  454  1  0.36017700  0.37481800  0.72678900  1
  C  457  1  0.32080200  0.36011000  0.74878700  1
  C  460  1  0.35923800  0.41406900  0.73100400  1
  C  463  1  0.36061500  0.57716700  0.23294000  1
  C  464  1  0.40454300  0.59333200  0.21773700  1
  C  465  1  0.32120900  0.59431800  0.21241500  1
  C  466  1  0.32147300  0.63421100  0.21455700  1
  C  469  1  0.36732800  0.64818600  0.20038000  1
  C  470  1  0.40852300  0.63303500  0.21938100  1
  C  475  1  0.40342000  0.64154600  0.25810100  1
  C  476  1  0.36019000  0.62739400  0.27556500  1
  C  479  1  0.32085500  0.64213600  0.25354700  1
  C  482  1  0.35922800  0.58815100  0.27132300  1
  C  485  1  0.36059100  0.76934900  0.57718700  1
  C  486  1  0.40451300  0.78455600  0.59336500  1
  C  487  1  0.32117500  0.78987600  0.59432100  1
  C  488  1  0.32141200  0.78774200  0.63421400  1
  C  491  1  0.36725400  0.80192900  0.64819900  1
  C  492  1  0.40846300  0.78292500  0.63307100  1
  C  497  1  0.40335700  0.74421000  0.64159700  1
  C  498  1  0.36014400  0.72673500  0.62742400  1
  C  501  1  0.32079200  0.74875100  0.64214300  1
  C  504  1  0.35920500  0.73096800  0.58817900  1
  C  507  1  0.36063500  0.23290600  0.42512100  1
  C  508  1  0.40456000  0.21769700  0.40894800  1
  C  509  1  0.32122200  0.21240000  0.40796500  1
  C  510  1  0.32148700  0.21456100  0.36807200  1
  C  513  1  0.36733500  0.20038000  0.35408900  1
  C  514  1  0.40853600  0.21936200  0.36924800  1
  C  519  1  0.40345400  0.25808800  0.36075700  1
  C  520  1  0.36022700  0.27555800  0.37491400  1
  C  523  1  0.32088300  0.25355400  0.36016300  1
  C  526  1  0.35926500  0.27129500  0.41415700  1
  C  529  1  0.36138000  0.42511100  0.23153100  1
  C  530  1  0.40471000  0.40756800  0.21738500  1
  C  531  1  0.32156700  0.40869100  0.21084500  1
  C  532  1  0.31990800  0.36883600  0.21368200  1
  C  535  1  0.36546000  0.35343900  0.20040100  1
  C  536  1  0.40689500  0.36778100  0.21984500  1
  C  541  1  0.40032900  0.36007400  0.25851500  1
  C  542  1  0.35721600  0.37566500  0.27509300  1
  C  545  1  0.31794700  0.36168000  0.25276400  1
  C  548  1  0.35828900  0.41483000  0.27012900  1
  C  551  1  0.36139700  0.57712900  0.77075500  1
  C  552  1  0.40475300  0.59465200  0.78486900  1
  C  553  1  0.32161900  0.59358000  0.79145800  1
  C  554  1  0.32000200  0.63343700  0.78861900  1
  C  557  1  0.36558400  0.64880800  0.80186800  1
  C  558  1  0.40697900  0.63443600  0.78239900  1
  C  563  1  0.40038900  0.64213300  0.74372700  1
  C  564  1  0.35724000  0.62657000  0.72718500  1
  C  567  1  0.31801100  0.64058600  0.74953800  1
  C  570  1  0.35827200  0.58740500  0.73215700  1
  C  573  1  0.36136700  0.77076200  0.42513900  1
  C  574  1  0.40470300  0.78488900  0.40759600  1
  C  575  1  0.32156500  0.79146400  0.40871800  1
  C  576  1  0.31990000  0.78862100  0.36886300  1
  C  579  1  0.36546000  0.80188600  0.35346700  1
  C  580  1  0.40688200  0.78242700  0.36780700  1
  C  585  1  0.40029200  0.74375800  0.36010000  1
  C  586  1  0.35717300  0.72719800  0.37569600  1
  C  589  1  0.31791200  0.74954000  0.36171500  1
  C  592  1  0.35825200  0.73216700  0.41486000  1
  C  595  1  0.36139700  0.23149300  0.57716500  1
  C  596  1  0.40474700  0.21737600  0.59470300  1
  C  597  1  0.32160500  0.21081900  0.59362500  1
  C  598  1  0.31998100  0.21369500  0.63348000  1
  C  601  1  0.36555000  0.20044400  0.64886900  1
  C  602  1  0.40696200  0.21988700  0.63448400  1
  C  607  1  0.40039600  0.25856900  0.64214300  1
  C  608  1  0.35725600  0.27511300  0.62656200  1
  C  611  1  0.31800900  0.25278500  0.64059600  1
  C  614  1  0.35829200  0.27009900  0.58740300  1
  C  617  1  0.64093200  0.57720000  0.23153100  1
  C  618  1  0.59760200  0.59474300  0.21738500  1
  C  619  1  0.68074300  0.59362000  0.21084500  1
  C  620  1  0.68240400  0.63347500  0.21368200  1
  C  623  1  0.63685200  0.64887200  0.20040100  1
  C  624  1  0.59541600  0.63453000  0.21984500  1
  C  629  1  0.60198200  0.64223700  0.25851500  1
  C  630  1  0.64509500  0.62664600  0.27509300  1
  C  633  1  0.68436500  0.64063100  0.25276400  1
  C  636  1  0.64402300  0.58748100  0.27012900  1
  C  639  1  0.64091500  0.42518200  0.77075500  1
  C  640  1  0.59755800  0.40765900  0.78486900  1
  C  641  1  0.68069300  0.40873100  0.79145800  1
  C  642  1  0.68231000  0.36887400  0.78861900  1
  C  645  1  0.63672800  0.35350300  0.80186800  1
  C  646  1  0.59533300  0.36787500  0.78239900  1
  C  651  1  0.60192200  0.36017800  0.74372700  1
  C  652  1  0.64507200  0.37574100  0.72718500  1
  C  655  1  0.68430200  0.36172500  0.74953800  1
  C  658  1  0.64403900  0.41490600  0.73215700  1
  C  661  1  0.64094500  0.23155000  0.42513900  1
  C  662  1  0.59760800  0.21742200  0.40759600  1
  C  663  1  0.68074600  0.21084800  0.40871800  1
  C  664  1  0.68241000  0.21368800  0.36886300  1
  C  667  1  0.63685200  0.20042600  0.35346700  1
  C  668  1  0.59543000  0.21988600  0.36780700  1
  C  673  1  0.60201900  0.25855300  0.36010000  1
  C  674  1  0.64513900  0.27511300  0.37569600  1
  C  677  1  0.68439900  0.25277100  0.36171500  1
  C  680  1  0.64405900  0.27014400  0.41486000  1
  C  683  1  0.64091500  0.77081800  0.57716500  1
  C  684  1  0.59756500  0.78493500  0.59470300  1
  C  685  1  0.68070600  0.79149100  0.59362500  1
  C  686  1  0.68233000  0.78861600  0.63348000  1
  C  689  1  0.63676100  0.80186600  0.64886900  1
  C  690  1  0.59534900  0.78242400  0.63448400  1
  C  695  1  0.60191600  0.74374200  0.64214300  1
  C  696  1  0.64505500  0.72719800  0.62656200  1
  C  699  1  0.68430200  0.74952500  0.64059600  1
  C  702  1  0.64401900  0.73221200  0.58740300  1
  C  705  1  0.18741600  0.98229200  0.26533500  1
  C  706  1  0.18941600  0.01816600  0.26416400  1
  C  707  1  0.15063400  0.03854500  0.26893300  1
  C  708  1  0.11084300  0.01984700  0.27460500  1
  C  709  1  0.10856800  0.98436100  0.27583300  1
  C  710  1  0.14714900  0.96383900  0.27029100  1
  C  717  1  0.18742200  0.02005400  0.73695600  1
  C  718  1  0.18942200  0.98417900  0.73813200  1
  C  719  1  0.15063600  0.96380100  0.73338000  1
  C  720  1  0.11084800  0.98250000  0.72768900  1
  C  721  1  0.10857800  0.01798600  0.72644500  1
  C  722  1  0.14715700  0.03850600  0.73198700  1
  C  729  1  0.18746200  0.73694600  0.98227000  1
  C  730  1  0.18945800  0.73812100  0.01814400  1
  C  731  1  0.15066900  0.73337000  0.03851900  1
  C  732  1  0.11088100  0.72768600  0.01981900  1
  C  733  1  0.10861300  0.72645000  0.98433000  1
  C  734  1  0.14719600  0.73199200  0.96381400  1
  C  741  1  0.18736700  0.26537800  0.02003500  1
  C  742  1  0.18936200  0.26419500  0.98416400  1
  C  743  1  0.15057100  0.26894300  0.96378900  1
  C  744  1  0.11078400  0.27463700  0.98248700  1
  C  745  1  0.10852100  0.27588400  0.01797300  1
  C  746  1  0.14710400  0.27034400  0.03848800  1
  C  753  1  0.81489700  0.02002000  0.26533500  1
  C  754  1  0.81289500  0.98414600  0.26416400  1
  C  755  1  0.85167700  0.96376600  0.26893300  1
  C  756  1  0.89146900  0.98246400  0.27460500  1
  C  757  1  0.89374400  0.01795100  0.27583300  1
  C  758  1  0.85516300  0.03847100  0.27029100  1
  C  765  1  0.81489000  0.98225700  0.73695600  1
  C  766  1  0.81288800  0.01813100  0.73813200  1
  C  767  1  0.85167400  0.03851000  0.73338000  1
  C  768  1  0.89146500  0.01981200  0.72768900  1
  C  769  1  0.89373400  0.98432500  0.72644500  1
  C  770  1  0.85515600  0.96380400  0.73198700  1
  C  777  1  0.81485000  0.26536500  0.98227000  1
  C  778  1  0.81285500  0.26418900  0.01814400  1
  C  779  1  0.85164400  0.26894100  0.03851900  1
  C  780  1  0.89143200  0.27462500  0.01981900  1
  C  781  1  0.89369700  0.27586100  0.98433000  1
  C  782  1  0.85511600  0.27031900  0.96381400  1
  C  789  1  0.81494400  0.73693300  0.02003500  1
  C  790  1  0.81294900  0.73811600  0.98416400  1
  C  791  1  0.85174100  0.73336800  0.96378900  1
  C  792  1  0.89152900  0.72767400  0.98248700  1
  C  793  1  0.89379100  0.72642700  0.01797300  1
  C  794  1  0.85520900  0.73196700  0.03848800  1
  C  801  1  0.67812700  0.48257400  0.76131300  1
  C  802  1  0.67929300  0.51838100  0.75984400  1
  C  803  1  0.64316000  0.53842000  0.77207200  1
  C  804  1  0.60734200  0.51965800  0.78627500  1
  C  805  1  0.60600900  0.48409700  0.78772600  1
  C  806  1  0.64107200  0.46394400  0.77388800  1
  C  813  1  0.67812300  0.51980200  0.24098100  1
  C  814  1  0.67928900  0.48399300  0.24244300  1
  C  815  1  0.64314000  0.46396200  0.23023500  1
  C  816  1  0.60732200  0.48272900  0.21603600  1
  C  817  1  0.60600200  0.51829000  0.21457800  1
  C  818  1  0.64107500  0.53843800  0.22840400  1
  C  825  1  0.67814300  0.24099200  0.48253400  1
  C  826  1  0.67930600  0.24246400  0.51833800  1
  C  827  1  0.64315000  0.23026300  0.53837200  1
  C  828  1  0.60732900  0.21606900  0.51961000  1
  C  829  1  0.60600600  0.21460900  0.48404900  1
  C  830  1  0.64108200  0.22842800  0.46390100  1
  C  837  1  0.67812700  0.76140200  0.51977200  1
  C  838  1  0.67928300  0.75992500  0.48396800  1
  C  839  1  0.64313000  0.77213000  0.46393400  1
  C  840  1  0.60732600  0.78634800  0.48269800  1
  C  841  1  0.60600900  0.78781500  0.51826000  1
  C  842  1  0.64107900  0.77398100  0.53840500  1
  C  849  1  0.32418400  0.51973600  0.76131300  1
  C  850  1  0.32301800  0.48393000  0.75984400  1
  C  851  1  0.35915100  0.46389100  0.77207200  1
  C  852  1  0.39496900  0.48265300  0.78627500  1
  C  853  1  0.39630300  0.51821400  0.78772600  1
  C  854  1  0.36124000  0.53836700  0.77388800  1
  C  861  1  0.32418800  0.48250900  0.24098100  1
  C  862  1  0.32302200  0.51831800  0.24244300  1
  C  863  1  0.35917100  0.53834900  0.23023500  1
  C  864  1  0.39498900  0.51958200  0.21603600  1
  C  865  1  0.39630900  0.48402100  0.21457800  1
  C  866  1  0.36123600  0.46387300  0.22840400  1
  C  873  1  0.32416900  0.76131800  0.48253400  1
  C  874  1  0.32300700  0.75984700  0.51833800  1
  C  875  1  0.35916100  0.77204700  0.53837200  1
  C  876  1  0.39498300  0.78624200  0.51961000  1
  C  877  1  0.39630600  0.78770100  0.48404900  1
  C  878  1  0.36123000  0.77388300  0.46390100  1
  C  885  1  0.32418600  0.24091000  0.51977200  1
  C  886  1  0.32302900  0.24238600  0.48396800  1
  C  887  1  0.35918100  0.23018000  0.46393400  1
  C  888  1  0.39498600  0.21596200  0.48269800  1
  C  889  1  0.39630300  0.21449600  0.51826000  1
  C  890  1  0.36123300  0.22833000  0.53840500  1
  C  897  1  0.27938800  0.15925600  0.35642800  1
  C  898  1  0.24758100  0.13869400  0.33943400  1
  C  899  1  0.21467600  0.15307100  0.31776700  1
  C  900  1  0.21502800  0.18892600  0.31649200  1
  C  901  1  0.24744500  0.20934600  0.33217200  1
  C  902  1  0.28216300  0.19494600  0.35231700  1
  C  909  1  0.27932800  0.84305600  0.64585200  1
  C  910  1  0.24753700  0.86362600  0.66285700  1
  C  911  1  0.21463400  0.84925800  0.68453400  1
  C  912  1  0.21497500  0.81340100  0.68580800  1
  C  913  1  0.24736600  0.79297600  0.67010900  1
  C  914  1  0.28207700  0.80736300  0.64994900  1
  C  921  1  0.27939300  0.64587000  0.15924500  1
  C  922  1  0.24759700  0.66287500  0.13868000  1
  C  923  1  0.21464200  0.68450400  0.15304900  1
  C  924  1  0.21502400  0.68580300  0.18890400  1
  C  925  1  0.24743600  0.67012400  0.20932800  1
  C  926  1  0.28215200  0.64996900  0.19493700  1
  C  933  1  0.27924800  0.35644600  0.84306300  1
  C  934  1  0.24745200  0.33944400  0.86362600  1
  C  935  1  0.21457700  0.31774700  0.84925300  1
  C  936  1  0.21493800  0.31645900  0.81339900  1
  C  937  1  0.24733400  0.33216200  0.79297800  1
  C  938  1  0.28202700  0.35233200  0.80737600  1
  C  945  1  0.72292400  0.84305600  0.35642800  1
  C  946  1  0.75473200  0.86361500  0.33943400  1
  C  947  1  0.78763600  0.84924100  0.31776700  1
  C  948  1  0.78728500  0.81338600  0.31649200  1
  C  949  1  0.75486600  0.79296500  0.33217200  1
  C  950  1  0.72015000  0.80736600  0.35231700  1
  C  957  1  0.72298400  0.15925600  0.64585200  1
  C  958  1  0.75477500  0.13868600  0.66285700  1
  C  959  1  0.78767600  0.15305300  0.68453400  1
  C  960  1  0.78733600  0.18890900  0.68580800  1
  C  961  1  0.75494600  0.20933600  0.67010900  1
  C  962  1  0.72023400  0.19494900  0.64994900  1
  C  969  1  0.72291700  0.35644100  0.15924500  1
  C  970  1  0.75471500  0.33943600  0.13868000  1
  C  971  1  0.78767000  0.31780700  0.15304900  1
  C  972  1  0.78728900  0.31650800  0.18890400  1
  C  973  1  0.75487600  0.33218700  0.20932800  1
  C  974  1  0.72016000  0.35234200  0.19493700  1
  C  981  1  0.72306400  0.64586500  0.84306300  1
  C  982  1  0.75485900  0.66286700  0.86362600  1
  C  983  1  0.78773300  0.68456400  0.84925300  1
  C  984  1  0.78737600  0.68585100  0.81339900  1
  C  985  1  0.75497600  0.67014900  0.79297800  1
  C  986  1  0.72028400  0.64997900  0.80737600  1
  C  993  1  0.72440400  0.84404200  0.64497000  1
  C  994  1  0.75734800  0.86438900  0.66093500  1
  C  995  1  0.79053300  0.84993100  0.68231100  1
  C  996  1  0.79022300  0.81408900  0.68334100  1
  C  997  1  0.75760200  0.79375900  0.66786100  1
  C  998  1  0.72205500  0.80827600  0.64861900  1
  C  1005  1  0.72446400  0.15824800  0.35738100  1
  C  1006  1  0.75739500  0.13789400  0.34140600  1
  C  1007  1  0.79058400  0.15234400  0.32003200  1
  C  1008  1  0.79029600  0.18818700  0.31901600  1
  C  1009  1  0.75770600  0.20852300  0.33451800  1
  C  1010  1  0.72215200  0.19401700  0.35376100  1
  C  1017  1  0.72435400  0.35736100  0.84405700  1
  C  1018  1  0.75728500  0.34138600  0.86440700  1
  C  1019  1  0.79054700  0.32007000  0.84995900  1
  C  1020  1  0.79019900  0.31901600  0.81411700  1
  C  1021  1  0.75757900  0.33449100  0.79378200  1
  C  1022  1  0.72202800  0.35373300  0.80829100  1
  C  1029  1  0.72449400  0.64494200  0.15825900  1
  C  1030  1  0.75743200  0.66091500  0.13791100  1
  C  1031  1  0.79059700  0.68230900  0.15236600  1
  C  1032  1  0.79028300  0.68334800  0.18820800  1
  C  1033  1  0.75768600  0.66784300  0.20853700  1
  C  1034  1  0.72215200  0.64858600  0.19402500  1
  C  1041  1  0.27790700  0.15826900  0.64497000  1
  C  1042  1  0.24496200  0.13792300  0.66093500  1
  C  1043  1  0.21177900  0.15238000  0.68231100  1
  C  1044  1  0.21208800  0.18822200  0.68334100  1
  C  1045  1  0.24471100  0.20855000  0.66786100  1
  C  1046  1  0.28025600  0.19403400  0.64861900  1
  C  1053  1  0.27784600  0.84406200  0.35738100  1
  C  1054  1  0.24491800  0.86441700  0.34140600  1
  C  1055  1  0.21172700  0.84996600  0.32003200  1
  C  1056  1  0.21201400  0.81412400  0.31901600  1
  C  1057  1  0.24460600  0.79378700  0.33451800  1
  C  1058  1  0.28015900  0.80829300  0.35376100  1
  C  1065  1  0.27795900  0.64495000  0.84405700  1
  C  1066  1  0.24502600  0.66092500  0.86440700  1
  C  1067  1  0.21176600  0.68224100  0.84995900  1
  C  1068  1  0.21211100  0.68329500  0.81411700  1
  C  1069  1  0.24473100  0.66782000  0.79378200  1
  C  1070  1  0.28028200  0.64857800  0.80829100  1
  C  1077  1  0.27781700  0.35736900  0.15825900  1
  C  1078  1  0.24488100  0.34139600  0.13791100  1
  C  1079  1  0.21171600  0.32000200  0.15236600  1
  C  1080  1  0.21202800  0.31896300  0.18820800  1
  C  1081  1  0.24462700  0.33446800  0.20853700  1
  C  1082  1  0.28015900  0.35372500  0.19402500  1
  C  1089  1  0.21658000  0.16203200  0.18708300  1
  C  1090  1  0.21784500  0.18809100  0.16275000  1
  C  1091  1  0.18019100  0.19428700  0.14163000  1
  C  1092  1  0.14998100  0.16669500  0.13914500  1
  C  1093  1  0.14749000  0.14162500  0.16470800  1
  C  1094  1  0.17744200  0.14260800  0.19269400  1
  C  1101  1  0.21660200  0.84028700  0.81519400  1
  C  1102  1  0.21788200  0.81420000  0.83949800  1
  C  1103  1  0.18020100  0.80800500  0.86059400  1
  C  1104  1  0.15008000  0.83564200  0.86320100  1
  C  1105  1  0.14756600  0.86070300  0.83763000  1
  C  1106  1  0.17749800  0.85976700  0.80963100  1
  C  1113  1  0.21663600  0.81521700  0.16202900  1
  C  1114  1  0.21786700  0.83951800  0.18812100  1
  C  1115  1  0.18015000  0.86057400  0.19431400  1
  C  1116  1  0.15000900  0.86314300  0.16669500  1
  C  1117  1  0.14756900  0.83760400  0.14159400  1
  C  1118  1  0.17753300  0.80962100  0.14256000  1
  C  1125  1  0.21654700  0.18707300  0.84033500  1
  C  1126  1  0.21782200  0.16278500  0.81423600  1
  C  1127  1  0.18011600  0.14172500  0.80802300  1
  C  1128  1  0.14997500  0.13910800  0.83564500  1
  C  1129  1  0.14748100  0.16466700  0.86071500  1
  C  1130  1  0.17744500  0.19265000  0.85981500  1
  C  1137  1  0.78573200  0.84028000  0.18708300  1
  C  1138  1  0.78446500  0.81422000  0.16275000  1
  C  1139  1  0.82212100  0.80802300  0.14163000  1
  C  1140  1  0.85232900  0.83561700  0.13914500  1
  C  1141  1  0.85482200  0.86068700  0.16470800  1
  C  1142  1  0.82486800  0.85970400  0.19269400  1
  C  1149  1  0.78570800  0.16202300  0.81519400  1
  C  1150  1  0.78442800  0.18811100  0.83949800  1
  C  1151  1  0.82211100  0.19430500  0.86059400  1
  C  1152  1  0.85223200  0.16666800  0.86320100  1
  C  1153  1  0.85474500  0.14160800  0.83763000  1
  C  1154  1  0.82481400  0.14254400  0.80963100  1
  C  1161  1  0.78567500  0.18709300  0.16202900  1
  C  1162  1  0.78444500  0.16279400  0.18812100  1
  C  1163  1  0.82216100  0.14173700  0.19431400  1
  C  1164  1  0.85230200  0.13916900  0.16669500  1
  C  1165  1  0.85474200  0.16470600  0.14159400  1
  C  1166  1  0.82477800  0.19269100  0.14256000  1
  C  1173  1  0.78576500  0.81523700  0.84033500  1
  C  1174  1  0.78448900  0.83952600  0.81423600  1
  C  1175  1  0.82219500  0.86058600  0.80802300  1
  C  1176  1  0.85233600  0.86320300  0.83564500  1
  C  1177  1  0.85483200  0.83764500  0.86071500  1
  C  1178  1  0.82486800  0.80966100  0.85981500  1
  C  1185  1  0.68652100  0.64951400  0.67541100  1
  C  1186  1  0.68875900  0.67511300  0.65057600  1
  C  1187  1  0.64898100  0.68991700  0.63750100  1
  C  1188  1  0.61014300  0.66990600  0.64247400  1
  C  1189  1  0.60756600  0.64553600  0.66866500  1
  C  1190  1  0.64527900  0.63904800  0.68966400  1
  C  1197  1  0.68653100  0.35286000  0.32688500  1
  C  1198  1  0.68880000  0.32719600  0.35165200  1
  C  1199  1  0.64900500  0.31237600  0.36468400  1
  C  1200  1  0.61019300  0.33245300  0.35987200  1
  C  1201  1  0.60760000  0.35685300  0.33371200  1
  C  1202  1  0.64528600  0.36341700  0.31270700  1
  C  1209  1  0.68657700  0.32692800  0.64947800  1
  C  1210  1  0.68880000  0.35172000  0.67511800  1
  C  1211  1  0.64897800  0.36471200  0.68992700  1
  C  1212  1  0.61017600  0.35985700  0.66985800  1
  C  1213  1  0.60763300  0.33370900  0.64544000  1
  C  1214  1  0.64534900  0.31270500  0.63894700  1
  C  1221  1  0.68648100  0.67541100  0.35288600  1
  C  1222  1  0.68875300  0.65066700  0.32720100  1
  C  1223  1  0.64895100  0.63768300  0.31235100  1
  C  1224  1  0.61012600  0.64248400  0.33241200  1
  C  1225  1  0.60753900  0.66862700  0.35683000  1
  C  1226  1  0.64524200  0.68960100  0.36345000  1
  C  1233  1  0.31579200  0.35279700  0.67541100  1
  C  1234  1  0.31355300  0.32719800  0.65057600  1
  C  1235  1  0.35333000  0.31239400  0.63750100  1
  C  1236  1  0.39216900  0.33240400  0.64247400  1
  C  1237  1  0.39474500  0.35677500  0.66866500  1
  C  1238  1  0.35703300  0.36326300  0.68966400  1
  C  1245  1  0.31578000  0.64945100  0.32688500  1
  C  1246  1  0.31351200  0.67511500  0.35165200  1
  C  1247  1  0.35330700  0.68993500  0.36468400  1
  C  1248  1  0.39211900  0.66985800  0.35987200  1
  C  1249  1  0.39471200  0.64545800  0.33371200  1
  C  1250  1  0.35702600  0.63889400  0.31270700  1
  C  1257  1  0.31573300  0.67538300  0.64947800  1
  C  1258  1  0.31351000  0.65059100  0.67511800  1
  C  1259  1  0.35333300  0.63759900  0.68992700  1
  C  1260  1  0.39213600  0.64245400  0.66985800  1
  C  1261  1  0.39467900  0.66860200  0.64544000  1
  C  1262  1  0.35696200  0.68960600  0.63894700  1
  C  1269  1  0.31583200  0.32690000  0.35288600  1
  C  1270  1  0.31356000  0.35164400  0.32720100  1
  C  1271  1  0.35336000  0.36462800  0.31235100  1
  C  1272  1  0.39218600  0.35982600  0.33241200  1
  C  1273  1  0.39477200  0.33368400  0.35683000  1
  C  1274  1  0.35706900  0.31271000  0.36345000  1
  C  1281  1  0.97724300  0.13233000  0.30678000  1
  C  1282  1  0.02452200  0.13089900  0.30765800  1
  C  1283  1  0.05050800  0.14320000  0.28008600  1
  C  1284  1  0.02635400  0.16317800  0.25653600  1
  C  1285  1  0.97925800  0.16342600  0.25484900  1
  C  1286  1  0.95320100  0.14435700  0.27822500  1
  C  1293  1  0.97723700  0.86995200  0.69555300  1
  C  1294  1  0.02451600  0.87141900  0.69469100  1
  C  1295  1  0.05048500  0.85917000  0.72229500  1
  C  1296  1  0.02635300  0.83916700  0.74583600  1
  C  1297  1  0.97925500  0.83887600  0.74748700  1
  C  1298  1  0.95316700  0.85787600  0.72407300  1
  C  1305  1  0.97727000  0.69555100  0.13237600  1
  C  1306  1  0.02454600  0.69468900  0.13091300  1
  C  1307  1  0.05051500  0.72229500  0.14315600  1
  C  1308  1  0.02638200  0.74583900  0.16315300  1
  C  1309  1  0.97928200  0.74750700  0.16342500  1
  C  1310  1  0.95322100  0.72410600  0.14439000  1
  C  1317  1  0.97718600  0.30673500  0.86994200  1
  C  1318  1  0.02446400  0.30760200  0.87139600  1
  C  1319  1  0.05043300  0.28000000  0.85914000  1
  C  1320  1  0.02629000  0.25644500  0.83916200  1
  C  1321  1  0.97919100  0.25478800  0.83888100  1
  C  1322  1  0.95311700  0.27821000  0.85788300  1
  C  1329  1  0.02506800  0.86998200  0.30678000  1
  C  1330  1  0.97779100  0.87141300  0.30765800  1
  C  1331  1  0.95180400  0.85911200  0.28008600  1
  C  1332  1  0.97595700  0.83913200  0.25653600  1
  C  1333  1  0.02305400  0.83888400  0.25484900  1
  C  1334  1  0.04911100  0.85795400  0.27822500  1
  C  1341  1  0.02507400  0.13235900  0.69555300  1
  C  1342  1  0.97779500  0.13089200  0.69469100  1
  C  1343  1  0.95182700  0.14314100  0.72229500  1
  C  1344  1  0.97596000  0.16314300  0.74583600  1
  C  1345  1  0.02305800  0.16343600  0.74748700  1
  C  1346  1  0.04914300  0.14443600  0.72407300  1
  C  1353  1  0.02504300  0.30676000  0.13237600  1
  C  1354  1  0.97776400  0.30762200  0.13091300  1
  C  1355  1  0.95179700  0.28001600  0.14315600  1
  C  1356  1  0.97593000  0.25647200  0.16315300  1
  C  1357  1  0.02302800  0.25480400  0.16342500  1
  C  1358  1  0.04909200  0.27820500  0.14439000  1
  C  1365  1  0.02512600  0.69557600  0.86994200  1
  C  1366  1  0.97784800  0.69470900  0.87139600  1
  C  1367  1  0.95187700  0.72231000  0.85914000  1
  C  1368  1  0.97602400  0.74586600  0.83916200  1
  C  1369  1  0.02312000  0.74752300  0.83888100  1
  C  1370  1  0.04919300  0.72410100  0.85788300  1
  C  1377  1  0.47576500  0.63011700  0.82148500  1
  C  1378  1  0.52300800  0.62804100  0.82156800  1
  C  1379  1  0.54866800  0.64567500  0.79689500  1
  C  1380  1  0.52516000  0.67247300  0.78095700  1
  C  1381  1  0.47797700  0.67308200  0.77929900  1
  C  1382  1  0.45222700  0.64760200  0.79566100  1
  C  1389  1  0.47569100  0.37211800  0.18081900  1
  C  1390  1  0.52293100  0.37428500  0.18080100  1
  C  1391  1  0.54852100  0.35674900  0.20558400  1
  C  1392  1  0.52510300  0.32986100  0.22143700  1
  C  1393  1  0.47791700  0.32916300  0.22299000  1
  C  1394  1  0.45207700  0.35453400  0.20653700  1
  C  1401  1  0.47577200  0.18081100  0.63019100  1
  C  1402  1  0.52301500  0.18078700  0.62806900  1
  C  1403  1  0.54859100  0.20558200  0.64560200  1
  C  1404  1  0.52513300  0.22147000  0.67245000  1
  C  1405  1  0.47794700  0.22303400  0.67311300  1
  C  1406  1  0.45218400  0.20660700  0.64767800  1
  C  1413  1  0.47566500  0.82145700  0.37211800  1
  C  1414  1  0.52290800  0.82150500  0.37425700  1
  C  1415  1  0.54852700  0.79675300  0.35669400  1
  C  1416  1  0.52508300  0.78087400  0.32983000  1
  C  1417  1  0.47790400  0.77927300  0.32916500  1
  C  1418  1  0.45208300  0.79570100  0.35456200  1
  C  1425  1  0.52654700  0.37219400  0.82148500  1
  C  1426  1  0.47930400  0.37427000  0.82156800  1
  C  1427  1  0.45364400  0.35663500  0.79689500  1
  C  1428  1  0.47715200  0.32983800  0.78095700  1
  C  1429  1  0.52433500  0.32922900  0.77929900  1
  C  1430  1  0.55008500  0.35470900  0.79566100  1
  C  1437  1  0.52662000  0.63019300  0.18081900  1
  C  1438  1  0.47938100  0.62802600  0.18080100  1
  C  1439  1  0.45379100  0.64556200  0.20558400  1
  C  1440  1  0.47720800  0.67245000  0.22143700  1
  C  1441  1  0.52439500  0.67314800  0.22299000  1
  C  1442  1  0.55023500  0.64777700  0.20653700  1
  C  1449  1  0.52654000  0.82150000  0.63019100  1
  C  1450  1  0.47929700  0.82152300  0.62806900  1
  C  1451  1  0.45372100  0.79672800  0.64560200  1
  C  1452  1  0.47717800  0.78084100  0.67245000  1
  C  1453  1  0.52436500  0.77927600  0.67311300  1
  C  1454  1  0.55012800  0.79570400  0.64767800  1
  C  1461  1  0.52664700  0.18085400  0.37211800  1
  C  1462  1  0.47940400  0.18080700  0.37425700  1
  C  1463  1  0.45378400  0.20555700  0.35669400  1
  C  1464  1  0.47722900  0.22143700  0.32983000  1
  C  1465  1  0.52440800  0.22303800  0.32916500  1
  C  1466  1  0.55022800  0.20660800  0.35456200  1
  O  712  1  0.23030100  0.03238700  0.25903400  1
  O  714  1  0.06628600  0.97267400  0.28108300  1
  O  724  1  0.23030800  0.96995800  0.74325700  1
  O  726  1  0.06630200  0.02967500  0.72118000  1
  O  736  1  0.23034300  0.74324400  0.03236700  1
  O  738  1  0.06633600  0.72119300  0.97264100  1
  O  748  1  0.23024700  0.25906700  0.96994100  1
  O  750  1  0.06624500  0.28115100  0.02966500  1
  O  760  1  0.77201100  0.96992300  0.25903400  1
  O  762  1  0.93602500  0.02963700  0.28108300  1
  O  772  1  0.77200400  0.03235300  0.74325700  1
  O  774  1  0.93600800  0.97263600  0.72118000  1
  O  784  1  0.77196800  0.25906700  0.03236700  1
  O  786  1  0.93597500  0.28111800  0.97264100  1
  O  796  1  0.77206500  0.74324400  0.96994100  1
  O  798  1  0.93606500  0.72116000  0.02966500  1
  O  808  1  0.71699200  0.53281200  0.74696900  1
  O  810  1  0.56795900  0.47167600  0.80193200  1
  O  820  1  0.71699900  0.46955800  0.25529400  1
  O  822  1  0.56794900  0.53071800  0.20038600  1
  O  832  1  0.71701200  0.25531900  0.53276900  1
  O  834  1  0.56794900  0.20042200  0.47161800  1
  O  844  1  0.71698200  0.74705500  0.46953200  1
  O  846  1  0.56797200  0.80203000  0.53068800  1
  O  856  1  0.28532100  0.46949900  0.74696900  1
  O  858  1  0.43435300  0.53063400  0.80193200  1
  O  868  1  0.28531400  0.53275300  0.25529400  1
  O  870  1  0.43436300  0.47159300  0.20038600  1
  O  880  1  0.28529800  0.74699200  0.53276900  1
  O  882  1  0.43436300  0.80188900  0.47161800  1
  O  892  1  0.28532900  0.25525600  0.46953200  1
  O  894  1  0.43434000  0.20028100  0.53068800  1
  O  904  1  0.24954800  0.10486900  0.34542600  1
  O  906  1  0.24121000  0.24306300  0.32677800  1
  O  916  1  0.24952000  0.89745000  0.65686900  1
  O  918  1  0.24109600  0.75925800  0.67548400  1
  O  928  1  0.24958300  0.65689000  0.10485400  1
  O  930  1  0.24119300  0.67552200  0.24304400  1
  O  940  1  0.24940600  0.34545200  0.89745000  1
  O  942  1  0.24109000  0.32677600  0.75926000  1
  O  952  1  0.75276400  0.89744200  0.34542600  1
  O  954  1  0.76110100  0.75924700  0.32677800  1
  O  964  1  0.75279000  0.10486100  0.65686900  1
  O  966  1  0.76121500  0.24305300  0.67548400  1
  O  976  1  0.75272700  0.34542100  0.10485400  1
  O  978  1  0.76111800  0.32678900  0.24304400  1
  O  988  1  0.75290700  0.65685900  0.89745000  1
  O  990  1  0.76122100  0.67553500  0.75926000  1
  O  1000  1  0.75369900  0.89828400  0.65627800  1
  O  1002  1  0.76436900  0.76004600  0.67289500  1
  O  1012  1  0.75371300  0.10399700  0.34604100  1
  O  1014  1  0.76452900  0.24223700  0.32951900  1
  O  1024  1  0.75360200  0.34602100  0.89830400  1
  O  1026  1  0.76436900  0.32944900  0.76007200  1
  O  1036  1  0.75378300  0.65625000  0.10401600  1
  O  1038  1  0.76448300  0.67285700  0.24225200  1
  O  1048  1  0.24861400  0.10402700  0.65627800  1
  O  1050  1  0.23794100  0.24226500  0.67289500  1
  O  1060  1  0.24859800  0.89831500  0.34604100  1
  O  1062  1  0.23778100  0.76007400  0.32951900  1
  O  1072  1  0.24870900  0.65629000  0.89830400  1
  O  1074  1  0.23794200  0.67286200  0.76007200  1
  O  1084  1  0.24852900  0.34606100  0.10401600  1
  O  1086  1  0.23783000  0.32945400  0.24225200  1
  O  1096  1  0.25652400  0.20617500  0.16011900  1
  O  1098  1  0.11505100  0.11737000  0.16276100  1
  O  1108  1  0.25654400  0.79608600  0.84208200  1
  O  1110  1  0.11514200  0.88496400  0.83960900  1
  O  1120  1  0.25652000  0.84212000  0.20624100  1
  O  1122  1  0.11517600  0.83957700  0.11730600  1
  O  1132  1  0.25648600  0.16020100  0.79612400  1
  O  1134  1  0.11505600  0.16268800  0.88497900  1
  O  1144  1  0.74578700  0.79613600  0.16011900  1
  O  1146  1  0.88726200  0.88494100  0.16276100  1
  O  1156  1  0.74576600  0.20622500  0.84208200  1
  O  1158  1  0.88717100  0.11734600  0.83960900  1
  O  1168  1  0.74579000  0.16019000  0.20624100  1
  O  1170  1  0.88713500  0.16273500  0.11730600  1
  O  1180  1  0.74582700  0.84211000  0.79612400  1
  O  1182  1  0.88725500  0.83962200  0.88497900  1
  O  1192  1  0.72986100  0.68339400  0.63818100  1
  O  1194  1  0.56886800  0.62767200  0.67243000  1
  O  1204  1  0.72992400  0.31886200  0.36396600  1
  O  1206  1  0.56890100  0.37473000  0.33000200  1
  O  1216  1  0.72990100  0.36408700  0.68344900  1
  O  1218  1  0.56897800  0.32999000  0.62751300  1
  O  1228  1  0.72987400  0.63835300  0.31886400  1
  O  1230  1  0.56883700  0.67233100  0.37470200  1
  O  1240  1  0.27245100  0.31891700  0.63818100  1
  O  1242  1  0.43344400  0.37463900  0.67243000  1
  O  1252  1  0.27238700  0.68344900  0.36396600  1
  O  1254  1  0.43341100  0.62758100  0.33000200  1
  O  1264  1  0.27241100  0.63822400  0.68344900  1
  O  1266  1  0.43333400  0.67232100  0.62751300  1
  O  1276  1  0.27243600  0.36395800  0.31886400  1
  O  1278  1  0.43347400  0.32998000  0.37470200  1
  O  1288  1  0.04425600  0.11733900  0.33567900  1
  O  1290  1  0.96109300  0.18360700  0.23051000  1
  O  1300  1  0.04424600  0.88499400  0.66666667  1
  O  1302  1  0.96109300  0.81867100  0.77180900  1
  O  1312  1  0.04427500  0.66666667  0.11735000  1
  O  1314  1  0.96111700  0.77184700  0.18360500  1
  O  1324  1  0.04419700  0.33562800  0.88495100  1
  O  1326  1  0.96102700  0.23045200  0.81869600  1
  O  1336  1  0.95805600  0.88497100  0.33567900  1
  O  1338  1  0.04121800  0.81870300  0.23051000  1
  O  1348  1  0.95806600  0.11731700  0.66666667  1
  O  1350  1  0.04121800  0.18364100  0.77180900  1
  O  1360  1  0.95803600  0.33564600  0.11735000  1
  O  1362  1  0.04119500  0.23046300  0.18360500  1
  O  1372  1  0.95811600  0.66666667  0.88495100  1
  O  1374  1  0.04128600  0.77186000  0.81869600  1
  O  1384  1  0.54322800  0.61020800  0.84683400  1
  O  1386  1  0.45827500  0.69960900  0.76306500  1
  O  1396  1  0.54315400  0.39216400  0.15557200  1
  O  1398  1  0.45824200  0.30259300  0.23917100  1
  O  1408  1  0.54327100  0.15553700  0.61024000  1
  O  1410  1  0.45822500  0.23921700  0.69966500  1
  O  1420  1  0.54312100  0.84675800  0.39210800  1
  O  1422  1  0.45822500  0.76304500  0.30262300  1
  O  1432  1  0.45908400  0.39210300  0.84683400  1
  O  1434  1  0.54403600  0.30270200  0.76306500  1
  O  1444  1  0.45915700  0.61014700  0.15557200  1
  O  1446  1  0.54407000  0.69971800  0.23917100  1
  O  1456  1  0.45904000  0.84677300  0.61024000  1
  O  1458  1  0.54408700  0.76309300  0.69966500  1
  O  1468  1  0.45919100  0.15555400  0.39210800  1
  O  1470  1  0.54408700  0.23926500  0.30262300  1
