# generated using pymatgen
data_H36C47N4
_symmetry_space_group_name_H-M   'P 1'
_cell_length_a   33.86310000
_cell_length_b   61.67240000
_cell_length_c   61.67290000
_cell_angle_alpha   89.99950000
_cell_angle_beta   90.00000000
_cell_angle_gamma   89.99710000
_symmetry_Int_Tables_number   1
_chemical_formula_structural   H36C47N4
_chemical_formula_sum   'H576 C752 N64'
_cell_volume   128798.83429349
_cell_formula_units_Z   16
loop_
 _symmetry_equiv_pos_site_id
 _symmetry_equiv_pos_as_xyz
  1  'x, y, z'
loop_
 _atom_site_type_symbol
 _atom_site_label
 _atom_site_symmetry_multiplicity
 _atom_site_fract_x
 _atom_site_fract_y
 _atom_site_fract_z
 _atom_site_occupancy
  H  25  1  0.14471500  0.76839000  0.08802300  1
  H  26  1  0.08415600  0.78606300  0.07877400  1
  H  27  1  0.93387000  0.78621700  0.07848500  1
  H  28  1  0.87305400  0.76862800  0.08743600  1
  H  29  1  0.93395800  0.71003100  0.09625800  1
  H  30  1  0.08329600  0.70992800  0.09687000  1
  H  31  1  0.01069400  0.72661000  0.04693300  1
  H  32  1  0.00866000  0.66007800  0.03243900  1
  H  33  1  0.00672500  0.65196200  0.07034800  1
  H  34  1  0.00915100  0.75129900  0.12529100  1
  H  35  1  0.00607800  0.67703500  0.14958700  1
  H  36  1  0.00688700  0.70581600  0.17577500  1
  H  39  1  0.00891800  0.78452100  0.09023200  1
  H  40  1  0.00913700  0.77708500  0.06255000  1
  H  42  1  0.98041900  0.66917300  0.10827200  1
  H  43  1  0.03260800  0.66851700  0.10860100  1
  H  47  1  0.15091200  0.71169800  0.10739200  1
  H  48  1  0.86648400  0.71188300  0.10668900  1
  H  49  1  0.01416800  0.76411800  0.16075600  1
  H  51  1  0.02024200  0.71498400  0.00977500  1
  H  76  1  0.14470600  0.32806000  0.81559700  1
  H  77  1  0.08414600  0.31038600  0.82484000  1
  H  78  1  0.93384000  0.31021900  0.82511500  1
  H  79  1  0.87302800  0.32780300  0.81615300  1
  H  80  1  0.93392000  0.38639700  0.80730800  1
  H  81  1  0.08325400  0.38650800  0.80670000  1
  H  82  1  0.01067400  0.36982400  0.85663700  1
  H  83  1  0.00859200  0.43635600  0.87113300  1
  H  84  1  0.00665100  0.44447100  0.83322300  1
  H  85  1  0.00908100  0.34513500  0.77828200  1
  H  86  1  0.00600400  0.41939700  0.75398300  1
  H  87  1  0.00679000  0.39061400  0.72779500  1
  H  90  1  0.00889300  0.31191100  0.81335800  1
  H  91  1  0.00912600  0.31935500  0.84103800  1
  H  93  1  0.98035700  0.42726000  0.79530200  1
  H  94  1  0.03254700  0.42791700  0.79496500  1
  H  98  1  0.15089800  0.38475800  0.79622300  1
  H  99  1  0.86644800  0.38454200  0.79688700  1
  H  100  1  0.01398900  0.33230600  0.74282400  1
  H  102  1  0.02016200  0.38144300  0.89379600  1
  H  127  1  0.14471600  0.91197400  0.67195800  1
  H  128  1  0.08415900  0.92122200  0.68963200  1
  H  129  1  0.93387600  0.92151900  0.68978800  1
  H  130  1  0.87306000  0.91255500  0.67220300  1
  H  131  1  0.93396400  0.90373400  0.61360400  1
  H  132  1  0.08329000  0.90312900  0.61349900  1
  H  133  1  0.01070200  0.95306800  0.63018000  1
  H  134  1  0.00864900  0.96756000  0.56364800  1
  H  135  1  0.00670400  0.92965100  0.55553400  1
  H  136  1  0.00914500  0.87471000  0.65487200  1
  H  137  1  0.00605800  0.85041200  0.58060900  1
  H  138  1  0.00686400  0.82422400  0.60939200  1
  H  141  1  0.00892100  0.90976200  0.68809000  1
  H  142  1  0.00914200  0.93744700  0.68066100  1
  H  144  1  0.98040400  0.89172800  0.57274700  1
  H  145  1  0.03259300  0.89139600  0.57209000  1
  H  149  1  0.15091100  0.89261400  0.61526400  1
  H  150  1  0.86647800  0.89333000  0.61544600  1
  H  151  1  0.01412600  0.83924600  0.66769500  1
  H  153  1  0.02029200  0.99022200  0.61854700  1
  H  178  1  0.14467400  0.18441400  0.23161600  1
  H  179  1  0.08410800  0.17515900  0.21394700  1
  H  180  1  0.93380800  0.17486500  0.21379300  1
  H  181  1  0.87299200  0.18381900  0.23138400  1
  H  182  1  0.93390800  0.19268100  0.28997100  1
  H  183  1  0.08323900  0.19330300  0.29006600  1
  H  184  1  0.01065500  0.14335800  0.27339300  1
  H  185  1  0.00862700  0.12886500  0.33992700  1
  H  186  1  0.00668100  0.16677500  0.34803800  1
  H  187  1  0.00906400  0.22171200  0.24869900  1
  H  188  1  0.00600700  0.24601600  0.32295900  1
  H  189  1  0.00677800  0.27220100  0.29417400  1
  H  192  1  0.00886800  0.18663200  0.21547800  1
  H  193  1  0.00909400  0.15895300  0.22292800  1
  H  195  1  0.98036600  0.20469800  0.33082800  1
  H  196  1  0.03255600  0.20503100  0.33148000  1
  H  200  1  0.15085300  0.20380700  0.28830200  1
  H  201  1  0.86640700  0.20304100  0.28814600  1
  H  202  1  0.01392700  0.25716900  0.23586500  1
  H  204  1  0.02021600  0.10620300  0.28501900  1
  H  229  1  0.87361500  0.76796800  0.81362500  1
  H  230  1  0.93441900  0.78556700  0.82253300  1
  H  231  1  0.08451900  0.78508800  0.82299800  1
  H  232  1  0.14506500  0.76713300  0.81432800  1
  H  233  1  0.08357800  0.70848000  0.80706000  1
  H  234  1  0.93416200  0.70904500  0.80621000  1
  H  235  1  0.00746600  0.72638900  0.85614300  1
  H  236  1  0.00601300  0.66010700  0.87189300  1
  H  237  1  0.00710900  0.65124700  0.83420000  1
  H  238  1  0.01260100  0.74920700  0.77656700  1
  H  239  1  0.00840900  0.67407100  0.75481500  1
  H  240  1  0.01246000  0.70194400  0.72773200  1
  H  243  1  0.00971600  0.78341000  0.81125600  1
  H  244  1  0.00908000  0.77661100  0.83910300  1
  H  246  1  0.03350300  0.66693300  0.79598400  1
  H  247  1  0.98129300  0.66752000  0.79592300  1
  H  251  1  0.86673800  0.71096800  0.79533200  1
  H  252  1  0.15111800  0.70998000  0.79639400  1
  H  253  1  0.03834200  0.75672200  0.73883500  1
  H  255  1  0.99657500  0.71524900  0.89377400  1
  H  280  1  0.87360900  0.32844600  0.08995800  1
  H  281  1  0.93441300  0.31085300  0.08104400  1
  H  282  1  0.08449400  0.31133500  0.08057100  1
  H  283  1  0.14504700  0.32929100  0.08923300  1
  H  284  1  0.08353800  0.38794500  0.09650300  1
  H  285  1  0.93412700  0.38737500  0.09735700  1
  H  286  1  0.00747500  0.37003700  0.04742500  1
  H  287  1  0.00596000  0.43632000  0.03167700  1
  H  288  1  0.00702300  0.44517800  0.06936900  1
  H  289  1  0.01255500  0.34721900  0.12700300  1
  H  290  1  0.00833700  0.42235400  0.14875300  1
  H  291  1  0.01237400  0.39448300  0.17583800  1
  H  294  1  0.00969000  0.31301400  0.09230600  1
  H  295  1  0.00907200  0.31981900  0.06446000  1
  H  297  1  0.03342600  0.42949900  0.10758800  1
  H  298  1  0.98121600  0.42889900  0.10764300  1
  H  302  1  0.86672600  0.38543100  0.10827500  1
  H  303  1  0.15109100  0.38645400  0.10716000  1
  H  304  1  0.03826800  0.33969900  0.16473300  1
  H  306  1  0.99661700  0.38117700  0.00978800  1
  H  331  1  0.87364500  0.91005000  0.23202300  1
  H  332  1  0.93444900  0.91896200  0.21442500  1
  H  333  1  0.08455600  0.91942900  0.21491300  1
  H  334  1  0.14509900  0.91077000  0.23287800  1
  H  335  1  0.08358400  0.90349200  0.29152300  1
  H  336  1  0.93418600  0.90263800  0.29094500  1
  H  337  1  0.00751000  0.95256900  0.27361000  1
  H  338  1  0.00601000  0.96831700  0.33989200  1
  H  339  1  0.00708200  0.93062400  0.34875200  1
  H  340  1  0.01259200  0.87299300  0.25079200  1
  H  341  1  0.00838300  0.85123900  0.32592700  1
  H  342  1  0.01241700  0.82415400  0.29805400  1
  H  345  1  0.00974100  0.90769300  0.21658400  1
  H  346  1  0.00911400  0.93553800  0.22339000  1
  H  348  1  0.03348400  0.89240600  0.33306900  1
  H  349  1  0.98127200  0.89234900  0.33247400  1
  H  353  1  0.86678200  0.89172000  0.28900500  1
  H  354  1  0.15112100  0.89280900  0.29002900  1
  H  355  1  0.03830900  0.83526200  0.24327300  1
  H  357  1  0.99663100  0.99020300  0.28474700  1
  H  382  1  0.87360900  0.18637900  0.67154000  1
  H  383  1  0.93441300  0.17746900  0.68914100  1
  H  384  1  0.08450200  0.17702700  0.68867100  1
  H  385  1  0.14504300  0.18569200  0.67072000  1
  H  386  1  0.08356200  0.19292900  0.61205700  1
  H  387  1  0.93415300  0.19378600  0.61261800  1
  H  388  1  0.00748100  0.14385400  0.62996100  1
  H  389  1  0.00602500  0.12810800  0.56368000  1
  H  390  1  0.00709700  0.16580200  0.55482100  1
  H  391  1  0.01257000  0.22342700  0.65278300  1
  H  392  1  0.00838500  0.24518600  0.57765100  1
  H  393  1  0.01240400  0.27226800  0.60552300  1
  H  396  1  0.00970900  0.18874400  0.68698400  1
  H  397  1  0.00907200  0.16089700  0.68018700  1
  H  399  1  0.03348000  0.20401800  0.57050700  1
  H  400  1  0.98127000  0.20407700  0.57109700  1
  H  404  1  0.86673500  0.20467600  0.61454200  1
  H  405  1  0.15109000  0.20364800  0.61357400  1
  H  406  1  0.03827000  0.26116800  0.66030900  1
  H  408  1  0.99666400  0.10621600  0.61882500  1
  H  433  1  0.64529000  0.26817400  0.58858700  1
  H  434  1  0.58423500  0.28669900  0.58205600  1
  H  435  1  0.43415700  0.28701500  0.58167500  1
  H  436  1  0.37271000  0.26870200  0.58777200  1
  H  437  1  0.43337800  0.20974200  0.59430300  1
  H  438  1  0.58369800  0.20946200  0.59502000  1
  H  439  1  0.51076900  0.22713500  0.54726600  1
  H  440  1  0.50839500  0.16070200  0.53224200  1
  H  441  1  0.50637500  0.15229100  0.57007100  1
  H  442  1  0.50915300  0.25108200  0.62598600  1
  H  443  1  0.50558300  0.17662900  0.64949500  1
  H  444  1  0.50646600  0.20515400  0.67597800  1
  H  447  1  0.50906500  0.28443100  0.59402700  1
  H  448  1  0.50932500  0.27898100  0.56588200  1
  H  450  1  0.48004800  0.16920500  0.60808300  1
  H  451  1  0.53223200  0.16846600  0.60846100  1
  H  455  1  0.65748600  0.21037000  0.59004700  1
  H  456  1  0.35964300  0.21108700  0.58842900  1
  H  457  1  0.51434200  0.26359200  0.66144700  1
  H  459  1  0.52019500  0.21571300  0.50994200  1
  H  484  1  0.64534600  0.82825900  0.31498600  1
  H  485  1  0.58429400  0.80973500  0.32152400  1
  H  486  1  0.43420800  0.80941700  0.32191400  1
  H  487  1  0.37276300  0.82773000  0.31581400  1
  H  488  1  0.43342200  0.88668400  0.30926500  1
  H  489  1  0.58373600  0.88696800  0.30854200  1
  H  490  1  0.51082200  0.86929500  0.35630500  1
  H  491  1  0.50839700  0.93572600  0.37133400  1
  H  492  1  0.50637500  0.94413900  0.33350300  1
  H  493  1  0.50918000  0.84535000  0.27758800  1
  H  494  1  0.50557700  0.91980000  0.25407800  1
  H  495  1  0.50644000  0.89127500  0.22759500  1
  H  498  1  0.50911800  0.81199900  0.30954700  1
  H  499  1  0.50938700  0.81744600  0.33769300  1
  H  501  1  0.48006600  0.92722500  0.29549500  1
  H  502  1  0.53224600  0.92796500  0.29510900  1
  H  506  1  0.65753900  0.88606000  0.31352600  1
  H  507  1  0.35970500  0.88535100  0.31514300  1
  H  508  1  0.51423600  0.83283000  0.24213400  1
  H  510  1  0.52018000  0.88070600  0.39363100  1
  H  535  1  0.64528700  0.41139300  0.17175100  1
  H  536  1  0.58422900  0.41793100  0.19027200  1
  H  537  1  0.43415400  0.41830000  0.19058100  1
  H  538  1  0.37271300  0.41219400  0.17226400  1
  H  539  1  0.43339000  0.40569200  0.11330600  1
  H  540  1  0.58370100  0.40496600  0.11303800  1
  H  541  1  0.51078100  0.45273200  0.13070100  1
  H  542  1  0.50841500  0.46775500  0.06426900  1
  H  543  1  0.50638100  0.42992600  0.05585900  1
  H  544  1  0.50915000  0.37401100  0.15465000  1
  H  545  1  0.50557700  0.35050100  0.08020000  1
  H  546  1  0.50645100  0.32401900  0.10872500  1
  H  549  1  0.50906800  0.40595700  0.18799500  1
  H  550  1  0.50932200  0.43410600  0.18255800  1
  H  552  1  0.48005100  0.39191600  0.07277300  1
  H  553  1  0.53223500  0.39153300  0.07203700  1
  H  557  1  0.65748600  0.40994200  0.11394700  1
  H  558  1  0.35964800  0.41153600  0.11464500  1
  H  559  1  0.51429200  0.33855200  0.16716500  1
  H  561  1  0.52026300  0.49005300  0.11927500  1
  H  586  1  0.64531900  0.68500200  0.73182600  1
  H  587  1  0.58425900  0.67846700  0.71330600  1
  H  588  1  0.43417500  0.67810000  0.71299500  1
  H  589  1  0.37273600  0.68420000  0.73131400  1
  H  590  1  0.43341300  0.69073000  0.79026700  1
  H  591  1  0.58372400  0.69145500  0.79053600  1
  H  592  1  0.51079800  0.64369200  0.77287200  1
  H  593  1  0.50843000  0.62866800  0.83930500  1
  H  594  1  0.50641000  0.66649800  0.84771500  1
  H  595  1  0.50915900  0.72240800  0.74892300  1
  H  596  1  0.50559800  0.74592400  0.82337200  1
  H  597  1  0.50644800  0.77240500  0.79484500  1
  H  600  1  0.50909100  0.69045000  0.71557400  1
  H  601  1  0.50935100  0.66230500  0.72102400  1
  H  603  1  0.48008300  0.70450900  0.83080300  1
  H  604  1  0.53226700  0.70488900  0.83153400  1
  H  608  1  0.65749500  0.68648800  0.78964300  1
  H  609  1  0.35969000  0.68488500  0.78894000  1
  H  610  1  0.51419100  0.75786100  0.73639800  1
  H  612  1  0.52022700  0.60636900  0.78429200  1
  H  637  1  0.37307300  0.26782000  0.31293600  1
  H  638  1  0.43444400  0.28618900  0.31899900  1
  H  639  1  0.58431200  0.28575700  0.31954400  1
  H  640  1  0.64542300  0.26708100  0.31368400  1
  H  641  1  0.58399300  0.20815700  0.30899200  1
  H  642  1  0.43362600  0.20863300  0.30820400  1
  H  643  1  0.50749400  0.22695700  0.35581800  1
  H  644  1  0.50609700  0.16080600  0.37220600  1
  H  645  1  0.50711300  0.15158900  0.33461400  1
  H  646  1  0.51255200  0.24887500  0.27582900  1
  H  647  1  0.50834100  0.17351600  0.25504900  1
  H  648  1  0.51244600  0.20105500  0.22762100  1
  H  651  1  0.50964100  0.28318100  0.30725000  1
  H  652  1  0.50899400  0.27850600  0.33553400  1
  H  654  1  0.53343900  0.16686300  0.29627000  1
  H  655  1  0.48122900  0.16745900  0.29622500  1
  H  659  1  0.35996100  0.21003300  0.31306000  1
  H  660  1  0.65787300  0.20929000  0.31375600  1
  H  661  1  0.53892000  0.25577100  0.23804000  1
  H  663  1  0.49707800  0.21614200  0.39364500  1
  H  688  1  0.37313500  0.82859100  0.59062200  1
  H  689  1  0.43451800  0.81022700  0.58456600  1
  H  690  1  0.58438000  0.81066700  0.58403600  1
  H  691  1  0.64548500  0.82934800  0.58990400  1
  H  692  1  0.58402600  0.88827000  0.59458400  1
  H  693  1  0.43366100  0.88778300  0.59535800  1
  H  694  1  0.50757700  0.86946600  0.54775400  1
  H  695  1  0.50611200  0.93561700  0.53136500  1
  H  696  1  0.50709200  0.94483400  0.56895700  1
  H  697  1  0.51258500  0.84754900  0.62774500  1
  H  698  1  0.50833200  0.92291000  0.64852200  1
  H  699  1  0.51242800  0.89537200  0.67595100  1
  H  702  1  0.50970300  0.81324000  0.59631500  1
  H  703  1  0.50906800  0.81792100  0.56803200  1
  H  705  1  0.53342500  0.92956800  0.60730400  1
  H  706  1  0.48121400  0.92895700  0.60734300  1
  H  710  1  0.35999700  0.88637700  0.59049700  1
  H  711  1  0.65793500  0.88713100  0.58982500  1
  H  712  1  0.53893200  0.84065000  0.66553200  1
  H  714  1  0.49719400  0.88028100  0.50992200  1
  H  739  1  0.37310300  0.40939700  0.73218200  1
  H  740  1  0.43447300  0.41546400  0.71381400  1
  H  741  1  0.58435300  0.41599800  0.71424700  1
  H  742  1  0.64546100  0.41014000  0.73292600  1
  H  743  1  0.58401400  0.40541700  0.79184500  1
  H  744  1  0.43366100  0.40462800  0.79136400  1
  H  745  1  0.50755300  0.45224400  0.77304700  1
  H  746  1  0.50612100  0.46862900  0.83919800  1
  H  747  1  0.50711000  0.43103600  0.84841300  1
  H  748  1  0.51255800  0.37225600  0.75112400  1
  H  749  1  0.50833000  0.35147100  0.82648300  1
  H  750  1  0.51241400  0.32404400  0.79894100  1
  H  753  1  0.50967000  0.40370200  0.71681200  1
  H  754  1  0.50902900  0.43198500  0.72150500  1
  H  756  1  0.53343700  0.39269000  0.83314100  1
  H  757  1  0.48122600  0.39264900  0.83253700  1
  H  761  1  0.35998800  0.40950700  0.78996400  1
  H  762  1  0.65789400  0.41018800  0.79071500  1
  H  763  1  0.53890000  0.33446900  0.74422200  1
  H  765  1  0.49715500  0.49007400  0.78386000  1
  H  790  1  0.37314100  0.68707000  0.17140700  1
  H  791  1  0.43451800  0.68100300  0.18977200  1
  H  792  1  0.58438000  0.68047300  0.18933100  1
  H  793  1  0.64548200  0.68634000  0.17065000  1
  H  794  1  0.58403100  0.69100300  0.11172700  1
  H  795  1  0.43367000  0.69179400  0.11221500  1
  H  796  1  0.50757700  0.64417500  0.13053000  1
  H  797  1  0.50615000  0.62779200  0.06437800  1
  H  798  1  0.50713700  0.66538400  0.05516400  1
  H  799  1  0.51257600  0.72416100  0.15245200  1
  H  800  1  0.50835300  0.74495000  0.07709600  1
  H  801  1  0.51243100  0.77237500  0.10463600  1
  H  804  1  0.50970900  0.69275000  0.18675400  1
  H  805  1  0.50906500  0.66446300  0.18208400  1
  H  807  1  0.53345400  0.70373000  0.07043700  1
  H  808  1  0.48124400  0.70377200  0.07103800  1
  H  812  1  0.36001800  0.68693900  0.11361900  1
  H  813  1  0.65794100  0.68625300  0.11286600  1
  H  814  1  0.53890300  0.76196000  0.15935900  1
  H  816  1  0.49722600  0.60634400  0.11971900  1
  H  822  1  0.02457500  0.77477600  0.25610800  1
  H  824  1  0.97996100  0.78942300  0.18315800  1
  H  826  1  0.96763500  0.83571800  0.22052600  1
  H  827  1  0.94126400  0.82140300  0.20060500  1
  H  828  1  0.98917800  0.83151600  0.19481100  1
  H  830  1  0.03415600  0.72780100  0.21897400  1
  H  831  1  0.01442800  0.73333900  0.24484400  1
  H  832  1  0.06308800  0.74171800  0.23820700  1
  H  840  1  0.02459500  0.32164400  0.64747100  1
  H  842  1  0.97987000  0.30701300  0.72040300  1
  H  844  1  0.96755300  0.26072100  0.68303400  1
  H  845  1  0.94117900  0.27504100  0.70295000  1
  H  846  1  0.98908300  0.26491600  0.70875200  1
  H  848  1  0.03416700  0.36861800  0.68460700  1
  H  849  1  0.01447400  0.36308500  0.65872900  1
  H  850  1  0.06311700  0.35469100  0.66538800  1
  H  858  1  0.02457300  0.74389500  0.67835500  1
  H  860  1  0.97995200  0.81684400  0.69300100  1
  H  862  1  0.96767400  0.77947900  0.73930500  1
  H  863  1  0.94126700  0.79938700  0.72498900  1
  H  864  1  0.98918100  0.80520000  0.73509100  1
  H  866  1  0.03412800  0.78102400  0.63137800  1
  H  867  1  0.01441200  0.75515400  0.63692000  1
  H  868  1  0.06307300  0.76179600  0.64529300  1
  H  876  1  0.02455500  0.35252900  0.22521100  1
  H  878  1  0.97986700  0.27959300  0.21056900  1
  H  880  1  0.96758500  0.31696100  0.16427100  1
  H  881  1  0.94118500  0.29705200  0.17858500  1
  H  882  1  0.98909500  0.29123900  0.16847900  1
  H  884  1  0.03411600  0.31539200  0.27218400  1
  H  885  1  0.01443200  0.34127100  0.26664800  1
  H  886  1  0.06307500  0.33460500  0.25825800  1
  H  894  1  0.52421400  0.27424800  0.75675500  1
  H  896  1  0.47996800  0.28893500  0.68375400  1
  H  898  1  0.46804700  0.33532200  0.72106300  1
  H  899  1  0.44144300  0.32104400  0.70120000  1
  H  900  1  0.48945100  0.33098100  0.69534000  1
  H  902  1  0.53371700  0.22724900  0.71963500  1
  H  903  1  0.51393400  0.23282100  0.74548600  1
  H  904  1  0.56265400  0.24113000  0.73889200  1
  H  912  1  0.52428800  0.82217300  0.14682400  1
  H  914  1  0.47994200  0.80750200  0.21981000  1
  H  916  1  0.46801100  0.76112000  0.18249900  1
  H  917  1  0.44141000  0.77540300  0.20236000  1
  H  918  1  0.48941200  0.76545400  0.20822300  1
  H  920  1  0.53380000  0.86916900  0.18394400  1
  H  921  1  0.51404400  0.86360200  0.15808600  1
  H  922  1  0.56274600  0.85527400  0.16470100  1
  H  930  1  0.52421100  0.24324400  0.17782500  1
  H  932  1  0.47995400  0.31624700  0.19250700  1
  H  934  1  0.46807300  0.27894000  0.23890200  1
  H  935  1  0.44143400  0.29879100  0.22462300  1
  H  936  1  0.48944500  0.30466800  0.23455000  1
  H  938  1  0.53369300  0.28035700  0.13082200  1
  H  939  1  0.51392300  0.25450700  0.13640000  1
  H  940  1  0.56263900  0.26110600  0.14470600  1
  H  948  1  0.52426700  0.85317700  0.72574400  1
  H  950  1  0.47995600  0.78018700  0.71106400  1
  H  952  1  0.46807000  0.81749500  0.66467400  1
  H  953  1  0.44144000  0.79764300  0.67895100  1
  H  954  1  0.48945100  0.79176700  0.66902100  1
  H  956  1  0.53375800  0.81605700  0.77274300  1
  H  957  1  0.51401400  0.84191600  0.76717100  1
  H  958  1  0.56271600  0.83529700  0.75885100  1
  H  966  1  0.78481400  0.75276100  0.12828600  1
  H  968  1  0.72774300  0.68484200  0.10496500  1
  H  970  1  0.81938500  0.69927400  0.07588100  1
  H  971  1  0.77182600  0.68918800  0.07086800  1
  H  972  1  0.80225400  0.67656400  0.09060300  1
  H  974  1  0.68924000  0.74026400  0.15454500  1
  H  975  1  0.71197900  0.76212000  0.14103900  1
  H  976  1  0.73705400  0.74845700  0.16229500  1
  H  984  1  0.78477500  0.34367200  0.77530200  1
  H  986  1  0.72771600  0.41159700  0.79861800  1
  H  988  1  0.81935900  0.39716200  0.82769900  1
  H  989  1  0.77180500  0.40725700  0.83271200  1
  H  990  1  0.80223400  0.41986800  0.81297000  1
  H  992  1  0.68920200  0.35617800  0.74904200  1
  H  993  1  0.71194100  0.33431800  0.76254800  1
  H  994  1  0.73701500  0.34798000  0.74129200  1
  H  1002  1  0.78484900  0.87166700  0.65631700  1
  H  1004  1  0.72771300  0.89506400  0.58843900  1
  H  1006  1  0.81935900  0.92413700  0.60288300  1
  H  1007  1  0.77178800  0.92916200  0.59282100  1
  H  1008  1  0.80220400  0.90944600  0.58016000  1
  H  1010  1  0.68927300  0.84541600  0.64381200  1
  H  1011  1  0.71202600  0.85890000  0.66567900  1
  H  1012  1  0.73709500  0.83766100  0.65198800  1
  H  1020  1  0.78478400  0.22474700  0.24726100  1
  H  1022  1  0.72766300  0.20135400  0.31514200  1
  H  1024  1  0.81927000  0.17225200  0.30068000  1
  H  1025  1  0.77170800  0.16725200  0.31076100  1
  H  1026  1  0.80216600  0.18695800  0.32340700  1
  H  1028  1  0.68922600  0.25101400  0.25977900  1
  H  1029  1  0.71196700  0.23753400  0.23790700  1
  H  1030  1  0.73705100  0.25876300  0.25160500  1
  H  1038  1  0.23247200  0.75122100  0.77380000  1
  H  1040  1  0.29019500  0.68342600  0.79697200  1
  H  1042  1  0.19896200  0.69774600  0.82644600  1
  H  1043  1  0.24658900  0.68763800  0.83115000  1
  H  1044  1  0.21575400  0.67503800  0.81159200  1
  H  1046  1  0.32802100  0.73900400  0.74740300  1
  H  1047  1  0.30518500  0.76077600  0.76099700  1
  H  1048  1  0.28011500  0.74711400  0.73973800  1
  H  1056  1  0.23242100  0.34521000  0.12979500  1
  H  1058  1  0.29018000  0.41298300  0.10659500  1
  H  1060  1  0.19894800  0.39866600  0.07712100  1
  H  1061  1  0.24657400  0.40877100  0.07241800  1
  H  1062  1  0.21573400  0.42137400  0.09197200  1
  H  1064  1  0.32796800  0.35742000  0.15619500  1
  H  1065  1  0.30512900  0.33564600  0.14260700  1
  H  1066  1  0.28005500  0.34932100  0.16385600  1
  H  1074  1  0.23250000  0.87023800  0.24878800  1
  H  1076  1  0.29021100  0.89339000  0.31658900  1
  H  1078  1  0.19895700  0.92285400  0.30228400  1
  H  1079  1  0.24658700  0.92757000  0.31237900  1
  H  1080  1  0.21578000  0.90800400  0.32498600  1
  H  1082  1  0.32806500  0.84384900  0.26099100  1
  H  1083  1  0.30521700  0.85744800  0.23922500  1
  H  1084  1  0.28016200  0.83618000  0.25287900  1
  H  1092  1  0.23248600  0.22616800  0.65481600  1
  H  1094  1  0.29014900  0.20305900  0.58698600  1
  H  1096  1  0.19890500  0.17359000  0.60129000  1
  H  1097  1  0.24652700  0.16887800  0.59117900  1
  H  1098  1  0.21570800  0.18845600  0.57859600  1
  H  1100  1  0.32803300  0.25256800  0.64260400  1
  H  1101  1  0.30520600  0.23895800  0.66436900  1
  H  1102  1  0.28013100  0.26022900  0.65073000  1
  H  1110  1  0.23235000  0.34358800  0.77455100  1
  H  1112  1  0.29017000  0.41138900  0.79764700  1
  H  1114  1  0.19832900  0.39738500  0.82674700  1
  H  1115  1  0.24600200  0.40731200  0.83173800  1
  H  1116  1  0.21573700  0.41998600  0.81195900  1
  H  1118  1  0.32813000  0.35563500  0.74831000  1
  H  1119  1  0.30511100  0.33391800  0.76189900  1
  H  1120  1  0.28024500  0.34756900  0.74056200  1
  H  1128  1  0.23236800  0.75285400  0.12902900  1
  H  1130  1  0.29018900  0.68504400  0.10595000  1
  H  1132  1  0.19833800  0.69904300  0.07685100  1
  H  1133  1  0.24600900  0.68911200  0.07185600  1
  H  1134  1  0.21575600  0.67644800  0.09164600  1
  H  1136  1  0.32814500  0.74080500  0.15527700  1
  H  1137  1  0.30512900  0.76252200  0.14168200  1
  H  1138  1  0.28025800  0.74887700  0.16302000  1
  H  1146  1  0.23230700  0.22545500  0.24715200  1
  H  1148  1  0.29014700  0.20235200  0.31494700  1
  H  1150  1  0.19829100  0.17326000  0.30095100  1
  H  1151  1  0.24597500  0.16825500  0.31085800  1
  H  1152  1  0.21573900  0.18803300  0.32355300  1
  H  1154  1  0.32808600  0.25169500  0.25919600  1
  H  1155  1  0.30506400  0.23810700  0.23748000  1
  H  1156  1  0.28020100  0.25944400  0.25113300  1
  H  1164  1  0.23237200  0.87096200  0.65641900  1
  H  1166  1  0.29018000  0.89405300  0.58861200  1
  H  1168  1  0.19833800  0.92315500  0.60262200  1
  H  1169  1  0.24601300  0.92815100  0.59269800  1
  H  1170  1  0.21575700  0.90837200  0.58001900  1
  H  1172  1  0.32814200  0.84471200  0.64436300  1
  H  1173  1  0.30513200  0.85830100  0.66608300  1
  H  1174  1  0.28025700  0.83696800  0.65243000  1
  H  1182  1  0.78520600  0.34437100  0.13001600  1
  H  1184  1  0.72764800  0.41209000  0.10646900  1
  H  1186  1  0.81949400  0.39779100  0.07749500  1
  H  1187  1  0.77187600  0.40775600  0.07241900  1
  H  1188  1  0.80216000  0.42050700  0.09213900  1
  H  1190  1  0.68939100  0.35667200  0.15609700  1
  H  1191  1  0.71239300  0.33484800  0.14267100  1
  H  1192  1  0.73723100  0.34861600  0.16394300  1
  H  1200  1  0.78523900  0.75202800  0.77352300  1
  H  1202  1  0.72766300  0.68433800  0.79713000  1
  H  1204  1  0.81949700  0.69865500  0.82610100  1
  H  1205  1  0.77188200  0.68868700  0.83117600  1
  H  1206  1  0.80218100  0.67593000  0.81146600  1
  H  1208  1  0.68942400  0.73971200  0.74744900  1
  H  1209  1  0.71242800  0.76154600  0.76085300  1
  H  1210  1  0.73726900  0.74775500  0.73959700  1
  H  1218  1  0.78523600  0.22648000  0.65559900  1
  H  1220  1  0.72763300  0.20286500  0.58791800  1
  H  1222  1  0.81948900  0.17390300  0.60222600  1
  H  1223  1  0.77185900  0.16881500  0.59228500  1
  H  1224  1  0.80213000  0.18852000  0.57950000  1
  H  1226  1  0.68941200  0.25255000  0.64329400  1
  H  1227  1  0.71242800  0.23914400  0.66512500  1
  H  1228  1  0.73725700  0.26040300  0.65133300  1
  H  1236  1  0.78524800  0.86999500  0.24795100  1
  H  1238  1  0.72770100  0.89353500  0.31567400  1
  H  1240  1  0.81955600  0.92250200  0.30137900  1
  H  1241  1  0.77193500  0.92758500  0.31133800  1
  H  1242  1  0.80220700  0.90786100  0.32409300  1
  H  1244  1  0.68943500  0.84391300  0.26025300  1
  H  1245  1  0.71243100  0.85733900  0.23843000  1
  H  1246  1  0.73727500  0.83606700  0.25219500  1
  H  1254  1  0.04276400  0.71570800  0.97278600  1
  H  1256  1  0.97358900  0.66165000  0.93081500  1
  H  1258  1  0.96123300  0.65512600  0.99002100  1
  H  1259  1  0.97463400  0.63909400  0.96753500  1
  H  1260  1  0.93166100  0.65553700  0.96653700  1
  H  1262  1  0.06056500  0.71989900  0.91390700  1
  H  1263  1  0.08574600  0.72070600  0.93872500  1
  H  1264  1  0.04446100  0.73788300  0.93437000  1
  H  1272  1  0.04265200  0.38068600  0.93078300  1
  H  1274  1  0.97366500  0.43481900  0.97275900  1
  H  1276  1  0.96127400  0.44133600  0.91355500  1
  H  1277  1  0.97472800  0.45736600  0.93603100  1
  H  1278  1  0.93172300  0.44095500  0.93704600  1
  H  1280  1  0.06055600  0.37651700  0.98965000  1
  H  1281  1  0.08562600  0.37562300  0.96480300  1
  H  1282  1  0.04427000  0.35852100  0.96924100  1
  H  1290  1  0.04269400  0.02721600  0.61931100  1
  H  1292  1  0.97365900  0.06918800  0.56519300  1
  H  1294  1  0.96127700  0.00998200  0.55867800  1
  H  1295  1  0.97469300  0.03246300  0.54264500  1
  H  1296  1  0.93171400  0.03346900  0.55908000  1
  H  1298  1  0.06058800  0.08608300  0.62347800  1
  H  1299  1  0.08566500  0.06123600  0.62437300  1
  H  1300  1  0.04430300  0.06567000  0.64147300  1
  H  1308  1  0.04270400  0.06921300  0.28427200  1
  H  1310  1  0.97363900  0.02723200  0.33836800  1
  H  1312  1  0.96124200  0.08643700  0.34488700  1
  H  1313  1  0.97467200  0.06395700  0.36091900  1
  H  1314  1  0.93169000  0.06294600  0.34448700  1
  H  1316  1  0.06057000  0.01034100  0.28008500  1
  H  1317  1  0.08568800  0.03517300  0.27922000  1
  H  1318  1  0.04433900  0.03077500  0.26210100  1
  H  1326  1  0.54270300  0.21648900  0.47285600  1
  H  1328  1  0.47339800  0.16251900  0.43083800  1
  H  1330  1  0.46108300  0.15593300  0.49003400  1
  H  1331  1  0.47445500  0.13992000  0.46753000  1
  H  1332  1  0.43150000  0.15637600  0.46655700  1
  H  1334  1  0.56059900  0.22068200  0.41398400  1
  H  1335  1  0.58571500  0.22146600  0.43882000  1
  H  1336  1  0.54449900  0.23868500  0.43443200  1
  H  1344  1  0.54266200  0.87990000  0.43071500  1
  H  1346  1  0.47355400  0.93394800  0.47273800  1
  H  1348  1  0.46120400  0.94052700  0.41354200  1
  H  1349  1  0.47463500  0.95653600  0.43603600  1
  H  1350  1  0.43164100  0.94011300  0.43702700  1
  H  1352  1  0.56066100  0.87572900  0.48957400  1
  H  1353  1  0.58566500  0.87485300  0.46471100  1
  H  1354  1  0.54437500  0.85771200  0.46918100  1
  H  1362  1  0.54267100  0.52714000  0.12008800  1
  H  1364  1  0.47351000  0.56916600  0.06606200  1
  H  1366  1  0.46115400  0.50996900  0.05948500  1
  H  1367  1  0.47454300  0.53246800  0.04347200  1
  H  1368  1  0.43158200  0.53345200  0.05992200  1
  H  1370  1  0.56067600  0.58599600  0.12425700  1
  H  1371  1  0.58567900  0.56113100  0.12513100  1
  H  1372  1  0.54438900  0.56560300  0.14227300  1
  H  1380  1  0.54268900  0.56928000  0.78349200  1
  H  1382  1  0.47349800  0.52725900  0.83750600  1
  H  1384  1  0.46115700  0.58645600  0.84408700  1
  H  1385  1  0.47455800  0.56395700  0.86009900  1
  H  1386  1  0.43158800  0.56297300  0.84365600  1
  H  1388  1  0.56063100  0.51041400  0.77930200  1
  H  1389  1  0.58569100  0.53526100  0.77845600  1
  H  1390  1  0.54440400  0.53083400  0.76130100  1
  C  1  1  0.00833200  0.71874100  0.11471800  1
  C  2  1  0.00742200  0.69689800  0.12155500  1
  C  3  1  0.00773500  0.68441400  0.08160500  1
  C  4  1  0.00878200  0.70621700  0.07449200  1
  C  5  1  0.00978600  0.71073400  0.05177300  1
  C  6  1  0.00976000  0.69431900  0.03561500  1
  C  7  1  0.00840500  0.67267500  0.04322800  1
  C  8  1  0.00741600  0.66786600  0.06565200  1
  C  9  1  0.00676300  0.69270700  0.14417900  1
  C  10  1  0.00715600  0.70969500  0.15965400  1
  C  11  1  0.00821900  0.73170500  0.15318500  1
  C  12  1  0.00859900  0.73556700  0.13057700  1
  C  13  1  0.04717200  0.73637500  0.08779800  1
  C  14  1  0.04694200  0.75871100  0.08262300  1
  C  15  1  0.97086600  0.75878700  0.08241500  1
  C  16  1  0.97043800  0.73643900  0.08751600  1
  C  17  1  0.93430100  0.76996500  0.08178500  1
  C  18  1  0.89834100  0.75956500  0.08708000  1
  C  19  1  0.89715100  0.73731500  0.09265300  1
  C  20  1  0.93363100  0.72607700  0.09198900  1
  C  21  1  0.08381800  0.72595100  0.09250900  1
  C  22  1  0.12034700  0.73714300  0.09329200  1
  C  23  1  0.11938200  0.75936900  0.08759800  1
  C  24  1  0.08357500  0.76981900  0.08211200  1
  C  37  1  0.00873100  0.72437100  0.09087400  1
  C  38  1  0.00897200  0.77073000  0.07908500  1
  C  41  1  0.00699100  0.67878600  0.10531100  1
  C  44  1  0.86303700  0.72656100  0.10021500  1
  C  45  1  0.00935500  0.74964000  0.16737400  1
  C  46  1  0.15438800  0.72638600  0.10094400  1
  C  50  1  0.01243300  0.69988000  0.01339000  1
  C  52  1  0.00827000  0.37769400  0.78885400  1
  C  53  1  0.00736000  0.39953500  0.78201600  1
  C  54  1  0.00768800  0.41201900  0.82196500  1
  C  55  1  0.00874800  0.39021800  0.82907900  1
  C  56  1  0.00976000  0.38570100  0.85179700  1
  C  57  1  0.00973600  0.40211500  0.86795500  1
  C  58  1  0.00835000  0.42375900  0.86034400  1
  C  59  1  0.00736300  0.42856800  0.83791900  1
  C  60  1  0.00669000  0.40372500  0.75939000  1
  C  61  1  0.00707000  0.38673700  0.74391700  1
  C  62  1  0.00812800  0.36472700  0.75038700  1
  C  63  1  0.00852600  0.36086700  0.77299500  1
  C  64  1  0.04713500  0.36006000  0.81576500  1
  C  65  1  0.04691200  0.33772700  0.82095100  1
  C  66  1  0.97083900  0.33764600  0.82117500  1
  C  67  1  0.97040500  0.35999200  0.81606500  1
  C  68  1  0.93427400  0.32646700  0.82179900  1
  C  69  1  0.89831200  0.33686700  0.81650800  1
  C  70  1  0.89711900  0.35911700  0.81093200  1
  C  71  1  0.93359200  0.37036100  0.81161100  1
  C  72  1  0.08377400  0.37047700  0.81103200  1
  C  73  1  0.12032000  0.35929700  0.81028500  1
  C  74  1  0.11936100  0.33707500  0.81598600  1
  C  75  1  0.08354900  0.32661700  0.82144900  1
  C  88  1  0.00868900  0.37206400  0.81269600  1
  C  89  1  0.00894900  0.32570700  0.82450100  1
  C  92  1  0.00693500  0.41764700  0.79826000  1
  C  95  1  0.86300200  0.36986800  0.80336600  1
  C  96  1  0.00924500  0.34678900  0.73620100  1
  C  97  1  0.15436500  0.37006300  0.80264900  1
  C  101  1  0.01238100  0.39655200  0.89018000  1
  C  103  1  0.00832500  0.88528200  0.62231300  1
  C  104  1  0.00741000  0.87844400  0.60047200  1
  C  105  1  0.00772600  0.91839400  0.58798600  1
  C  106  1  0.00877800  0.92550800  0.60978700  1
  C  107  1  0.00978700  0.94822700  0.61430400  1
  C  108  1  0.00975700  0.96438500  0.59788800  1
  C  109  1  0.00839300  0.95677100  0.57624500  1
  C  110  1  0.00740700  0.93434700  0.57143600  1
  C  111  1  0.00674600  0.85582000  0.59628200  1
  C  112  1  0.00713200  0.84034600  0.61327000  1
  C  113  1  0.00820200  0.84681500  0.63527800  1
  C  114  1  0.00858900  0.86942400  0.63914100  1
  C  115  1  0.04717100  0.91220100  0.63994400  1
  C  116  1  0.04694200  0.91737700  0.66228000  1
  C  117  1  0.97086900  0.91759000  0.66235800  1
  C  118  1  0.97043500  0.91248800  0.64000900  1
  C  119  1  0.93430100  0.91822000  0.67353600  1
  C  120  1  0.89834100  0.91292900  0.66313600  1
  C  121  1  0.89716000  0.90733000  0.64089300  1
  C  122  1  0.93362800  0.90802200  0.62964500  1
  C  123  1  0.08381500  0.90748900  0.62952200  1
  C  124  1  0.12034500  0.90670400  0.64071300  1
  C  125  1  0.11938000  0.91239200  0.66293800  1
  C  126  1  0.08357600  0.91788300  0.67338900  1
  C  139  1  0.00872700  0.90912600  0.62794200  1
  C  140  1  0.00897500  0.92091300  0.67430100  1
  C  143  1  0.00697900  0.89468800  0.58235900  1
  C  146  1  0.86304300  0.89977800  0.63013600  1
  C  147  1  0.00933000  0.83262700  0.65321500  1
  C  148  1  0.15438600  0.89905500  0.62995300  1
  C  152  1  0.01244800  0.98660900  0.60344800  1
  C  154  1  0.00826600  0.21114200  0.28125800  1
  C  155  1  0.00736000  0.21798100  0.30310100  1
  C  156  1  0.00768800  0.17803100  0.31558600  1
  C  157  1  0.00873300  0.17091800  0.29378600  1
  C  158  1  0.00974400  0.14819800  0.28927000  1
  C  159  1  0.00972500  0.13204000  0.30568600  1
  C  160  1  0.00836900  0.13965400  0.32732800  1
  C  161  1  0.00737800  0.16207900  0.33213700  1
  C  162  1  0.00669000  0.24060700  0.30728700  1
  C  163  1  0.00706500  0.25607900  0.29029800  1
  C  164  1  0.00811900  0.24960900  0.26829000  1
  C  165  1  0.00851500  0.22700000  0.26443100  1
  C  166  1  0.04711300  0.18422700  0.26362500  1
  C  167  1  0.04689300  0.17903900  0.24129300  1
  C  168  1  0.97081600  0.17882500  0.24121500  1
  C  169  1  0.97038400  0.18393300  0.26356000  1
  C  170  1  0.93424800  0.17819200  0.23004000  1
  C  171  1  0.89828500  0.18347900  0.24044300  1
  C  172  1  0.89710400  0.18908000  0.26268600  1
  C  173  1  0.93358300  0.18841100  0.27392500  1
  C  174  1  0.08376300  0.18893700  0.27404500  1
  C  175  1  0.12029600  0.18970800  0.26285500  1
  C  176  1  0.11933600  0.18400500  0.24063500  1
  C  177  1  0.08352600  0.17853200  0.23018300  1
  C  190  1  0.00867300  0.18729800  0.27563000  1
  C  191  1  0.00892400  0.17549200  0.22927500  1
  C  194  1  0.00693800  0.20173900  0.32121300  1
  C  197  1  0.86297500  0.19661200  0.27345000  1
  C  198  1  0.00921100  0.26379400  0.25035000  1
  C  199  1  0.15433400  0.19735700  0.27361800  1
  C  203  1  0.01240500  0.10981600  0.30012300  1
  C  205  1  0.00941900  0.71696400  0.78835000  1
  C  206  1  0.00851200  0.69491000  0.78215300  1
  C  207  1  0.00793900  0.68348700  0.82233400  1
  C  208  1  0.00827400  0.70546000  0.82894200  1
  C  209  1  0.00758700  0.71042300  0.85159200  1
  C  210  1  0.00681400  0.69429600  0.86806400  1
  C  211  1  0.00696700  0.67250000  0.86088000  1
  C  212  1  0.00745400  0.66724500  0.83858000  1
  C  213  1  0.00884600  0.68991800  0.75970100  1
  C  214  1  0.01090600  0.70633000  0.74370600  1
  C  215  1  0.01263700  0.72845700  0.74956600  1
  C  216  1  0.01136400  0.73327100  0.77195200  1
  C  217  1  0.97073000  0.73552600  0.81463200  1
  C  218  1  0.97123800  0.75796700  0.81930500  1
  C  219  1  0.04725100  0.75767200  0.81979800  1
  C  220  1  0.04742400  0.73518800  0.81528500  1
  C  221  1  0.08391400  0.76875700  0.82012200  1
  C  222  1  0.11972600  0.75813200  0.81501300  1
  C  223  1  0.12064800  0.73576400  0.80992000  1
  C  224  1  0.08410800  0.72460400  0.81102600  1
  C  225  1  0.93392300  0.72518400  0.81012000  1
  C  226  1  0.89754700  0.73650600  0.80908000  1
  C  227  1  0.89882300  0.75884900  0.81425200  1
  C  228  1  0.93477900  0.76926200  0.81950300  1
  C  241  1  0.00897200  0.72321800  0.81206900  1
  C  242  1  0.00932800  0.76987900  0.82271600  1
  C  245  1  0.00775900  0.67724400  0.79882200  1
  C  248  1  0.15463000  0.72483200  0.80243500  1
  C  249  1  0.01886200  0.74532800  0.73472300  1
  C  250  1  0.86338000  0.72572200  0.80164300  1
  C  254  1  0.00442500  0.70011500  0.89023100  1
  C  256  1  0.00937800  0.37946200  0.11522000  1
  C  257  1  0.00845900  0.40151700  0.12141700  1
  C  258  1  0.00789100  0.41293800  0.08123500  1
  C  259  1  0.00824600  0.39096600  0.07462700  1
  C  260  1  0.00757800  0.38600400  0.05197700  1
  C  261  1  0.00681700  0.40213100  0.03550400  1
  C  262  1  0.00692300  0.42392500  0.04268900  1
  C  263  1  0.00739800  0.42918100  0.06498900  1
  C  264  1  0.00877300  0.40650900  0.14386800  1
  C  265  1  0.01087600  0.39009800  0.15986100  1
  C  266  1  0.01257600  0.36797200  0.15400400  1
  C  267  1  0.01131900  0.36315400  0.13161800  1
  C  268  1  0.97070900  0.36090000  0.08893200  1
  C  269  1  0.97121400  0.33845900  0.08425200  1
  C  270  1  0.04723100  0.33875200  0.08377700  1
  C  271  1  0.04739700  0.36123500  0.08828900  1
  C  272  1  0.08389600  0.32766800  0.08344100  1
  C  273  1  0.11969800  0.33828800  0.08857500  1
  C  274  1  0.12062300  0.36065800  0.09365300  1
  C  275  1  0.08407900  0.37181600  0.09255700  1
  C  276  1  0.93389000  0.37123800  0.09344100  1
  C  277  1  0.89752300  0.35991300  0.09448300  1
  C  278  1  0.89879900  0.33757400  0.08929400  1
  C  279  1  0.93475600  0.32716600  0.08403200  1
  C  292  1  0.00894400  0.37320800  0.09150100  1
  C  293  1  0.00930800  0.32654800  0.08084800  1
  C  296  1  0.00769400  0.41918100  0.10474700  1
  C  299  1  0.15459800  0.37159300  0.10113700  1
  C  300  1  0.01879700  0.35109500  0.16884500  1
  C  301  1  0.86335900  0.37069000  0.10193600  1
  C  305  1  0.00444200  0.39631300  0.01333500  1
  C  307  1  0.00942000  0.88477400  0.28303400  1
  C  308  1  0.00850800  0.87857600  0.30509000  1
  C  309  1  0.00793600  0.91875900  0.31651200  1
  C  310  1  0.00829000  0.92536600  0.29453800  1
  C  311  1  0.00761700  0.94801700  0.28957800  1
  C  312  1  0.00684600  0.96448900  0.30570300  1
  C  313  1  0.00694600  0.95730400  0.32749900  1
  C  314  1  0.00744000  0.93500400  0.33275400  1
  C  315  1  0.00883400  0.85612400  0.31008100  1
  C  316  1  0.01092200  0.84013200  0.29367000  1
  C  317  1  0.01261800  0.84599000  0.27154300  1
  C  318  1  0.01135900  0.86837600  0.26672800  1
  C  319  1  0.97075400  0.91106500  0.26446900  1
  C  320  1  0.97126200  0.91574200  0.24202800  1
  C  321  1  0.04727500  0.91622200  0.24232600  1
  C  322  1  0.04743800  0.91170700  0.26480700  1
  C  323  1  0.08394200  0.91654500  0.23124500  1
  C  324  1  0.11974600  0.91142300  0.24187000  1
  C  325  1  0.12067200  0.90635300  0.26424300  1
  C  326  1  0.08411300  0.90742300  0.27538900  1
  C  327  1  0.93393800  0.90656600  0.27481200  1
  C  328  1  0.89756200  0.90553400  0.26349100  1
  C  329  1  0.89884600  0.91068700  0.24114200  1
  C  330  1  0.93480300  0.91593900  0.23073200  1
  C  343  1  0.00898700  0.90849300  0.27678000  1
  C  344  1  0.00935400  0.91915000  0.23011800  1
  C  347  1  0.00774700  0.89524600  0.32275500  1
  C  350  1  0.15464100  0.89885800  0.27518000  1
  C  351  1  0.01883200  0.83115100  0.25466700  1
  C  352  1  0.86341000  0.89806500  0.27426700  1
  C  356  1  0.00446000  0.98665800  0.29988400  1
  C  358  1  0.00940600  0.21164800  0.62054000  1
  C  359  1  0.00849400  0.21784800  0.59848500  1
  C  360  1  0.00792400  0.17766600  0.58706100  1
  C  361  1  0.00826500  0.17105700  0.60903500  1
  C  362  1  0.00758700  0.14840700  0.61399500  1
  C  363  1  0.00681700  0.13193400  0.59786800  1
  C  364  1  0.00694300  0.13912100  0.57607400  1
  C  365  1  0.00743400  0.16142100  0.57081900  1
  C  366  1  0.00880200  0.24030100  0.59349600  1
  C  367  1  0.01088400  0.25629100  0.60990900  1
  C  368  1  0.01260600  0.25043100  0.63203400  1
  C  369  1  0.01134900  0.22804500  0.63684700  1
  C  370  1  0.97072100  0.18536400  0.63909900  1
  C  371  1  0.97123200  0.18069300  0.66154200  1
  C  372  1  0.04724400  0.18019800  0.66124700  1
  C  373  1  0.04741500  0.18471100  0.63876400  1
  C  374  1  0.08390800  0.17985700  0.67233100  1
  C  375  1  0.11970900  0.18499900  0.66171400  1
  C  376  1  0.12064300  0.19007200  0.63934100  1
  C  377  1  0.08410000  0.18897700  0.62818500  1
  C  378  1  0.93391400  0.18987800  0.62875600  1
  C  379  1  0.89753800  0.19092000  0.64007900  1
  C  380  1  0.89881400  0.18574900  0.66242300  1
  C  381  1  0.93477000  0.18049800  0.67283400  1
  C  394  1  0.00896300  0.18792900  0.62679300  1
  C  395  1  0.00932000  0.17728200  0.67345300  1
  C  398  1  0.00773800  0.20117900  0.58081900  1
  C  401  1  0.15461000  0.19758500  0.62841900  1
  C  402  1  0.01878300  0.26526900  0.64891500  1
  C  403  1  0.86337400  0.19836000  0.62929300  1
  C  407  1  0.00446900  0.10976600  0.60368800  1
  C  409  1  0.50819400  0.21865500  0.61500800  1
  C  410  1  0.50713900  0.19675700  0.62165100  1
  C  411  1  0.50753500  0.18465200  0.58158500  1
  C  412  1  0.50870800  0.20651500  0.57465100  1
  C  413  1  0.50977400  0.21121700  0.55197200  1
  C  414  1  0.50966700  0.19492000  0.53568400  1
  C  415  1  0.50820000  0.17321900  0.54312600  1
  C  416  1  0.50716300  0.16823000  0.56550500  1
  C  417  1  0.50637200  0.19235300  0.64424300  1
  C  418  1  0.50680600  0.20918500  0.65989400  1
  C  419  1  0.50802500  0.23125500  0.65365200  1
  C  420  1  0.50850100  0.23530100  0.63107400  1
  C  421  1  0.54717400  0.23655600  0.58837800  1
  C  422  1  0.54700000  0.25918400  0.58457100  1
  C  423  1  0.47098800  0.25934500  0.58432300  1
  C  424  1  0.47045300  0.23671100  0.58804700  1
  C  425  1  0.43449100  0.27060700  0.58408600  1
  C  426  1  0.39827800  0.25986100  0.58789000  1
  C  427  1  0.39698700  0.23726600  0.59162300  1
  C  428  1  0.43346000  0.22606200  0.59122600  1
  C  429  1  0.58393400  0.22577100  0.59186900  1
  C  430  1  0.62055200  0.23683800  0.59242500  1
  C  431  1  0.61962200  0.25942300  0.58858100  1
  C  432  1  0.58363900  0.27029800  0.58450900  1
  C  445  1  0.50868700  0.22452400  0.59122100  1
  C  446  1  0.50910300  0.27146800  0.58192600  1
  C  449  1  0.50667900  0.17880500  0.60523900  1
  C  452  1  0.36173900  0.22577000  0.59497600  1
  C  453  1  0.50926900  0.24910300  0.66798200  1
  C  454  1  0.65563200  0.22527100  0.59611400  1
  C  458  1  0.51234900  0.20059900  0.51348700  1
  C  460  1  0.50822000  0.87777700  0.28856500  1
  C  461  1  0.50715700  0.89967400  0.28192200  1
  C  462  1  0.50756800  0.91177900  0.32198800  1
  C  463  1  0.50875500  0.88991600  0.32892200  1
  C  464  1  0.50982400  0.88521200  0.35160100  1
  C  465  1  0.50971700  0.90151000  0.36788800  1
  C  466  1  0.50822900  0.92321000  0.36044900  1
  C  467  1  0.50718700  0.92819900  0.33807000  1
  C  468  1  0.50637500  0.90407800  0.25933000  1
  C  469  1  0.50679700  0.88724400  0.24367800  1
  C  470  1  0.50801700  0.86517500  0.24992100  1
  C  471  1  0.50852100  0.86113100  0.27249800  1
  C  472  1  0.54722100  0.85987400  0.31518800  1
  C  473  1  0.54705000  0.83724800  0.31900000  1
  C  474  1  0.47104100  0.83708300  0.31926000  1
  C  475  1  0.47050400  0.85971800  0.31553000  1
  C  476  1  0.43454400  0.82582300  0.31949500  1
  C  477  1  0.39832800  0.83657100  0.31569400  1
  C  478  1  0.39703700  0.85916500  0.31196000  1
  C  479  1  0.43350500  0.87037000  0.31237000  1
  C  480  1  0.58397800  0.87066000  0.31169200  1
  C  481  1  0.62059900  0.85959200  0.31113900  1
  C  482  1  0.61967200  0.83700700  0.31498900  1
  C  483  1  0.58368900  0.82613100  0.31904700  1
  C  496  1  0.50873100  0.87190700  0.31235000  1
  C  497  1  0.50915900  0.82496100  0.32165000  1
  C  500  1  0.50669900  0.91762600  0.29833600  1
  C  503  1  0.36178300  0.87066000  0.30861000  1
  C  504  1  0.50923300  0.84732500  0.23559300  1
  C  505  1  0.65567300  0.87116100  0.30745500  1
  C  509  1  0.51236900  0.89582600  0.39008800  1
  C  511  1  0.50819400  0.38499000  0.12222300  1
  C  512  1  0.50713900  0.37834500  0.10032600  1
  C  513  1  0.50754100  0.41841200  0.08821900  1
  C  514  1  0.50871300  0.42534700  0.11008200  1
  C  515  1  0.50978500  0.44802600  0.11478400  1
  C  516  1  0.50968200  0.46431400  0.09848600  1
  C  517  1  0.50821100  0.45687100  0.07678600  1
  C  518  1  0.50717500  0.43449200  0.07179800  1
  C  519  1  0.50636600  0.35575500  0.09592300  1
  C  520  1  0.50679100  0.34010300  0.11275600  1
  C  521  1  0.50801400  0.34634500  0.13482500  1
  C  522  1  0.50849800  0.36892300  0.13886900  1
  C  523  1  0.54717400  0.41161700  0.14012700  1
  C  524  1  0.54700000  0.41542700  0.16275200  1
  C  525  1  0.47099100  0.41567200  0.16291300  1
  C  526  1  0.47045300  0.41195300  0.14027600  1
  C  527  1  0.43449100  0.41589900  0.17417200  1
  C  528  1  0.39828000  0.41208800  0.16342400  1
  C  529  1  0.39699300  0.40837300  0.14082600  1
  C  530  1  0.43346300  0.40878200  0.12962400  1
  C  531  1  0.58394000  0.40814100  0.12934100  1
  C  532  1  0.62055200  0.40756700  0.14041400  1
  C  533  1  0.61961900  0.41140900  0.16299900  1
  C  534  1  0.58363600  0.41548300  0.17387200  1
  C  547  1  0.50869000  0.40877700  0.12809200  1
  C  548  1  0.50910300  0.41806500  0.17503800  1
  C  551  1  0.50668200  0.39475900  0.08237400  1
  C  554  1  0.36175700  0.40498700  0.12932800  1
  C  555  1  0.50924200  0.33201600  0.15267400  1
  C  556  1  0.65563200  0.40387400  0.12884800  1
  C  560  1  0.51238400  0.48651000  0.10416500  1
  C  562  1  0.50821700  0.71143400  0.78135000  1
  C  563  1  0.50716300  0.71807900  0.80324600  1
  C  564  1  0.50757100  0.67801100  0.81535400  1
  C  565  1  0.50874000  0.67107700  0.79349200  1
  C  566  1  0.50980300  0.64839600  0.78879000  1
  C  567  1  0.50970300  0.63210800  0.80508700  1
  C  568  1  0.50823800  0.63955100  0.82678900  1
  C  569  1  0.50720100  0.66193000  0.83177600  1
  C  570  1  0.50638900  0.74066900  0.80764800  1
  C  571  1  0.50680300  0.75632000  0.79081400  1
  C  572  1  0.50801700  0.75007700  0.76874600  1
  C  573  1  0.50851000  0.72749900  0.76470400  1
  C  574  1  0.54719800  0.68480700  0.76344800  1
  C  575  1  0.54702700  0.68099500  0.74082100  1
  C  576  1  0.47101800  0.68074700  0.74066000  1
  C  577  1  0.47048000  0.68447000  0.76329500  1
  C  578  1  0.43451500  0.68051600  0.72940200  1
  C  579  1  0.39830400  0.68431800  0.74015200  1
  C  580  1  0.39701700  0.68804400  0.76274900  1
  C  581  1  0.43349300  0.68765100  0.77394800  1
  C  582  1  0.58396400  0.68828000  0.77423200  1
  C  583  1  0.62058200  0.68884900  0.76316100  1
  C  584  1  0.61964800  0.68500100  0.74057600  1
  C  585  1  0.58366500  0.68093700  0.72970400  1
  C  598  1  0.50871300  0.68764700  0.77548200  1
  C  599  1  0.50913300  0.67834900  0.72853800  1
  C  602  1  0.50671400  0.70166500  0.82120100  1
  C  605  1  0.36177500  0.69141100  0.77424700  1
  C  606  1  0.50921300  0.76440400  0.75089400  1
  C  607  1  0.65566400  0.69252400  0.77472700  1
  C  611  1  0.51238100  0.60991200  0.79940800  1
  C  613  1  0.50936600  0.21680000  0.28809300  1
  C  614  1  0.50844500  0.19468000  0.28213700  1
  C  615  1  0.50792500  0.18371500  0.32244400  1
  C  616  1  0.50826800  0.20576100  0.32883000  1
  C  617  1  0.50761500  0.21094300  0.35143000  1
  C  618  1  0.50688000  0.19496300  0.36805800  1
  C  619  1  0.50701200  0.17309900  0.36108100  1
  C  620  1  0.50746100  0.16763000  0.33883800  1
  C  621  1  0.50877300  0.18942100  0.25974000  1
  C  622  1  0.51085400  0.20563300  0.24354000  1
  C  623  1  0.51258800  0.22782700  0.24912400  1
  C  624  1  0.51130600  0.23288500  0.27145500  1
  C  625  1  0.47067200  0.23569600  0.31406000  1
  C  626  1  0.47119800  0.25841200  0.31724800  1
  C  627  1  0.54713900  0.25815600  0.31777000  1
  C  628  1  0.54734800  0.23541100  0.31471000  1
  C  629  1  0.58376000  0.26928500  0.31763200  1
  C  630  1  0.61977800  0.25831300  0.31396900  1
  C  631  1  0.62075600  0.23562500  0.31081100  1
  C  632  1  0.58417600  0.22453800  0.31173000  1
  C  633  1  0.43370800  0.22502700  0.31086000  1
  C  634  1  0.39727900  0.23626400  0.30998700  1
  C  635  1  0.39859300  0.25894100  0.31318800  1
  C  636  1  0.43476300  0.26973000  0.31695700  1
  C  649  1  0.50892300  0.22333900  0.31173700  1
  C  650  1  0.50925100  0.27055600  0.31970100  1
  C  653  1  0.50770300  0.17721000  0.29900400  1
  C  656  1  0.65585000  0.22402200  0.30731000  1
  C  657  1  0.51900500  0.24454400  0.23410900  1
  C  658  1  0.36202600  0.22476700  0.30661900  1
  C  662  1  0.50459700  0.20093900  0.39019300  1
  C  664  1  0.50939600  0.87962400  0.61548000  1
  C  665  1  0.50845700  0.90174400  0.62143400  1
  C  666  1  0.50794300  0.91270700  0.58112800  1
  C  667  1  0.50831200  0.89066200  0.57474300  1
  C  668  1  0.50767700  0.88548000  0.55214100  1
  C  669  1  0.50695000  0.90146000  0.53551300  1
  C  670  1  0.50703600  0.92332300  0.54249200  1
  C  671  1  0.50747000  0.92879300  0.56473300  1
  C  672  1  0.50876400  0.90700500  0.64383100  1
  C  673  1  0.51089600  0.89079500  0.66003000  1
  C  674  1  0.51260000  0.86860000  0.65444900  1
  C  675  1  0.51133900  0.86354000  0.63211800  1
  C  676  1  0.47072200  0.86072500  0.58950800  1
  C  677  1  0.47125400  0.83800800  0.58631500  1
  C  678  1  0.54720100  0.83826800  0.58580600  1
  C  679  1  0.54739600  0.86101300  0.58886600  1
  C  680  1  0.58382500  0.82714200  0.58593900  1
  C  681  1  0.61983700  0.83811500  0.58961000  1
  C  682  1  0.62080300  0.86080300  0.59277300  1
  C  683  1  0.58422000  0.87188600  0.59185900  1
  C  684  1  0.43375000  0.87138900  0.59270000  1
  C  685  1  0.39733000  0.86015000  0.59357100  1
  C  686  1  0.39865300  0.83747200  0.59037400  1
  C  687  1  0.43482500  0.82668800  0.58659100  1
  C  700  1  0.50896700  0.87308400  0.59183400  1
  C  701  1  0.50931300  0.82586800  0.58386700  1
  C  704  1  0.50770300  0.91921300  0.60456700  1
  C  707  1  0.65588300  0.87240900  0.59629000  1
  C  708  1  0.51902000  0.85188100  0.66946200  1
  C  709  1  0.36207000  0.87164400  0.59693900  1
  C  713  1  0.50469100  0.89548500  0.51337800  1
  C  715  1  0.50938400  0.38451800  0.78320000  1
  C  716  1  0.50845700  0.37856200  0.80532000  1
  C  717  1  0.50794000  0.41886700  0.81628500  1
  C  718  1  0.50830000  0.42525400  0.79424200  1
  C  719  1  0.50765900  0.44785600  0.78905900  1
  C  720  1  0.50693000  0.46448200  0.80504000  1
  C  721  1  0.50701800  0.45750400  0.82690400  1
  C  722  1  0.50746700  0.43526200  0.83237200  1
  C  723  1  0.50877500  0.35616500  0.81057800  1
  C  724  1  0.51088400  0.33996600  0.79436600  1
  C  725  1  0.51258200  0.34554900  0.77217300  1
  C  726  1  0.51131800  0.36788200  0.76711500  1
  C  727  1  0.47070400  0.41049300  0.76430300  1
  C  728  1  0.47122700  0.41369100  0.74158700  1
  C  729  1  0.54717100  0.41420400  0.74184300  1
  C  730  1  0.54737200  0.41113500  0.76458500  1
  C  731  1  0.58379500  0.41407400  0.73071800  1
  C  732  1  0.61981100  0.41041300  0.74169000  1
  C  733  1  0.62078200  0.40723700  0.76437600  1
  C  734  1  0.58419700  0.40813100  0.77545900  1
  C  735  1  0.43373800  0.40730000  0.77497200  1
  C  736  1  0.39731200  0.40642400  0.76373600  1
  C  737  1  0.39862300  0.40964100  0.74106100  1
  C  738  1  0.43479200  0.41341100  0.73027200  1
  C  751  1  0.50895000  0.40816200  0.77666200  1
  C  752  1  0.50928000  0.41614600  0.72944500  1
  C  755  1  0.50770900  0.39542700  0.82279100  1
  C  758  1  0.65588000  0.40374900  0.77598100  1
  C  759  1  0.51898700  0.33053900  0.75545100  1
  C  760  1  0.36205800  0.40306200  0.77523300  1
  C  764  1  0.50465900  0.48661900  0.79906500  1
  C  766  1  0.50939900  0.71190300  0.12037600  1
  C  767  1  0.50846800  0.71785800  0.09825800  1
  C  768  1  0.50795700  0.67755300  0.08729100  1
  C  769  1  0.50831500  0.67116500  0.10933500  1
  C  770  1  0.50767700  0.64856500  0.11451700  1
  C  771  1  0.50693900  0.63193800  0.09853600  1
  C  772  1  0.50703900  0.63891700  0.07667300  1
  C  773  1  0.50748500  0.66115900  0.07120400  1
  C  774  1  0.50876700  0.74025700  0.09300000  1
  C  775  1  0.51087500  0.75645600  0.10921400  1
  C  776  1  0.51260600  0.75087000  0.13140700  1
  C  777  1  0.51134200  0.72853700  0.13646100  1
  C  778  1  0.47072200  0.68592900  0.13927400  1
  C  779  1  0.47125700  0.68274500  0.16199200  1
  C  780  1  0.54720100  0.68222500  0.16172900  1
  C  781  1  0.54739900  0.68528500  0.13898400  1
  C  782  1  0.58382800  0.68235600  0.17285500  1
  C  783  1  0.61983400  0.68603900  0.16188300  1
  C  784  1  0.62080600  0.68919700  0.13919500  1
  C  785  1  0.58422300  0.68827700  0.12811100  1
  C  786  1  0.43375600  0.68911500  0.12860500  1
  C  787  1  0.39733500  0.69000400  0.13984700  1
  C  788  1  0.39865600  0.68681000  0.16252500  1
  C  789  1  0.43482800  0.68303900  0.17331200  1
  C  802  1  0.50897000  0.68825700  0.12691400  1
  C  803  1  0.50931600  0.68029500  0.17413300  1
  C  806  1  0.50772700  0.70099300  0.08078700  1
  C  809  1  0.65588600  0.69271800  0.12758800  1
  C  810  1  0.51897800  0.76587900  0.14813100  1
  C  811  1  0.36207600  0.69337800  0.12835400  1
  C  815  1  0.50469700  0.60980200  0.10451100  1
  C  817  1  0.00518900  0.76534700  0.20315300  1
  C  818  1  0.01765500  0.76121400  0.22479600  1
  C  819  1  0.01564800  0.77797800  0.24055600  1
  C  820  1  0.00163400  0.79899600  0.23566400  1
  C  821  1  0.98828000  0.80311800  0.21416500  1
  C  823  1  0.99055100  0.78637500  0.19840000  1
  C  825  1  0.97069500  0.82414100  0.20730500  1
  C  829  1  0.03313000  0.73979400  0.23195200  1
  C  835  1  0.00513900  0.33108200  0.70041700  1
  C  836  1  0.01764500  0.33521000  0.67878000  1
  C  837  1  0.01564500  0.31844700  0.66302000  1
  C  838  1  0.00160100  0.29743500  0.66790500  1
  C  839  1  0.98820900  0.29331800  0.68939900  1
  C  841  1  0.99048000  0.31005800  0.70516500  1
  C  843  1  0.97060900  0.27229600  0.69625500  1
  C  847  1  0.03315100  0.35662400  0.67162900  1
  C  853  1  0.00516900  0.79684700  0.66892600  1
  C  854  1  0.01764200  0.77520500  0.66479100  1
  C  855  1  0.01564600  0.75944600  0.68155700  1
  C  856  1  0.00165200  0.76434200  0.70257800  1
  C  857  1  0.98828000  0.78583800  0.70669800  1
  C  859  1  0.99052700  0.80159900  0.68995100  1
  C  861  1  0.97070600  0.79269900  0.72772300  1
  C  865  1  0.03311100  0.76804800  0.64337200  1
  C  871  1  0.00509200  0.29958300  0.23464700  1
  C  872  1  0.01760500  0.32121800  0.23877500  1
  C  873  1  0.01560600  0.33697900  0.22201100  1
  C  874  1  0.00157800  0.33209400  0.20099700  1
  C  875  1  0.98820300  0.31059800  0.19687500  1
  C  877  1  0.99045100  0.29483400  0.21361900  1
  C  879  1  0.97062100  0.30374000  0.17585000  1
  C  883  1  0.03310600  0.32836800  0.26019000  1
  C  889  1  0.50497200  0.26480800  0.70376900  1
  C  890  1  0.51735400  0.26068500  0.72543200  1
  C  891  1  0.51538100  0.27746000  0.74118900  1
  C  892  1  0.50150800  0.29850700  0.73628700  1
  C  893  1  0.48828400  0.30263100  0.71476200  1
  C  895  1  0.49048400  0.28586800  0.69900700  1
  C  897  1  0.47092000  0.32369900  0.70786800  1
  C  901  1  0.53270400  0.23924700  0.73261000  1
  C  907  1  0.50499000  0.83162100  0.19980200  1
  C  908  1  0.51740400  0.83574000  0.17814400  1
  C  909  1  0.51543500  0.81896300  0.16238600  1
  C  910  1  0.50152600  0.79792300  0.16728300  1
  C  911  1  0.48826900  0.79380500  0.18880300  1
  C  913  1  0.49047800  0.81056500  0.20456000  1
  C  915  1  0.47088800  0.77274100  0.19569600  1
  C  919  1  0.53279000  0.85717100  0.17097100  1
  C  925  1  0.50494800  0.29622900  0.16838100  1
  C  926  1  0.51733900  0.27456600  0.16425800  1
  C  927  1  0.51537600  0.25880900  0.18103700  1
  C  928  1  0.50151700  0.26371500  0.20208500  1
  C  929  1  0.48827800  0.28523800  0.20620500  1
  C  931  1  0.49045800  0.30099000  0.18944100  1
  C  933  1  0.47092300  0.29213400  0.22727400  1
  C  937  1  0.53268900  0.26738600  0.14282200  1
  C  943  1  0.50495400  0.80020000  0.73519300  1
  C  944  1  0.51738100  0.82185600  0.73931100  1
  C  945  1  0.51541400  0.83761500  0.72253400  1
  C  946  1  0.50152300  0.83271700  0.70149100  1
  C  947  1  0.48828700  0.81119400  0.69736800  1
  C  949  1  0.49046600  0.79544100  0.71413200  1
  C  951  1  0.47092600  0.80430100  0.67629800  1
  C  955  1  0.53276000  0.82903000  0.76074400  1
  C  961  1  0.71888300  0.71171700  0.12552600  1
  C  962  1  0.73620300  0.73161700  0.13230900  1
  C  963  1  0.77278900  0.73834100  0.12329800  1
  C  964  1  0.79353100  0.72591700  0.10777500  1
  C  965  1  0.77611100  0.70608500  0.10075000  1
  C  967  1  0.73965800  0.69925800  0.10993800  1
  C  969  1  0.79359300  0.69211400  0.08360000  1
  C  973  1  0.71737400  0.74630900  0.14844000  1
  C  979  1  0.71885100  0.38472100  0.77806000  1
  C  980  1  0.73616500  0.36481900  0.77127900  1
  C  981  1  0.77274700  0.35809200  0.78029100  1
  C  982  1  0.79349600  0.37051500  0.79581200  1
  C  983  1  0.77607500  0.39034800  0.80283700  1
  C  985  1  0.73962600  0.39718000  0.79364700  1
  C  987  1  0.79356900  0.40432300  0.81998100  1
  C  991  1  0.71733600  0.35012900  0.75514600  1
  C  997  1  0.71888600  0.87446800  0.61529000  1
  C  998  1  0.73622100  0.86766500  0.63517900  1
  C  999  1  0.77280900  0.87667100  0.64190500  1
  C  1000  1  0.79354300  0.89220300  0.62948900  1
  C  1001  1  0.77609900  0.89925600  0.60967500  1
  C  1003  1  0.73964300  0.89007500  0.60284600  1
  C  1005  1  0.79356100  0.91642700  0.59572200  1
  C  1009  1  0.71741000  0.85151600  0.64985900  1
  C  1015  1  0.71883300  0.22195200  0.28829400  1
  C  1016  1  0.73616200  0.22875200  0.26840200  1
  C  1017  1  0.77274700  0.21974200  0.26167300  1
  C  1018  1  0.79347200  0.20419900  0.27408000  1
  C  1019  1  0.77603700  0.19715300  0.29389900  1
  C  1021  1  0.73958700  0.20634000  0.30073400  1
  C  1023  1  0.79349600  0.17997600  0.30785000  1
  C  1027  1  0.71735700  0.24491000  0.25372900  1
  C  1033  1  0.29872700  0.71032100  0.77639500  1
  C  1034  1  0.28122600  0.73019700  0.76968200  1
  C  1035  1  0.24463000  0.73682200  0.77875700  1
  C  1036  1  0.22406300  0.72434100  0.79430600  1
  C  1037  1  0.24171100  0.70456000  0.80130400  1
  C  1039  1  0.27813300  0.69781000  0.79201800  1
  C  1041  1  0.22456900  0.69058000  0.81855300  1
  C  1045  1  0.29987200  0.74497200  0.75356100  1
  C  1051  1  0.29869100  0.38609500  0.12718700  1
  C  1052  1  0.28118200  0.36622400  0.13390700  1
  C  1053  1  0.24458900  0.35960300  0.12483100  1
  C  1054  1  0.22403100  0.37208100  0.10927500  1
  C  1055  1  0.24169200  0.39185400  0.10226600  1
  C  1057  1  0.27811000  0.39860200  0.11155500  1
  C  1059  1  0.22455300  0.40583000  0.08501400  1
  C  1063  1  0.29981600  0.35145400  0.15003500  1
  C  1069  1  0.29875000  0.87282200  0.28968600  1
  C  1070  1  0.28125500  0.86611600  0.26980700  1
  C  1071  1  0.24465500  0.87519000  0.26318800  1
  C  1072  1  0.22407200  0.89072400  0.27567900  1
  C  1073  1  0.24172500  0.89772400  0.29546000  1
  C  1075  1  0.27815300  0.88844100  0.30220200  1
  C  1077  1  0.22457700  0.91496700  0.30944300  1
  C  1081  1  0.29991100  0.85000600  0.25502600  1
  C  1087  1  0.29870600  0.22360900  0.61390000  1
  C  1088  1  0.28122700  0.23030100  0.63378900  1
  C  1089  1  0.24463200  0.22122600  0.64040900  1
  C  1090  1  0.22404900  0.20569200  0.62791600  1
  C  1091  1  0.24168000  0.19871100  0.60812500  1
  C  1093  1  0.27810300  0.20799800  0.60137900  1
  C  1095  1  0.22451900  0.18148100  0.59413200  1
  C  1099  1  0.29988400  0.24640700  0.64857300  1
  C  1105  1  0.29875300  0.38440400  0.77719200  1
  C  1106  1  0.28121000  0.36454300  0.77047200  1
  C  1107  1  0.24452400  0.35799000  0.77948200  1
  C  1108  1  0.22389100  0.37054900  0.79494100  1
  C  1109  1  0.24153200  0.39034200  0.80190500  1
  C  1111  1  0.27808400  0.39700300  0.79271300  1
  C  1113  1  0.22420700  0.40442600  0.81901100  1
  C  1117  1  0.29991400  0.34971200  0.75442300  1
  C  1123  1  0.29877100  0.71203300  0.12639800  1
  C  1124  1  0.28122800  0.73189700  0.13311400  1
  C  1125  1  0.24454400  0.73845200  0.12409900  1
  C  1126  1  0.22391400  0.72589100  0.10864300  1
  C  1127  1  0.24155700  0.70609700  0.10168100  1
  C  1129  1  0.27810400  0.69943300  0.11087800  1
  C  1131  1  0.22422200  0.69200400  0.08458500  1
  C  1135  1  0.29992800  0.74672800  0.14916200  1
  C  1141  1  0.29871800  0.22281100  0.28796600  1
  C  1142  1  0.28117200  0.22953300  0.26810700  1
  C  1143  1  0.24448400  0.22052200  0.26155400  1
  C  1144  1  0.22384900  0.20506800  0.27411700  1
  C  1145  1  0.24150300  0.19809700  0.29390400  1
  C  1147  1  0.27805700  0.20728600  0.30056200  1
  C  1149  1  0.22418500  0.18098800  0.30798700  1
  C  1153  1  0.29986900  0.24558300  0.25327700  1
  C  1159  1  0.29876500  0.87359800  0.61559700  1
  C  1160  1  0.28123000  0.86688200  0.63546100  1
  C  1161  1  0.24454400  0.87589300  0.64201700  1
  C  1162  1  0.22391100  0.89135300  0.62945900  1
  C  1163  1  0.24154800  0.89831500  0.60966400  1
  C  1165  1  0.27809900  0.88912300  0.60300100  1
  C  1167  1  0.22422100  0.91542200  0.59558000  1
  C  1171  1  0.29992800  0.85082700  0.65028700  1
  C  1177  1  0.71894200  0.38524000  0.12707800  1
  C  1178  1  0.73639500  0.36539800  0.13392400  1
  C  1179  1  0.77307800  0.35874900  0.12497700  1
  C  1180  1  0.79379100  0.37119500  0.10946200  1
  C  1181  1  0.77621700  0.39095600  0.10235300  1
  C  1183  1  0.73967000  0.39771400  0.11148200  1
  C  1185  1  0.79363400  0.40491600  0.08517500  1
  C  1189  1  0.71761100  0.35068700  0.15005200  1
  C  1195  1  0.71896300  0.71117000  0.77649600  1
  C  1196  1  0.73642200  0.73100400  0.76963300  1
  C  1197  1  0.77310200  0.73765900  0.77857700  1
  C  1198  1  0.79381500  0.72522300  0.79410400  1
  C  1199  1  0.77622600  0.70547200  0.80123400  1
  C  1201  1  0.73968500  0.69870900  0.79210500  1
  C  1203  1  0.79364300  0.69152200  0.81842200  1
  C  1207  1  0.71764300  0.74570000  0.75348800  1
  C  1213  1  0.71894800  0.22350300  0.61474800  1
  C  1214  1  0.73641300  0.23036800  0.63458000  1
  C  1215  1  0.77309900  0.22142600  0.64123000  1
  C  1216  1  0.79381500  0.20590500  0.62879000  1
  C  1217  1  0.77621700  0.19877100  0.60904400  1
  C  1219  1  0.73966400  0.20789100  0.60228700  1
  C  1221  1  0.79362000  0.18157500  0.59510000  1
  C  1225  1  0.71763400  0.24651100  0.64927800  1
  C  1231  1  0.71899300  0.87292800  0.28882300  1
  C  1232  1  0.73643900  0.86608700  0.26897700  1
  C  1233  1  0.77312200  0.87503200  0.26233000  1
  C  1234  1  0.79384100  0.89054300  0.27477800  1
  C  1235  1  0.77626700  0.89765000  0.29454000  1
  C  1237  1  0.73972000  0.88852500  0.30129500  1
  C  1239  1  0.79368800  0.91482600  0.30850200  1
  C  1243  1  0.71765200  0.84995800  0.25426800  1
  C  1249  1  0.00933200  0.68942800  0.92825900  1
  C  1250  1  0.03001100  0.70511100  0.94091900  1
  C  1251  1  0.02716600  0.70456300  0.96397200  1
  C  1252  1  0.00539300  0.68851800  0.97532000  1
  C  1253  1  0.98558400  0.67260400  0.96262100  1
  C  1255  1  0.98789300  0.67336100  0.93962300  1
  C  1257  1  0.96207200  0.65467000  0.97235500  1
  C  1261  1  0.05652300  0.72175400  0.93130400  1
  C  1267  1  0.00940000  0.40703500  0.97530800  1
  C  1268  1  0.02996200  0.39130400  0.96265000  1
  C  1269  1  0.02707400  0.39183900  0.93959900  1
  C  1270  1  0.00537200  0.40791700  0.92825200  1
  C  1271  1  0.98561100  0.42384800  0.94095100  1
  C  1273  1  0.98794000  0.42309700  0.96395000  1
  C  1275  1  0.96213100  0.44179700  0.93121900  1
  C  1279  1  0.05642800  0.37463500  0.97226200  1
  C  1285  1  0.00943000  0.07173700  0.59296200  1
  C  1286  1  0.03000500  0.05908000  0.60869000  1
  C  1287  1  0.02713100  0.03602900  0.60815000  1
  C  1288  1  0.00542900  0.02468100  0.59207500  1
  C  1289  1  0.98562800  0.03738000  0.57615700  1
  C  1291  1  0.98795500  0.06037900  0.57690800  1
  C  1293  1  0.96212500  0.02764700  0.55821900  1
  C  1297  1  0.05646500  0.06869300  0.62536000  1
  C  1303  1  0.00939100  0.02468600  0.31058900  1
  C  1304  1  0.03001700  0.03734700  0.29488700  1
  C  1305  1  0.02714200  0.06039800  0.29543000  1
  C  1306  1  0.00539000  0.07174400  0.31148500  1
  C  1307  1  0.98560500  0.05904200  0.32740600  1
  C  1309  1  0.98793500  0.03604300  0.32665400  1
  C  1311  1  0.96209800  0.06877100  0.34534600  1
  C  1315  1  0.05647800  0.02773300  0.27821600  1
  C  1321  1  0.50919200  0.19028200  0.42829700  1
  C  1322  1  0.52992200  0.20593000  0.44097500  1
  C  1323  1  0.52707600  0.20536600  0.46402900  1
  C  1324  1  0.50527300  0.18932700  0.47536500  1
  C  1325  1  0.48543700  0.17343400  0.46265100  1
  C  1327  1  0.48773500  0.17421600  0.43965100  1
  C  1329  1  0.46191300  0.15549500  0.47236900  1
  C  1333  1  0.55651500  0.22254500  0.43137800  1
  C  1339  1  0.50933700  0.90617800  0.47527400  1
  C  1340  1  0.52994600  0.89048000  0.46259800  1
  C  1341  1  0.52705800  0.89103000  0.43954400  1
  C  1342  1  0.50532900  0.90710200  0.42821000  1
  C  1343  1  0.48554400  0.92301600  0.44092300  1
  C  1345  1  0.48785600  0.92224000  0.46392200  1
  C  1347  1  0.46205200  0.94096900  0.43120600  1
  C  1351  1  0.55648800  0.87383800  0.47219000  1
  C  1357  1  0.50933400  0.57169700  0.09381400  1
  C  1358  1  0.52996100  0.55902000  0.10950600  1
  C  1359  1  0.52707900  0.53596800  0.10895000  1
  C  1360  1  0.50534100  0.52463400  0.09288200  1
  C  1361  1  0.48551700  0.53734900  0.07698500  1
  C  1363  1  0.48783500  0.56034900  0.07776000  1
  C  1365  1  0.46199300  0.52763400  0.05904500  1
  C  1369  1  0.55650300  0.56861200  0.12614700  1
  C  1375  1  0.50929200  0.52472300  0.80974000  1
  C  1376  1  0.52997000  0.53739900  0.79406900  1
  C  1377  1  0.52709900  0.56045300  0.79462800  1
  C  1378  1  0.50532000  0.57178800  0.81067900  1
  C  1379  1  0.48551100  0.55907500  0.82658400  1
  C  1381  1  0.48782000  0.53607400  0.82580600  1
  C  1383  1  0.46199900  0.56879100  0.84452700  1
  C  1387  1  0.55650000  0.52780300  0.77742600  1
  N  833  1  0.00513900  0.74923400  0.18819300  1
  N  834  1  0.99912100  0.81342900  0.25203600  1
  N  851  1  0.00509800  0.34719600  0.71537600  1
  N  852  1  0.99909100  0.28300000  0.65153400  1
  N  869  1  0.00512700  0.81180700  0.65281200  1
  N  870  1  0.99913600  0.74796700  0.71700700  1
  N  887  1  0.00507400  0.28461800  0.25075600  1
  N  888  1  0.99907400  0.34846600  0.18656400  1
  N  905  1  0.50484500  0.24867800  0.68879300  1
  N  906  1  0.49886500  0.31297700  0.75264300  1
  N  923  1  0.50487700  0.84775200  0.21477600  1
  N  924  1  0.49888300  0.78345200  0.15092800  1
  N  941  1  0.50483300  0.31120200  0.15225000  1
  N  942  1  0.49887100  0.24735700  0.21655200  1
  N  959  1  0.50486600  0.78522100  0.75132000  1
  N  960  1  0.49888900  0.84907200  0.68701900  1
  N  977  1  0.68404600  0.70526300  0.13410800  1
  N  978  1  0.82769200  0.73445600  0.10034400  1
  N  995  1  0.68402200  0.39118600  0.76946900  1
  N  996  1  0.82766000  0.36197600  0.80324300  1
  N  1013  1  0.68404600  0.86588900  0.60883600  1
  N  1014  1  0.82770400  0.89963100  0.63803600  1
  N  1031  1  0.68400200  0.23053800  0.29475500  1
  N  1032  1  0.82764500  0.19678000  0.26553800  1
  N  1049  1  0.33361400  0.70397800  0.76776700  1
  N  1050  1  0.18987300  0.73283300  0.80175400  1
  N  1067  1  0.33358800  0.39242900  0.13581000  1
  N  1068  1  0.18984000  0.36358900  0.10182900  1
  N  1085  1  0.33363800  0.86419100  0.29602900  1
  N  1086  1  0.18989000  0.89818100  0.26718500  1
  N  1103  1  0.33359600  0.23223600  0.60756000  1
  N  1104  1  0.18986600  0.19823600  0.63640800  1
  N  1121  1  0.33373200  0.39067000  0.76864100  1
  N  1122  1  0.18967300  0.36212100  0.80241300  1
  N  1139  1  0.33374700  0.70576700  0.13495200  1
  N  1140  1  0.18970000  0.73431800  0.10116300  1
  N  1157  1  0.33369700  0.23136400  0.29423100  1
  N  1158  1  0.18964600  0.19758300  0.26568400  1
  N  1175  1  0.33374700  0.86504700  0.60933000  1
  N  1176  1  0.18969800  0.89883000  0.63788700  1
  N  1193  1  0.68407300  0.39167200  0.13564400  1
  N  1194  1  0.82807300  0.36272100  0.10212500  1
  N  1211  1  0.68410200  0.70472800  0.76792800  1
  N  1212  1  0.82810000  0.73369900  0.80143200  1
  N  1229  1  0.68407600  0.23206600  0.60831400  1
  N  1230  1  0.82809400  0.19857200  0.63726900  1
  N  1247  1  0.68411700  0.86436600  0.29525200  1
  N  1248  1  0.82812000  0.89788300  0.26630400  1
  N  1265  1  0.01068500  0.68716300  0.90639400  1
  N  1266  1  0.00490000  0.68704600  0.99730400  1
  N  1283  1  0.01070200  0.40927100  0.99717800  1
  N  1284  1  0.00487900  0.40939100  0.90626800  1
  N  1301  1  0.01071800  0.09360800  0.59072700  1
  N  1302  1  0.00490900  0.00269700  0.59061500  1
  N  1319  1  0.01071600  0.00281700  0.31283800  1
  N  1320  1  0.00488200  0.09372800  0.31295700  1
  N  1337  1  0.51049400  0.18802200  0.40642700  1
  N  1338  1  0.50479800  0.18783100  0.49734700  1
  N  1355  1  0.51058600  0.90840800  0.49714800  1
  N  1356  1  0.50485700  0.90860000  0.40622800  1
  N  1373  1  0.51057400  0.59357200  0.09158500  1
  N  1374  1  0.50483600  0.50265200  0.09139800  1
  N  1391  1  0.51055900  0.50285100  0.81198500  1
  N  1392  1  0.50483900  0.59377000  0.81217500  1
