# generated using pymatgen
data_H31(C11N)4
_symmetry_space_group_name_H-M   'P 1'
_cell_length_a   68.63920000
_cell_length_b   68.63920000
_cell_length_c   68.63920000
_cell_angle_alpha   90.00000000
_cell_angle_beta   90.00000000
_cell_angle_gamma   90.00000000
_symmetry_Int_Tables_number   1
_chemical_formula_structural   H31(C11N)4
_chemical_formula_sum   'H372 C528 N48'
_cell_volume   323382.59319675
_cell_formula_units_Z   12
loop_
 _symmetry_equiv_pos_site_id
 _symmetry_equiv_pos_as_xyz
  1  'x, y, z'
loop_
 _atom_site_type_symbol
 _atom_site_label
 _atom_site_symmetry_multiplicity
 _atom_site_fract_x
 _atom_site_fract_y
 _atom_site_fract_z
 _atom_site_occupancy
  H  73  1  0.04272000  0.48695100  0.34202300  1
  H  74  1  0.03939200  0.48749600  0.37642500  1
  H  75  1  0.00138200  0.53221700  0.33716500  1
  H  76  1  0.99839100  0.53308900  0.37182300  1
  H  77  1  0.98692000  0.51458200  0.40118600  1
  H  78  1  0.98556700  0.51552000  0.43602500  1
  H  79  1  0.04808800  0.50853000  0.40394600  1
  H  80  1  0.04658800  0.50904600  0.43865300  1
  H  81  1  0.01540500  0.47323000  0.44796100  1
  H  82  1  0.01554800  0.44727100  0.47420000  1
  H  83  1  0.01491300  0.50045200  0.50082900  1
  H  84  1  0.01565000  0.52479400  0.52482600  1
  H  85  1  0.01590500  0.55174800  0.44690700  1
  H  86  1  0.01605000  0.57809800  0.47291700  1
  H  87  1  0.98603900  0.58942100  0.51590400  1
  H  88  1  0.98727200  0.62424700  0.51497000  1
  H  89  1  0.04697500  0.58699100  0.50863700  1
  H  90  1  0.04834700  0.62173700  0.50804500  1
  H  91  1  0.01568500  0.57797800  0.55146100  1
  H  92  1  0.01560200  0.55204200  0.57768300  1
  H  93  1  0.01623200  0.44715300  0.55273200  1
  H  94  1  0.01660000  0.47349600  0.57874400  1
  H  95  1  0.04688500  0.51825400  0.58711200  1
  H  96  1  0.04812000  0.51959500  0.62185800  1
  H  97  1  0.98635500  0.50809500  0.58956300  1
  H  98  1  0.98744500  0.50972200  0.62435800  1
  H  99  1  0.00004300  0.49252800  0.65418000  1
  H  100  1  0.00109500  0.49563500  0.68873600  1
  H  101  1  0.03853900  0.54412500  0.68309000  1
  H  102  1  0.03715400  0.54122300  0.64867800  1
  H  103  1  0.98557000  0.43585900  0.51099800  1
  H  104  1  0.98678500  0.40103800  0.51212700  1
  H  105  1  0.04000500  0.37618300  0.53788800  1
  H  106  1  0.04294100  0.34174100  0.53885800  1
  H  107  1  0.99993200  0.33670700  0.49521400  1
  H  108  1  0.99734200  0.37137500  0.49387400  1
  H  109  1  0.04809800  0.40352300  0.51654600  1
  H  110  1  0.04674100  0.43823800  0.51586900  1
  H  111  1  0.03875300  0.64898900  0.48658400  1
  H  112  1  0.04057800  0.68341200  0.48447600  1
  H  113  1  0.99890300  0.65384100  0.53313000  1
  H  114  1  0.00038900  0.68846300  0.53077300  1
  H  119  1  0.03787500  0.31069600  0.52088500  1
  H  120  1  0.03850200  0.50489800  0.31116600  1
  H  121  1  0.03087200  0.71526200  0.49519000  1
  H  122  1  0.02964600  0.53300600  0.71515000  1
  H  195  1  0.34182400  0.04283800  0.48692900  1
  H  196  1  0.37622800  0.03953400  0.48746900  1
  H  197  1  0.33698500  0.00128000  0.53199800  1
  H  198  1  0.37164500  0.99830900  0.53286300  1
  H  199  1  0.40098100  0.98692500  0.51424600  1
  H  200  1  0.43582000  0.98555100  0.51512900  1
  H  201  1  0.40375800  0.04812800  0.50856500  1
  H  202  1  0.43846800  0.04661100  0.50902700  1
  H  203  1  0.44777900  0.01606800  0.47300700  1
  H  204  1  0.47401900  0.01649500  0.44707000  1
  H  205  1  0.50064400  0.01470100  0.50022200  1
  H  206  1  0.52466700  0.01560000  0.52453100  1
  H  207  1  0.44672900  0.01583800  0.55152900  1
  H  208  1  0.47277400  0.01585000  0.57785800  1
  H  209  1  0.51351900  0.98549700  0.58919000  1
  H  210  1  0.51280800  0.98693800  0.62403400  1
  H  211  1  0.51081000  0.04680200  0.58651900  1
  H  212  1  0.51054800  0.04836400  0.62123000  1
  H  213  1  0.55126400  0.01512400  0.57773000  1
  H  214  1  0.57751700  0.01527800  0.55181600  1
  H  215  1  0.55258800  0.01612300  0.44694700  1
  H  216  1  0.57859700  0.01633300  0.47327200  1
  H  217  1  0.58696100  0.04683200  0.51811500  1
  H  218  1  0.62170200  0.04806800  0.51950500  1
  H  219  1  0.58942900  0.98632500  0.50782800  1
  H  220  1  0.62422200  0.98741400  0.50950400  1
  H  221  1  0.65405500  0.00006000  0.49235400  1
  H  222  1  0.68860800  0.00112200  0.49548100  1
  H  223  1  0.68291900  0.03844900  0.54405700  1
  H  224  1  0.64850900  0.03705200  0.54113400  1
  H  225  1  0.50834800  0.98631600  0.43568600  1
  H  226  1  0.50980900  0.98737600  0.40088000  1
  H  227  1  0.54128300  0.03701000  0.37652300  1
  H  228  1  0.54424000  0.03833300  0.34211200  1
  H  229  1  0.49570200  0.00094900  0.33645700  1
  H  230  1  0.49254700  0.99995400  0.37101300  1
  H  231  1  0.51956300  0.04807400  0.40327700  1
  H  232  1  0.51837200  0.04687200  0.43802800  1
  H  233  1  0.48897200  0.04094500  0.64871400  1
  H  234  1  0.48852100  0.04426700  0.68311000  1
  H  235  1  0.53202300  0.99729100  0.65339800  1
  H  236  1  0.53123500  0.00029800  0.68805500  1
  H  241  1  0.53316800  0.02939200  0.31005500  1
  H  242  1  0.31094800  0.03847000  0.50477400  1
  H  243  1  0.50562800  0.03878400  0.71408100  1
  H  244  1  0.71499100  0.02960200  0.53292600  1
  H  317  1  0.48693300  0.34182700  0.04285900  1
  H  318  1  0.48746800  0.37622800  0.03954500  1
  H  319  1  0.53202600  0.33698500  0.00132500  1
  H  320  1  0.53288400  0.37164600  0.99834500  1
  H  321  1  0.51424900  0.40097200  0.98693900  1
  H  322  1  0.51513000  0.43581100  0.98555700  1
  H  323  1  0.50856200  0.40376400  0.04814200  1
  H  324  1  0.50902400  0.43847400  0.04661600  1
  H  325  1  0.47300500  0.44777800  0.01606600  1
  H  326  1  0.44706700  0.47401800  0.01649300  1
  H  327  1  0.50022000  0.50064100  0.01469100  1
  H  328  1  0.52453300  0.52466400  0.01562600  1
  H  329  1  0.55152800  0.44672600  0.01585800  1
  H  330  1  0.57785700  0.47276900  0.01586500  1
  H  331  1  0.58919100  0.51355800  0.98549100  1
  H  332  1  0.62403600  0.51284900  0.98693200  1
  H  333  1  0.58651900  0.51076200  0.04679400  1
  H  334  1  0.62123000  0.51050100  0.04835500  1
  H  335  1  0.57773100  0.55126000  0.01510200  1
  H  336  1  0.55181800  0.57751300  0.01526700  1
  H  337  1  0.44694700  0.55258700  0.01611200  1
  H  338  1  0.47327500  0.57859500  0.01633200  1
  H  339  1  0.51811200  0.58696100  0.04683600  1
  H  340  1  0.51950500  0.62170200  0.04806600  1
  H  341  1  0.50783400  0.58942000  0.98632600  1
  H  342  1  0.50951200  0.62421200  0.98741000  1
  H  343  1  0.49236800  0.65405200  0.00005700  1
  H  344  1  0.49550000  0.68860500  0.00111900  1
  H  345  1  0.54407300  0.68290900  0.03844900  1
  H  346  1  0.54114400  0.64849800  0.03705200  1
  H  347  1  0.43568100  0.50833400  0.98631400  1
  H  348  1  0.40087900  0.50979800  0.98737800  1
  H  349  1  0.37653000  0.54130000  0.03700100  1
  H  350  1  0.34212100  0.54426400  0.03832800  1
  H  351  1  0.33645100  0.49570400  0.00097400  1
  H  352  1  0.37100700  0.49254400  0.99997400  1
  H  353  1  0.40328000  0.51957400  0.04807200  1
  H  354  1  0.43803100  0.51837600  0.04686800  1
  H  355  1  0.64871800  0.48893800  0.04090700  1
  H  356  1  0.68311400  0.48849700  0.04423500  1
  H  357  1  0.65339500  0.53205800  0.99731800  1
  H  358  1  0.68805200  0.53127800  0.00033300  1
  H  363  1  0.31006100  0.53318500  0.02940800  1
  H  364  1  0.50479800  0.31095700  0.03851800  1
  H  365  1  0.71406900  0.50567500  0.03880900  1
  H  366  1  0.53294100  0.71498100  0.02961300  1
  H  439  1  0.53473000  0.97963300  0.84249700  1
  H  440  1  0.53447900  0.98332200  0.87685800  1
  H  441  1  0.50109900  0.03080700  0.83662600  1
  H  442  1  0.50114700  0.03466900  0.87122700  1
  H  443  1  0.48752800  0.01770600  0.90141400  1
  H  444  1  0.48687800  0.01886300  0.93625500  1
  H  445  1  0.54769300  0.00499900  0.90310500  1
  H  446  1  0.54692700  0.00601700  0.93788600  1
  H  447  1  0.51637000  0.97338300  0.94756100  1
  H  448  1  0.51670200  0.94731600  0.97362000  1
  H  449  1  0.51619900  0.00032700  0.00057700  1
  H  450  1  0.51651100  0.02449200  0.02475600  1
  H  451  1  0.51702000  0.05197200  0.94698400  1
  H  452  1  0.51683000  0.07811300  0.97315600  1
  H  453  1  0.48664900  0.08873500  0.01771800  1
  H  454  1  0.48733400  0.12358300  0.01673400  1
  H  455  1  0.54717700  0.08717400  0.00733900  1
  H  456  1  0.54798300  0.12195800  0.00654600  1
  H  457  1  0.51615900  0.07751800  0.05169600  1
  H  458  1  0.51598100  0.05146300  0.07776300  1
  H  459  1  0.51674600  0.94673500  0.05221700  1
  H  460  1  0.51698900  0.97288300  0.07836300  1
  H  461  1  0.54699100  0.01927600  0.08734700  1
  H  462  1  0.54777600  0.02068500  0.12211900  1
  H  463  1  0.48708200  0.00580300  0.08916900  1
  H  464  1  0.48775900  0.00731500  0.12399500  1
  H  465  1  0.50174100  0.99066200  0.15423700  1
  H  466  1  0.50156300  0.99481800  0.18879600  1
  H  467  1  0.53428700  0.04653400  0.18256900  1
  H  468  1  0.53418200  0.04253500  0.14821100  1
  H  469  1  0.48707000  0.93598700  0.00649800  1
  H  470  1  0.48772400  0.90115000  0.00777300  1
  H  471  1  0.53441800  0.87680100  0.04248200  1
  H  472  1  0.53448600  0.84244300  0.04646200  1
  H  473  1  0.50130100  0.83631100  0.99502900  1
  H  474  1  0.50150800  0.87087700  0.99089600  1
  H  475  1  0.54788100  0.90287500  0.02050400  1
  H  476  1  0.54712300  0.93765600  0.01932000  1
  H  477  1  0.53576500  0.14822600  0.98444700  1
  H  478  1  0.53610100  0.18258500  0.98077500  1
  H  479  1  0.50008600  0.15376400  0.03420600  1
  H  480  1  0.50011800  0.18836500  0.03033500  1
  H  485  1  0.52008500  0.81104400  0.03800500  1
  H  486  1  0.52121300  0.98837100  0.81105900  1
  H  487  1  0.52182200  0.21395100  0.98877800  1
  H  488  1  0.52003100  0.03796200  0.21400500  1
  H  561  1  0.84252200  0.53471500  0.97970700  1
  H  562  1  0.87687800  0.53447500  0.98342500  1
  H  563  1  0.83661700  0.50108400  0.03087900  1
  H  564  1  0.87121700  0.50114500  0.03477000  1
  H  565  1  0.90141500  0.48753100  0.01783900  1
  H  566  1  0.93625400  0.48688200  0.01902000  1
  H  567  1  0.90311100  0.54769300  0.00511800  1
  H  568  1  0.93789200  0.54692800  0.00616000  1
  H  569  1  0.94756100  0.51634200  0.97353900  1
  H  570  1  0.97361800  0.51667300  0.94747200  1
  H  571  1  0.00057700  0.51624200  0.00048100  1
  H  572  1  0.02475500  0.51650100  0.02464800  1
  H  573  1  0.94698500  0.51702800  0.05212700  1
  H  574  1  0.97315700  0.51683000  0.07826900  1
  H  575  1  0.01775800  0.48665800  0.08890000  1
  H  576  1  0.01676300  0.48734300  0.12374700  1
  H  577  1  0.00730100  0.54717200  0.08733300  1
  H  578  1  0.00649200  0.54797700  0.12211600  1
  H  579  1  0.05170000  0.51615600  0.07767100  1
  H  580  1  0.07776400  0.51597200  0.05161300  1
  H  581  1  0.05221400  0.51678200  0.94688600  1
  H  582  1  0.07836000  0.51701200  0.97303500  1
  H  583  1  0.08734800  0.54698500  0.01942500  1
  H  584  1  0.12212100  0.54777200  0.02080900  1
  H  585  1  0.08916400  0.48707900  0.00594000  1
  H  586  1  0.12399000  0.48775600  0.00742800  1
  H  587  1  0.15422000  0.50173800  0.99075900  1
  H  588  1  0.18878100  0.50156200  0.99488800  1
  H  589  1  0.18259300  0.53429000  0.04660700  1
  H  590  1  0.14823200  0.53418300  0.04263500  1
  H  591  1  0.00652400  0.48707300  0.93614000  1
  H  592  1  0.00780400  0.48772700  0.90130500  1
  H  593  1  0.04246400  0.53444400  0.87695400  1
  H  594  1  0.04644300  0.53451700  0.84259500  1
  H  595  1  0.99503800  0.50129100  0.83646300  1
  H  596  1  0.99090500  0.50149400  0.87102900  1
  H  597  1  0.02047500  0.54789700  0.90302800  1
  H  598  1  0.01928800  0.54713900  0.93780700  1
  H  599  1  0.98441200  0.53573500  0.14838200  1
  H  600  1  0.98074200  0.53608200  0.18274300  1
  H  601  1  0.03422800  0.50014000  0.15393500  1
  H  602  1  0.03036100  0.50018400  0.18853700  1
  H  607  1  0.03801500  0.52006000  0.81120700  1
  H  608  1  0.81108100  0.52117900  0.98841700  1
  H  609  1  0.98879300  0.52190900  0.21412700  1
  H  610  1  0.21402400  0.52004300  0.03801100  1
  H  683  1  0.98318300  0.84161700  0.53933300  1
  H  684  1  0.98522500  0.87605400  0.53744700  1
  H  685  1  0.03134800  0.83659700  0.50140300  1
  H  686  1  0.03358400  0.87123300  0.49981700  1
  H  687  1  0.01585500  0.90093500  0.48741100  1
  H  688  1  0.01703300  0.93576300  0.48641300  1
  H  689  1  0.00652900  0.90315600  0.54817200  1
  H  690  1  0.00743900  0.93790500  0.54703700  1
  H  691  1  0.97323400  0.94745800  0.51694500  1
  H  692  1  0.94724500  0.97360300  0.51723400  1
  H  693  1  0.00030500  0.00039100  0.51529900  1
  H  694  1  0.02452000  0.02454600  0.51551800  1
  H  695  1  0.05180300  0.94666500  0.51602900  1
  H  696  1  0.07800900  0.97279700  0.51586700  1
  H  697  1  0.08878200  0.01771200  0.48639600  1
  H  698  1  0.12362800  0.01678700  0.48715800  1
  H  699  1  0.08708800  0.00668500  0.54680400  1
  H  700  1  0.12186900  0.00597700  0.54769500  1
  H  701  1  0.07760800  0.05133400  0.51673600  1
  H  702  1  0.05162800  0.07748200  0.51659000  1
  H  703  1  0.94685300  0.05218700  0.51578100  1
  H  704  1  0.97307000  0.07829300  0.51596800  1
  H  705  1  0.01773800  0.08685400  0.54716900  1
  H  706  1  0.01907000  0.12158600  0.54842600  1
  H  707  1  0.00778200  0.08932700  0.48661300  1
  H  708  1  0.00935900  0.12413800  0.48773500  1
  H  709  1  0.99188300  0.15387100  0.50049000  1
  H  710  1  0.99431700  0.18847100  0.50224800  1
  H  711  1  0.04285800  0.18300800  0.53963500  1
  H  712  1  0.04060400  0.14857000  0.53758400  1
  H  713  1  0.93594500  0.00613000  0.48684400  1
  H  714  1  0.90111100  0.00740900  0.48757000  1
  H  715  1  0.87686100  0.04255600  0.53404600  1
  H  716  1  0.84250900  0.04654300  0.53416000  1
  H  717  1  0.83629500  0.99489800  0.50132500  1
  H  718  1  0.87085800  0.99075100  0.50149800  1
  H  719  1  0.90298300  0.02078400  0.54758200  1
  H  720  1  0.93775900  0.01962300  0.54674600  1
  H  721  1  0.14821900  0.98412000  0.53541900  1
  H  722  1  0.18257800  0.98050300  0.53581100  1
  H  723  1  0.15375900  0.03412400  0.50008200  1
  H  724  1  0.18836300  0.03030200  0.50016000  1
  H  729  1  0.81107800  0.03800100  0.51993300  1
  H  730  1  0.99621400  0.80982500  0.53224700  1
  H  731  1  0.21397500  0.98867900  0.52178800  1
  H  732  1  0.02966300  0.21497100  0.53298600  1
  H  738  1  0.98592700  0.50347500  0.24407500  1
  H  740  1  0.04177600  0.52466700  0.28137600  1
  H  742  1  0.04923400  0.52711200  0.22803200  1
  H  743  1  0.06152600  0.51790300  0.24860700  1
  H  744  1  0.05253300  0.54214400  0.24858800  1
  H  746  1  0.97847800  0.50105500  0.29739400  1
  H  747  1  0.97519200  0.48601800  0.27683900  1
  H  748  1  0.96616800  0.51024800  0.27682000  1
  H  756  1  0.03953300  0.50150700  0.78136000  1
  H  758  1  0.98471200  0.52442400  0.74345900  1
  H  760  1  0.97794000  0.52964200  0.79681200  1
  H  761  1  0.96500300  0.52012700  0.77676900  1
  H  762  1  0.97513000  0.54389100  0.77564000  1
  H  764  1  0.04571200  0.49535900  0.72817900  1
  H  765  1  0.04863400  0.48191100  0.74979900  1
  H  766  1  0.05932600  0.50534800  0.74756700  1
  H  774  1  0.24392600  0.98583800  0.50336600  1
  H  776  1  0.28117600  0.04171400  0.52457800  1
  H  778  1  0.22782500  0.04912500  0.52702000  1
  H  779  1  0.24839000  0.06143600  0.51781200  1
  H  780  1  0.24837900  0.05243900  0.54205200  1
  H  782  1  0.29725300  0.97843300  0.50096000  1
  H  783  1  0.27670500  0.97513400  0.48591500  1
  H  784  1  0.27668500  0.96610400  0.51014300  1
  H  792  1  0.78121400  0.03954500  0.50142200  1
  H  794  1  0.74332000  0.98470000  0.52429200  1
  H  796  1  0.79667500  0.97792600  0.52949200  1
  H  797  1  0.77663200  0.96500000  0.51996300  1
  H  798  1  0.77550600  0.97509500  0.54373900  1
  H  800  1  0.72803200  0.04572800  0.49529000  1
  H  801  1  0.74965200  0.04866200  0.48184400  1
  H  802  1  0.74741900  0.05933600  0.50529000  1
  H  810  1  0.50342200  0.24390000  0.98594600  1
  H  812  1  0.52465100  0.28120800  0.04177600  1
  H  814  1  0.52713900  0.22786600  0.04922800  1
  H  815  1  0.51793200  0.24843500  0.06153000  1
  H  816  1  0.54216300  0.24843200  0.05250900  1
  H  818  1  0.50096800  0.29721900  0.97850400  1
  H  819  1  0.48593800  0.27665700  0.97523000  1
  H  820  1  0.51015900  0.27665100  0.96618300  1
  H  828  1  0.50148600  0.78121300  0.03954200  1
  H  830  1  0.52433000  0.74330900  0.98469300  1
  H  832  1  0.52956800  0.79666200  0.97792600  1
  H  833  1  0.52003000  0.77662500  0.96499400  1
  H  834  1  0.54380300  0.77548300  0.97509600  1
  H  836  1  0.49531600  0.72803300  0.04571900  1
  H  837  1  0.48188200  0.74966100  0.04865500  1
  H  838  1  0.50532700  0.74741400  0.05932700  1
  H  846  1  0.50307900  0.98596200  0.78100900  1
  H  848  1  0.52523900  0.04155800  0.74389900  1
  H  850  1  0.52781200  0.04880600  0.79725900  1
  H  851  1  0.51881000  0.06131500  0.77672300  1
  H  852  1  0.54289400  0.05190800  0.77670800  1
  H  854  1  0.50054200  0.97872700  0.72766900  1
  H  855  1  0.48544900  0.97563100  0.74821300  1
  H  856  1  0.50952200  0.96619900  0.74820400  1
  H  864  1  0.50144100  0.03934600  0.24385800  1
  H  866  1  0.52472700  0.98465800  0.28173000  1
  H  868  1  0.53002100  0.97796900  0.22837000  1
  H  869  1  0.52058500  0.96494600  0.24839500  1
  H  870  1  0.54427700  0.97523800  0.24954700  1
  H  872  1  0.49528600  0.04546300  0.29704900  1
  H  873  1  0.48178300  0.04829000  0.27544500  1
  H  874  1  0.50514700  0.05914700  0.27764600  1
  H  882  1  0.98402000  0.24391000  0.52479400  1
  H  884  1  0.03932100  0.28073200  0.50127800  1
  H  886  1  0.04478500  0.22738800  0.49585800  1
  H  887  1  0.05868500  0.24665800  0.50569100  1
  H  888  1  0.04804300  0.24883000  0.48222600  1
  H  890  1  0.97789200  0.29743400  0.52894400  1
  H  891  1  0.97479300  0.27658000  0.54359800  1
  H  892  1  0.96471700  0.27737100  0.51979900  1
  H  900  1  0.04100300  0.78120600  0.52719500  1
  H  902  1  0.98714200  0.74382900  0.50110200  1
  H  904  1  0.98277700  0.79713700  0.49321400  1
  H  905  1  0.96804200  0.77833400  0.50274600  1
  H  906  1  0.98012700  0.77528000  0.48009000  1
  H  908  1  0.04546600  0.72785800  0.53483300  1
  H  909  1  0.04805500  0.74961900  0.54814500  1
  H  910  1  0.06012600  0.74678800  0.52545200  1
  H  918  1  0.24386500  0.50141900  0.03937500  1
  H  920  1  0.28171800  0.52474700  0.98469300  1
  H  922  1  0.22835500  0.53002500  0.97801700  1
  H  923  1  0.24838100  0.52060700  0.96498500  1
  H  924  1  0.24952700  0.54429300  0.97529100  1
  H  926  1  0.29706100  0.49529300  0.04548600  1
  H  927  1  0.27547200  0.48176300  0.04829600  1
  H  928  1  0.27764500  0.50512000  0.05917500  1
  H  936  1  0.78102500  0.50305400  0.98601000  1
  H  938  1  0.74389200  0.52526100  0.04157100  1
  H  940  1  0.79724700  0.52783400  0.04884100  1
  H  941  1  0.77670500  0.51883900  0.06134500  1
  H  942  1  0.77669600  0.54291900  0.05192800  1
  H  944  1  0.72768800  0.50051000  0.97875300  1
  H  945  1  0.74823300  0.48541500  0.97568000  1
  H  946  1  0.74822700  0.50948000  0.96622500  1
  C  1  1  0.01526100  0.47607900  0.46257600  1
  C  2  1  0.01532700  0.46191600  0.47688500  1
  C  3  1  0.01517000  0.47111900  0.49504500  1
  C  5  1  0.01515400  0.49434600  0.47157800  1
  C  6  1  0.01524100  0.51255300  0.46154800  1
  C  7  1  0.01533400  0.53106600  0.47088900  1
  C  9  1  0.01559600  0.55438900  0.49391600  1
  C  10  1  0.01581400  0.56347600  0.47570600  1
  C  11  1  0.01570900  0.54915100  0.46156600  1
  C  12  1  0.01567200  0.56397100  0.51231000  1
  C  13  1  0.01553100  0.55412800  0.53061000  1
  C  15  1  0.01563400  0.53090200  0.55407600  1
  C  16  1  0.01557400  0.54917500  0.56307400  1
  C  17  1  0.01559500  0.56333300  0.54876700  1
  C  18  1  0.01581500  0.51270000  0.56411800  1
  C  19  1  0.01570100  0.49418700  0.55477700  1
  C  21  1  0.01551200  0.47086500  0.53174400  1
  C  22  1  0.01595900  0.46177700  0.54994800  1
  C  23  1  0.01614600  0.47609800  0.56409000  1
  C  24  1  0.01536800  0.46128300  0.51335100  1
  C  25  1  0.01603000  0.44039600  0.51334100  1
  C  26  1  0.03400600  0.43052500  0.51497700  1
  C  27  1  0.03471800  0.41001200  0.51555400  1
  C  28  1  0.01756300  0.39851000  0.51453900  1
  C  29  1  0.99962300  0.40858900  0.51259400  1
  C  30  1  0.99883600  0.42913700  0.51207900  1
  C  31  1  0.01845000  0.37755700  0.51566800  1
  C  32  1  0.00672000  0.36537200  0.50378100  1
  C  33  1  0.00827400  0.34485300  0.50451200  1
  C  34  1  0.02160400  0.33562600  0.51726600  1
  C  35  1  0.03308900  0.34772700  0.52938000  1
  C  36  1  0.03146700  0.36817000  0.52866300  1
  C  37  1  0.01650800  0.51302300  0.58499800  1
  C  38  1  0.03427700  0.51632800  0.59484300  1
  C  39  1  0.03491700  0.51726100  0.61534700  1
  C  40  1  0.01789800  0.51484200  0.62682000  1
  C  41  1  0.00019900  0.51121700  0.61679200  1
  C  42  1  0.99947700  0.51039500  0.59626600  1
  C  43  1  0.01853500  0.51649200  0.64771000  1
  C  44  1  0.02963600  0.53128600  0.65686300  1
  C  45  1  0.03031000  0.53310800  0.67729500  1
  C  46  1  0.01993300  0.52021600  0.68963200  1
  C  47  1  0.00879400  0.50540400  0.68052000  1
  C  48  1  0.00806100  0.50364700  0.66003400  1
  C  49  1  0.01637900  0.58485800  0.51233600  1
  C  50  1  0.99926600  0.59613000  0.51434900  1
  C  51  1  0.00006900  0.61667600  0.51396300  1
  C  52  1  0.01793800  0.62673100  0.51139000  1
  C  53  1  0.03502400  0.61523500  0.50958400  1
  C  54  1  0.03429900  0.59471700  0.51007600  1
  C  55  1  0.01873500  0.64766400  0.51018100  1
  C  56  1  0.03073600  0.65702900  0.49624600  1
  C  57  1  0.03167700  0.67748500  0.49488500  1
  C  58  1  0.02068400  0.68967200  0.50740600  1
  C  59  1  0.00860800  0.68036200  0.52133400  1
  C  60  1  0.00761100  0.65984000  0.52262600  1
  C  61  1  0.01593000  0.51227000  0.44067400  1
  C  62  1  0.99882200  0.51405200  0.42935400  1
  C  63  1  0.03390800  0.51023200  0.43088800  1
  C  64  1  0.03470300  0.50977500  0.41038200  1
  C  65  1  0.01763500  0.51134800  0.39881900  1
  C  66  1  0.99969300  0.51365900  0.40880900  1
  C  67  1  0.01863900  0.51045900  0.37787900  1
  C  68  1  0.00747900  0.52294800  0.36576500  1
  C  69  1  0.00927500  0.52249300  0.34525800  1
  C  70  1  0.02229700  0.50944400  0.33599600  1
  C  71  1  0.03314600  0.49669600  0.34803300  1
  C  72  1  0.03128800  0.49714000  0.36845600  1
  C  115  1  0.02462300  0.31550400  0.51747700  1
  C  116  1  0.02116900  0.52244400  0.70989500  1
  C  117  1  0.02217500  0.70996500  0.50555200  1
  C  118  1  0.02553300  0.50933900  0.31590900  1
  C  123  1  0.46239000  0.01574200  0.47585800  1
  C  124  1  0.47670600  0.01596600  0.46170400  1
  C  125  1  0.49486500  0.01553100  0.47090500  1
  C  127  1  0.47138800  0.01530200  0.49412000  1
  C  128  1  0.46134900  0.01521900  0.51232000  1
  C  129  1  0.47069300  0.01516300  0.53082700  1
  C  131  1  0.49373400  0.01526600  0.55411800  1
  C  132  1  0.47553900  0.01555700  0.56322900  1
  C  133  1  0.46138500  0.01553700  0.54892000  1
  C  134  1  0.51213500  0.01528400  0.56366900  1
  C  135  1  0.53044300  0.01525800  0.55385300  1
  C  137  1  0.55392300  0.01553600  0.53066300  1
  C  138  1  0.56290900  0.01533200  0.54893900  1
  C  139  1  0.54858900  0.01522600  0.56308200  1
  C  140  1  0.56397700  0.01578100  0.51247300  1
  C  141  1  0.55462600  0.01574900  0.49396700  1
  C  143  1  0.53158000  0.01575300  0.47066100  1
  C  144  1  0.54979100  0.01597500  0.46157000  1
  C  145  1  0.56394000  0.01607300  0.47588100  1
  C  146  1  0.51317800  0.01577300  0.46108400  1
  C  147  1  0.51318500  0.01649000  0.44020100  1
  C  148  1  0.51639000  0.03425900  0.43032000  1
  C  149  1  0.51724400  0.03487900  0.40981300  1
  C  150  1  0.51484000  0.01783800  0.39837000  1
  C  151  1  0.51126600  0.00014600  0.40842700  1
  C  152  1  0.51052900  0.99944500  0.42895900  1
  C  153  1  0.51651600  0.01843800  0.37748300  1
  C  154  1  0.50367200  0.00796400  0.36515900  1
  C  155  1  0.50546600  0.00865400  0.34467300  1
  C  156  1  0.52030600  0.01975700  0.33556500  1
  C  157  1  0.53319800  0.03013300  0.34790300  1
  C  158  1  0.53134100  0.02950200  0.36833500  1
  C  159  1  0.58485600  0.01646700  0.51280800  1
  C  160  1  0.59469400  0.03422800  0.51616900  1
  C  161  1  0.61519500  0.03487000  0.51712700  1
  C  162  1  0.62667400  0.01785800  0.51468400  1
  C  163  1  0.61665400  0.00016800  0.51099200  1
  C  164  1  0.59612800  0.99944200  0.51015600  1
  C  165  1  0.64756300  0.01849800  0.51635400  1
  C  166  1  0.65670200  0.02957300  0.53117500  1
  C  167  1  0.67713400  0.03024500  0.53301500  1
  C  168  1  0.68948400  0.01990400  0.52010400  1
  C  169  1  0.68038400  0.00879900  0.50526100  1
  C  170  1  0.65990000  0.00806900  0.50348500  1
  C  171  1  0.51217300  0.01600200  0.58453400  1
  C  172  1  0.51294500  0.99882300  0.59585500  1
  C  173  1  0.51268500  0.99973700  0.61640000  1
  C  174  1  0.51151300  0.01779800  0.62637300  1
  C  175  1  0.51097100  0.03492400  0.61480200  1
  C  176  1  0.51129100  0.03408400  0.59429800  1
  C  177  1  0.51067000  0.01886900  0.64730700  1
  C  178  1  0.49810600  0.03228600  0.65670100  1
  C  179  1  0.49771400  0.03414700  0.67712400  1
  C  180  1  0.50976300  0.02255400  0.68918800  1
  C  181  1  0.52203600  0.00878100  0.67994700  1
  C  182  1  0.52243900  0.00697600  0.65944000  1
  C  183  1  0.44047700  0.01593200  0.51205000  1
  C  184  1  0.42915300  0.99881900  0.51375000  1
  C  185  1  0.43069700  0.03392800  0.51014300  1
  C  186  1  0.41019100  0.03473500  0.50972400  1
  C  187  1  0.39862700  0.01766000  0.51120200  1
  C  188  1  0.40860900  0.99969900  0.51338000  1
  C  189  1  0.37768700  0.01867400  0.51033500  1
  C  190  1  0.36558100  0.00744800  0.52277100  1
  C  191  1  0.34507400  0.00923900  0.52232400  1
  C  192  1  0.33580500  0.02231100  0.50933200  1
  C  193  1  0.34783800  0.03322900  0.49663900  1
  C  194  1  0.36826200  0.03138400  0.49707800  1
  C  237  1  0.52256500  0.02096400  0.31530400  1
  C  238  1  0.70974500  0.02114500  0.52234500  1
  C  239  1  0.50971500  0.02571500  0.70929500  1
  C  240  1  0.31571200  0.02550600  0.50920900  1
  C  245  1  0.47585700  0.46238900  0.01575700  1
  C  246  1  0.46170300  0.47670400  0.01597200  1
  C  247  1  0.47090500  0.49486300  0.01553500  1
  C  249  1  0.49411900  0.47138700  0.01530900  1
  C  250  1  0.51231800  0.46134700  0.01521600  1
  C  251  1  0.53082500  0.47069000  0.01516100  1
  C  253  1  0.55411800  0.49373000  0.01526400  1
  C  254  1  0.56322900  0.47553500  0.01556400  1
  C  255  1  0.54892000  0.46138100  0.01553400  1
  C  256  1  0.56366900  0.51213000  0.01527500  1
  C  257  1  0.55385400  0.53043900  0.01524100  1
  C  259  1  0.53066300  0.55391800  0.01552900  1
  C  260  1  0.54894000  0.56290500  0.01531300  1
  C  261  1  0.56308200  0.54858500  0.01520300  1
  C  262  1  0.51247400  0.56397200  0.01578900  1
  C  263  1  0.49396900  0.55462400  0.01575500  1
  C  265  1  0.47066100  0.53157700  0.01575100  1
  C  266  1  0.46157000  0.54979000  0.01597400  1
  C  267  1  0.47588300  0.56393900  0.01607500  1
  C  268  1  0.46108200  0.51317600  0.01576700  1
  C  269  1  0.44019900  0.51318500  0.01648700  1
  C  270  1  0.43032100  0.51639500  0.03425600  1
  C  271  1  0.40981400  0.51725400  0.03487700  1
  C  272  1  0.39837000  0.51484700  0.01783700  1
  C  273  1  0.40842600  0.51126900  0.00014600  1
  C  274  1  0.42895800  0.51052900  0.99944200  1
  C  275  1  0.37748300  0.51652400  0.01844000  1
  C  276  1  0.36515600  0.50368300  0.00796700  1
  C  277  1  0.34467200  0.50547400  0.00866900  1
  C  278  1  0.33556600  0.52032200  0.01976500  1
  C  279  1  0.34790900  0.53321900  0.03013000  1
  C  280  1  0.36833900  0.53135700  0.02949700  1
  C  281  1  0.51281100  0.58485100  0.01647000  1
  C  282  1  0.51617000  0.59469100  0.03423000  1
  C  283  1  0.51713500  0.61519400  0.03486800  1
  C  284  1  0.51469400  0.62666800  0.01785300  1
  C  285  1  0.51101000  0.61664600  0.00016400  1
  C  286  1  0.51016600  0.59612000  0.99944200  1
  C  287  1  0.51637000  0.64755700  0.01848900  1
  C  288  1  0.53119400  0.65669400  0.02956300  1
  C  289  1  0.53303200  0.67712500  0.03024100  1
  C  290  1  0.52012400  0.68947700  0.01990100  1
  C  291  1  0.50528300  0.68038000  0.00879000  1
  C  292  1  0.50350800  0.65989600  0.00805300  1
  C  293  1  0.58453500  0.51216800  0.01599600  1
  C  294  1  0.59585700  0.51296400  0.99881700  1
  C  295  1  0.61640000  0.51270100  0.99973100  1
  C  296  1  0.62637300  0.51150500  0.01779000  1
  C  297  1  0.61480200  0.51094100  0.03491500  1
  C  298  1  0.59429800  0.51126100  0.03407600  1
  C  299  1  0.64730800  0.51066600  0.01886000  1
  C  300  1  0.65670400  0.49808700  0.03226200  1
  C  301  1  0.67712500  0.49769800  0.03412400  1
  C  302  1  0.68919000  0.50976700  0.02255100  1
  C  303  1  0.67994400  0.52206900  0.00880700  1
  C  304  1  0.65943800  0.52246100  0.00698900  1
  C  305  1  0.51204900  0.44047600  0.01593600  1
  C  306  1  0.51375200  0.42914700  0.99882600  1
  C  307  1  0.51014200  0.43070200  0.03393500  1
  C  308  1  0.50971500  0.41019600  0.03474600  1
  C  309  1  0.51120500  0.39862500  0.01767500  1
  C  310  1  0.51339800  0.40860300  0.99971300  1
  C  311  1  0.51034300  0.37768700  0.01869400  1
  C  312  1  0.52278500  0.36558100  0.00747400  1
  C  313  1  0.52235300  0.34507600  0.00928400  1
  C  314  1  0.50934900  0.33580800  0.02234600  1
  C  315  1  0.49664600  0.34783900  0.03325300  1
  C  316  1  0.49708200  0.36826200  0.03140200  1
  C  359  1  0.31530700  0.52257800  0.02098100  1
  C  360  1  0.52236500  0.70973600  0.02114600  1
  C  361  1  0.70929200  0.50973700  0.02572800  1
  C  362  1  0.50923700  0.31571600  0.02555500  1
  C  367  1  0.51635700  0.97617600  0.96218500  1
  C  368  1  0.51649800  0.96193900  0.97641200  1
  C  369  1  0.51635500  0.97103400  0.99462700  1
  C  371  1  0.51633600  0.99439700  0.97128100  1
  C  372  1  0.51638300  0.01265600  0.96133200  1
  C  373  1  0.51637400  0.03110000  0.97081000  1
  C  375  1  0.51644600  0.05425900  0.99400500  1
  C  376  1  0.51666700  0.06347200  0.97585700  1
  C  377  1  0.51673300  0.04925400  0.96161900  1
  C  378  1  0.51638300  0.06372200  0.01246100  1
  C  379  1  0.51620800  0.05378200  0.03070600  1
  C  381  1  0.51631700  0.03043700  0.05404900  1
  C  382  1  0.51609000  0.04866100  0.06314100  1
  C  383  1  0.51615300  0.06289100  0.04891300  1
  C  384  1  0.51647800  0.01218400  0.06400200  1
  C  385  1  0.51646700  0.99374000  0.05452500  1
  C  387  1  0.51653000  0.97056700  0.03133300  1
  C  388  1  0.51666700  0.96137200  0.04949400  1
  C  389  1  0.51676500  0.97559500  0.06372600  1
  C  390  1  0.51652100  0.96108500  0.01287600  1
  C  391  1  0.51703400  0.94018200  0.01275300  1
  C  392  1  0.53454200  0.93009100  0.01669000  1
  C  393  1  0.53490900  0.90957800  0.01750300  1
  C  394  1  0.51788100  0.89834400  0.01423600  1
  C  395  1  0.50048200  0.90857400  0.00985300  1
  C  396  1  0.50002100  0.92912000  0.00923300  1
  C  397  1  0.51811700  0.87749200  0.01615800  1
  C  398  1  0.50852400  0.86509200  0.00270900  1
  C  399  1  0.50857700  0.84464000  0.00503000  1
  C  400  1  0.51805700  0.83574000  0.02105800  1
  C  401  1  0.52757300  0.84814000  0.03452500  1
  C  402  1  0.52767200  0.86851000  0.03208600  1
  C  403  1  0.51696700  0.01238100  0.08490200  1
  C  404  1  0.53443800  0.01659600  0.09494200  1
  C  405  1  0.53482100  0.01752900  0.11545100  1
  C  406  1  0.51784900  0.01411600  0.12672500  1
  C  407  1  0.50048200  0.00950500  0.11654100  1
  C  408  1  0.50000300  0.00875600  0.09600400  1
  C  409  1  0.51810600  0.01607200  0.14757300  1
  C  410  1  0.52754900  0.03208400  0.15652300  1
  C  411  1  0.52746700  0.03453400  0.17689200  1
  C  412  1  0.51809900  0.02098800  0.18931800  1
  C  413  1  0.50874000  0.00487200  0.18044800  1
  C  414  1  0.50866900  0.00253800  0.15999900  1
  C  415  1  0.51683900  0.08461200  0.01261700  1
  C  416  1  0.49969000  0.09563300  0.01554000  1
  C  417  1  0.50016900  0.11618000  0.01511000  1
  C  418  1  0.51773500  0.12645200  0.01156500  1
  C  419  1  0.53488700  0.11523800  0.00890800  1
  C  420  1  0.53449200  0.09472000  0.00948500  1
  C  421  1  0.51805700  0.14732500  0.00984300  1
  C  422  1  0.52848000  0.15643000  0.99454300  1
  C  423  1  0.52851700  0.17681200  0.99226000  1
  C  424  1  0.51826800  0.18911900  0.00526600  1
  C  425  1  0.50791300  0.18010400  0.02067600  1
  C  426  1  0.50773800  0.15963000  0.02283900  1
  C  427  1  0.51682300  0.01250300  0.94042900  1
  C  428  1  0.49981400  0.01608300  0.92937700  1
  C  429  1  0.53433000  0.00861100  0.93033000  1
  C  430  1  0.53470300  0.00791600  0.90981300  1
  C  431  1  0.51768400  0.01125900  0.89858200  1
  C  432  1  0.50028100  0.01557700  0.90883100  1
  C  433  1  0.51794800  0.00949800  0.87771000  1
  C  434  1  0.50827000  0.02295400  0.86537800  1
  C  435  1  0.50840500  0.02078900  0.84490400  1
  C  436  1  0.51806300  0.00491700  0.83590900  1
  C  437  1  0.52765900  0.99145000  0.84824900  1
  C  438  1  0.52767700  0.99373300  0.86863400  1
  C  481  1  0.51768300  0.81566100  0.02447100  1
  C  482  1  0.51771700  0.02441100  0.20939500  1
  C  483  1  0.51821600  0.20923200  0.00200800  1
  C  484  1  0.51795600  0.00168700  0.81578600  1
  C  489  1  0.96218400  0.51631300  0.97633200  1
  C  490  1  0.97641000  0.51646600  0.96209500  1
  C  491  1  0.99462600  0.51633800  0.97118700  1
  C  493  1  0.97128100  0.51631900  0.99455300  1
  C  494  1  0.96133300  0.51638600  0.01281200  1
  C  495  1  0.97081200  0.51638200  0.03125600  1
  C  497  1  0.99400700  0.51644700  0.05441600  1
  C  498  1  0.97585800  0.51667400  0.06362800  1
  C  499  1  0.96162100  0.51674100  0.04940900  1
  C  500  1  0.01246400  0.51638000  0.06388000  1
  C  501  1  0.03070800  0.51621100  0.05393700  1
  C  503  1  0.05404900  0.51631200  0.03059000  1
  C  504  1  0.06314200  0.51609000  0.04881300  1
  C  505  1  0.04891600  0.51615100  0.06304400  1
  C  506  1  0.06400000  0.51647200  0.01233600  1
  C  507  1  0.05452300  0.51647000  0.99389200  1
  C  509  1  0.03133000  0.51654300  0.97071800  1
  C  510  1  0.04949100  0.51668900  0.96152200  1
  C  511  1  0.06372300  0.51678200  0.97574600  1
  C  512  1  0.01287400  0.51653200  0.96123800  1
  C  513  1  0.01274700  0.51704400  0.94033500  1
  C  514  1  0.01667300  0.53455300  0.93024400  1
  C  515  1  0.01748200  0.53492000  0.90973000  1
  C  516  1  0.01422800  0.51789100  0.89849600  1
  C  517  1  0.00984500  0.50049100  0.90872700  1
  C  518  1  0.00924600  0.50002600  0.92927100  1
  C  519  1  0.01615100  0.51812700  0.87764300  1
  C  520  1  0.00270700  0.50852600  0.86524500  1
  C  521  1  0.00503400  0.50857300  0.84479300  1
  C  522  1  0.02104800  0.51807400  0.83589300  1
  C  523  1  0.03451100  0.52759700  0.84829300  1
  C  524  1  0.03206300  0.52770900  0.86866100  1
  C  525  1  0.08490000  0.51696100  0.01253100  1
  C  526  1  0.09494200  0.53443400  0.01673200  1
  C  527  1  0.11545100  0.53481700  0.01765900  1
  C  528  1  0.12672400  0.51784400  0.01423700  1
  C  529  1  0.11653800  0.50047700  0.00963300  1
  C  530  1  0.09600000  0.49999700  0.00889900  1
  C  531  1  0.14757300  0.51810600  0.01617200  1
  C  532  1  0.15653600  0.52754700  0.03217800  1
  C  533  1  0.17690600  0.52746700  0.03461300  1
  C  534  1  0.18932200  0.51809800  0.02105800  1
  C  535  1  0.18043900  0.50873100  0.00495400  1
  C  536  1  0.15998900  0.50866000  0.00263400  1
  C  537  1  0.01262000  0.51684000  0.08477100  1
  C  538  1  0.01556300  0.49969700  0.09579500  1
  C  539  1  0.01514900  0.50017900  0.11634300  1
  C  540  1  0.01155900  0.51773800  0.12661300  1
  C  541  1  0.00887900  0.53488600  0.11539800  1
  C  542  1  0.00946100  0.53448900  0.09487900  1
  C  543  1  0.00982700  0.51805400  0.14748700  1
  C  544  1  0.99450800  0.52845300  0.15658700  1
  C  545  1  0.99223200  0.52850600  0.17697200  1
  C  546  1  0.00525300  0.51828100  0.18928600  1
  C  547  1  0.02067900  0.50794600  0.18027200  1
  C  548  1  0.02284100  0.50776500  0.15979800  1
  C  549  1  0.94043100  0.51682600  0.01265800  1
  C  550  1  0.92937700  0.49981700  0.01623200  1
  C  551  1  0.93033500  0.53433300  0.00875200  1
  C  552  1  0.90981700  0.53470500  0.00804400  1
  C  553  1  0.89858500  0.51768500  0.01137900  1
  C  554  1  0.90883200  0.50028300  0.01570500  1
  C  555  1  0.87771500  0.51794800  0.00960400  1
  C  556  1  0.86537500  0.50826800  0.02305100  1
  C  557  1  0.84490200  0.50839600  0.02086900  1
  C  558  1  0.83591800  0.51804800  0.00498900  1
  C  559  1  0.84826600  0.52765100  0.99153100  1
  C  560  1  0.86864800  0.52767200  0.99383200  1
  C  603  1  0.02447300  0.51768500  0.81581500  1
  C  604  1  0.20940200  0.51772000  0.02446500  1
  C  605  1  0.00200700  0.51825100  0.20940100  1
  C  606  1  0.81579900  0.51792900  0.00173800  1
  C  611  1  0.97606200  0.96207200  0.51661300  1
  C  612  1  0.96187100  0.97634500  0.51674600  1
  C  613  1  0.97101100  0.99453100  0.51616600  1
  C  615  1  0.99430200  0.97111200  0.51615100  1
  C  616  1  0.01252500  0.96110100  0.51603000  1
  C  617  1  0.03098900  0.97053900  0.51584700  1
  C  619  1  0.05420000  0.99369600  0.51590900  1
  C  620  1  0.06337200  0.97552500  0.51585800  1
  C  621  1  0.04912400  0.96131000  0.51592300  1
  C  622  1  0.06370300  0.01213600  0.51601000  1
  C  623  1  0.05381800  0.03041400  0.51603000  1
  C  625  1  0.03054500  0.05382600  0.51612800  1
  C  626  1  0.04879000  0.06286800  0.51639500  1
  C  627  1  0.06297600  0.04859500  0.51643400  1
  C  628  1  0.01232600  0.06383700  0.51610000  1
  C  629  1  0.99386300  0.05440200  0.51593400  1
  C  631  1  0.97063700  0.03125200  0.51600400  1
  C  632  1  0.96148500  0.04943600  0.51586400  1
  C  633  1  0.97573900  0.06364500  0.51594000  1
  C  634  1  0.96111600  0.01281200  0.51616600  1
  C  635  1  0.94021400  0.01273400  0.51672200  1
  C  636  1  0.93016600  0.01685100  0.53421200  1
  C  637  1  0.90965100  0.01765000  0.53462300  1
  C  638  1  0.89837200  0.01419000  0.51766200  1
  C  639  1  0.90856400  0.00962200  0.50028700  1
  C  640  1  0.92910800  0.00900300  0.49978200  1
  C  641  1  0.87751800  0.01611900  0.51792600  1
  C  642  1  0.86509200  0.00260800  0.50845200  1
  C  643  1  0.84464200  0.00494500  0.50851600  1
  C  644  1  0.83576300  0.02103500  0.51791100  1
  C  645  1  0.84818800  0.03455600  0.52731800  1
  C  646  1  0.86855700  0.03210700  0.52740100  1
  C  647  1  0.01259400  0.08473300  0.51677800  1
  C  648  1  0.01585100  0.09458400  0.53455300  1
  C  649  1  0.01679000  0.11508800  0.53520600  1
  C  650  1  0.01441600  0.12658100  0.51819200  1
  C  651  1  0.01082700  0.11655800  0.50048400  1
  C  652  1  0.01003400  0.09602200  0.49974700  1
  C  653  1  0.01591000  0.14749000  0.51892500  1
  C  654  1  0.03055000  0.15671200  0.53017500  1
  C  655  1  0.03197400  0.17716300  0.53126500  1
  C  656  1  0.01881700  0.18945300  0.52117000  1
  C  657  1  0.00426900  0.18028200  0.50974000  1
  C  658  1  0.00289800  0.15977800  0.50861000  1
  C  659  1  0.08459200  0.01225300  0.51651300  1
  C  660  1  0.09565000  0.01540900  0.49942900  1
  C  661  1  0.11619800  0.01503400  0.49995900  1
  C  662  1  0.12643500  0.01131900  0.51751200  1
  C  663  1  0.11518000  0.00845200  0.53460400  1
  C  664  1  0.09466000  0.00897100  0.53416000  1
  C  665  1  0.14731200  0.00962500  0.51786500  1
  C  666  1  0.15641900  0.99426600  0.52820000  1
  C  667  1  0.17680600  0.99202200  0.52828000  1
  C  668  1  0.18911800  0.00510800  0.51814000  1
  C  669  1  0.18010100  0.02057700  0.50787200  1
  C  670  1  0.15962500  0.02270800  0.50766300  1
  C  671  1  0.01230400  0.94019800  0.51661500  1
  C  672  1  0.01490700  0.92899600  0.49953100  1
  C  673  1  0.00929700  0.93024400  0.53437600  1
  C  674  1  0.00862200  0.90972700  0.53495800  1
  C  675  1  0.01102000  0.89831500  0.51788900  1
  C  676  1  0.01434900  0.90844900  0.50019400  1
  C  677  1  0.00971900  0.87738500  0.51854200  1
  C  678  1  0.02268500  0.86522000  0.50801600  1
  C  679  1  0.02143600  0.84469700  0.50904500  1
  C  680  1  0.00705200  0.83538600  0.52057000  1
  C  681  1  0.99394700  0.84755800  0.53087500  1
  C  682  1  0.99525100  0.86801600  0.52988800  1
  C  725  1  0.81568400  0.02446200  0.51754700  1
  C  726  1  0.02051200  0.20972300  0.52300200  1
  C  727  1  0.20923900  0.00188700  0.51812800  1
  C  728  1  0.00545100  0.81510200  0.52235200  1
  C  733  1  0.01314300  0.51369600  0.28360500  1
  C  734  1  0.99667100  0.50781900  0.27253200  1
  C  735  1  0.99772200  0.50814300  0.25192200  1
  C  736  1  0.01454300  0.51451700  0.24180800  1
  C  737  1  0.03102400  0.52036900  0.25288900  1
  C  739  1  0.02998100  0.52003100  0.27350400  1
  C  741  1  0.04953300  0.52723800  0.24391200  1
  C  745  1  0.97817300  0.50092800  0.28151400  1
  C  751  1  0.01288800  0.51243300  0.74169200  1
  C  752  1  0.02890400  0.50550100  0.75282500  1
  C  753  1  0.02808000  0.50679400  0.77340200  1
  C  754  1  0.01176600  0.51461400  0.78334300  1
  C  755  1  0.99554100  0.52095300  0.77212800  1
  C  757  1  0.99638600  0.51976700  0.75152700  1
  C  759  1  0.97747100  0.52907700  0.78094500  1
  C  763  1  0.04655500  0.49656900  0.74398200  1
  C  769  1  0.28342900  0.01308600  0.51359900  1
  C  770  1  0.27237400  0.99660400  0.50771900  1
  C  771  1  0.25176300  0.99763900  0.50803800  1
  C  772  1  0.24163500  0.01444900  0.51441600  1
  C  773  1  0.25269800  0.03093900  0.52027400  1
  C  775  1  0.27331500  0.02991400  0.51993900  1
  C  777  1  0.24370300  0.04943800  0.52714700  1
  C  781  1  0.28137300  0.97811600  0.50082600  1
  C  787  1  0.74154900  0.01288800  0.51232800  1
  C  788  1  0.75268000  0.02891500  0.50542000  1
  C  789  1  0.77325800  0.02809300  0.50671200  1
  C  790  1  0.78320100  0.01176800  0.51450400  1
  C  791  1  0.77198800  0.99553500  0.52083100  1
  C  793  1  0.75138700  0.99638100  0.51964900  1
  C  795  1  0.78080800  0.97745600  0.52892800  1
  C  799  1  0.74383500  0.04657200  0.49650100  1
  C  805  1  0.51364800  0.28343000  0.01315600  1
  C  806  1  0.50776100  0.27235900  0.99668700  1
  C  807  1  0.50809900  0.25174800  0.99773600  1
  C  808  1  0.51449600  0.24163800  0.01455000  1
  C  809  1  0.52036000  0.25271900  0.03102600  1
  C  811  1  0.52000900  0.27333400  0.02998500  1
  C  813  1  0.52725700  0.24374600  0.04952700  1
  C  817  1  0.50084800  0.28133900  0.97819800  1
  C  823  1  0.51236800  0.74154300  0.01288200  1
  C  824  1  0.50545600  0.75267700  0.02890600  1
  C  825  1  0.50675900  0.77325400  0.02808400  1
  C  826  1  0.51456800  0.78319300  0.01176500  1
  C  827  1  0.52088600  0.77197800  0.99553100  1
  C  829  1  0.51969200  0.75137700  0.99637400  1
  C  831  1  0.52899400  0.78079500  0.97745400  1
  C  835  1  0.49653400  0.74383600  0.04656400  1
  C  841  1  0.51376500  0.01313000  0.74157200  1
  C  842  1  0.50761000  0.99672400  0.75259100  1
  C  843  1  0.50795200  0.99770100  0.77320400  1
  C  844  1  0.51461600  0.01437600  0.78337600  1
  C  845  1  0.52075400  0.03078800  0.77234800  1
  C  847  1  0.52039500  0.02981900  0.75173000  1
  C  849  1  0.52794200  0.04915000  0.78138000  1
  C  853  1  0.50040700  0.97837400  0.74354800  1
  C  859  1  0.51253200  0.01274700  0.28350900  1
  C  860  1  0.50550700  0.02872800  0.27238700  1
  C  861  1  0.50681600  0.02793000  0.25181000  1
  C  862  1  0.51474400  0.01167400  0.24186200  1
  C  863  1  0.52119800  0.99548500  0.25306500  1
  C  865  1  0.51999600  0.99630600  0.27366600  1
  C  867  1  0.52945000  0.97748000  0.24423700  1
  C  871  1  0.49646300  0.04631500  0.28124300  1
  C  877  1  0.01155800  0.28326800  0.51425400  1
  C  878  1  0.99519100  0.27236900  0.52077300  1
  C  879  1  0.99580300  0.25173800  0.52000200  1
  C  880  1  0.01219600  0.24154400  0.51290100  1
  C  881  1  0.02834800  0.25237300  0.50577500  1
  C  883  1  0.02777700  0.27298700  0.50669200  1
  C  885  1  0.04586800  0.24318300  0.49693600  1
  C  889  1  0.97722200  0.28156500  0.52868800  1
  C  895  1  0.01413200  0.74176000  0.51555400  1
  C  896  1  0.02989900  0.75270600  0.52334100  1
  C  897  1  0.02964400  0.77327700  0.52161000  1
  C  898  1  0.01400100  0.78329000  0.51275800  1
  C  899  1  0.99824800  0.77233700  0.50493900  1
  C  901  1  0.99849300  0.75176600  0.50669000  1
  C  903  1  0.98142800  0.78138900  0.49471900  1
  C  907  1  0.04675900  0.74362500  0.53346800  1
  C  913  1  0.28350700  0.51255100  0.01278200  1
  C  914  1  0.27239000  0.50550100  0.02875500  1
  C  915  1  0.25181200  0.50679200  0.02795700  1
  C  916  1  0.24185900  0.51473800  0.01171200  1
  C  917  1  0.25305800  0.52120200  0.99552300  1
  C  919  1  0.27365900  0.52000800  0.99634100  1
  C  921  1  0.24422200  0.52946300  0.97752600  1
  C  925  1  0.28125300  0.49645100  0.04633500  1
  C  931  1  0.74157700  0.51376600  0.01315000  1
  C  932  1  0.75260100  0.50759600  0.99675400  1
  C  933  1  0.77321400  0.50794200  0.99773900  1
  C  934  1  0.78337900  0.51461600  0.01441400  1
  C  935  1  0.77234300  0.52076800  0.03081600  1
  C  937  1  0.75172700  0.52041000  0.02983900  1
  C  939  1  0.78136900  0.52796400  0.04917800  1
  C  943  1  0.74356700  0.50037600  0.97840800  1
  N  4  1  0.01499900  0.49050000  0.49099700  1
  N  8  1  0.01526600  0.53500900  0.49022200  1
  N  14  1  0.01549100  0.53474400  0.53465700  1
  N  20  1  0.01533600  0.49024600  0.53544600  1
  N  126  1  0.49080900  0.01508000  0.49027800  1
  N  130  1  0.49002800  0.01501000  0.53474300  1
  N  136  1  0.53450100  0.01538600  0.53448100  1
  N  142  1  0.53529100  0.01556500  0.49003800  1
  N  248  1  0.49027700  0.49080700  0.01508500  1
  N  252  1  0.53474300  0.49002300  0.01500300  1
  N  258  1  0.53448100  0.53449700  0.01537500  1
  N  264  1  0.49003800  0.53528800  0.01556700  1
  N  370  1  0.51623600  0.99043900  0.99068200  1
  N  374  1  0.51622700  0.03490500  0.99017100  1
  N  380  1  0.51627200  0.03438100  0.03464800  1
  N  386  1  0.51634900  0.98992300  0.03516300  1
  N  492  1  0.99068200  0.51622600  0.99059300  1
  N  496  1  0.99017200  0.51623000  0.03506200  1
  N  502  1  0.03464800  0.51626800  0.03453500  1
  N  508  1  0.03516100  0.51634900  0.99007500  1
  N  614  1  0.99039800  0.99052500  0.51580800  1
  N  618  1  0.03483700  0.98989700  0.51586000  1
  N  624  1  0.03443200  0.03441400  0.51582900  1
  N  630  1  0.99000200  0.03504500  0.51598100  1
  N  749  1  0.01240300  0.51359300  0.30316900  1
  N  750  1  0.01526800  0.51471900  0.22223500  1
  N  767  1  0.01221600  0.51146900  0.72223600  1
  N  768  1  0.01104800  0.51520000  0.80290700  1
  N  785  1  0.30299200  0.01236700  0.51349000  1
  N  786  1  0.22206100  0.01516100  0.51460400  1
  N  803  1  0.72209400  0.01221500  0.51136000  1
  N  804  1  0.80276800  0.01104400  0.51506900  1
  N  821  1  0.51352700  0.30299300  0.01242200  1
  N  822  1  0.51471600  0.22206600  0.01527600  1
  N  839  1  0.51139200  0.72208900  0.01220600  1
  N  840  1  0.51515800  0.80275700  0.01104900  1
  N  857  1  0.51363400  0.01245400  0.72200600  1
  N  858  1  0.51483300  0.01505000  0.80295300  1
  N  875  1  0.51154800  0.01206800  0.30296000  1
  N  876  1  0.51531700  0.01096800  0.22230000  1
  N  893  1  0.01108600  0.30285500  0.51435400  1
  N  894  1  0.01119700  0.22206900  0.51233300  1
  N  911  1  0.01316300  0.72230000  0.51649500  1
  N  912  1  0.01500700  0.80275700  0.51189100  1
  N  929  1  0.30295800  0.51156100  0.01209100  1
  N  930  1  0.22229700  0.51530900  0.01101500  1
  N  947  1  0.72201000  0.51363100  0.01246700  1
  N  948  1  0.80295500  0.51483000  0.01509800  1
