# generated using pymatgen
data_H10C20N5O2
_symmetry_space_group_name_H-M   'P 1'
_cell_length_a   76.29970000
_cell_length_b   83.00390000
_cell_length_c   83.22210000
_cell_angle_alpha   90.00000000
_cell_angle_beta   90.00000000
_cell_angle_gamma   90.00000000
_symmetry_Int_Tables_number   1
_chemical_formula_structural   H10C20N5O2
_chemical_formula_sum   'H640 C1280 N320 O128'
_cell_volume   527059.92916264
_cell_formula_units_Z   64
loop_
 _symmetry_equiv_pos_site_id
 _symmetry_equiv_pos_as_xyz
  1  'x, y, z'
loop_
 _atom_site_type_symbol
 _atom_site_label
 _atom_site_symmetry_multiplicity
 _atom_site_fract_x
 _atom_site_fract_y
 _atom_site_fract_z
 _atom_site_occupancy
  H  7  1  0.99354400  0.40926500  0.88171900  1
  H  8  1  0.00022700  0.40712300  0.83196200  1
  H  15  1  0.95975000  0.37227500  0.92783500  1
  H  16  1  0.95883800  0.37482000  0.87777000  1
  H  19  1  0.98408000  0.35506800  0.86772600  1
  H  20  1  0.98461900  0.35441700  0.84797400  1
  H  21  1  0.01762200  0.38552500  0.91186700  1
  H  22  1  0.01680600  0.38611600  0.89218600  1
  H  27  1  0.93609400  0.35969500  0.91173700  1
  H  28  1  0.99774500  0.36621200  0.82572300  1
  H  29  1  0.00945800  0.43067300  0.84767500  1
  H  30  1  0.00173700  0.38971200  0.93409100  1
  H  37  1  0.49357100  0.08148500  0.12791400  1
  H  38  1  0.50026800  0.08364100  0.17767200  1
  H  45  1  0.45975700  0.11848300  0.08180700  1
  H  46  1  0.45882900  0.11591800  0.13187200  1
  H  49  1  0.48405700  0.13567800  0.14190200  1
  H  50  1  0.48460400  0.13633700  0.16165400  1
  H  51  1  0.51763300  0.10525600  0.09778100  1
  H  52  1  0.51680900  0.10465000  0.11746200  1
  H  57  1  0.43609500  0.13105200  0.09789700  1
  H  58  1  0.49769100  0.12456500  0.18391000  1
  H  59  1  0.50953600  0.06010600  0.16195300  1
  H  60  1  0.50174500  0.10105000  0.07555600  1
  H  67  1  0.24567600  0.36809600  0.16774100  1
  H  68  1  0.24802100  0.41832700  0.16715700  1
  H  75  1  0.20942200  0.32221300  0.13180300  1
  H  76  1  0.20815800  0.37234200  0.13494600  1
  H  79  1  0.23206600  0.38333500  0.11470300  1
  H  80  1  0.23222100  0.40317300  0.11463800  1
  H  81  1  0.26763000  0.33843500  0.14277700  1
  H  82  1  0.26676500  0.35817000  0.14355600  1
  H  87  1  0.18521600  0.33784000  0.12035500  1
  H  88  1  0.22421500  0.42476200  0.13353300  1
  H  89  1  0.26096000  0.40205400  0.18938000  1
  H  90  1  0.25183200  0.31617300  0.14822700  1
  H  97  1  0.74563200  0.12264100  0.84186900  1
  H  98  1  0.74802400  0.07241200  0.84248500  1
  H  105  1  0.70942200  0.16853600  0.87779800  1
  H  106  1  0.70816700  0.11840600  0.87465900  1
  H  109  1  0.73198900  0.10740900  0.89492800  1
  H  110  1  0.73218900  0.08757200  0.89498200  1
  H  111  1  0.76763200  0.15232200  0.86676800  1
  H  112  1  0.76679100  0.13259000  0.86597600  1
  H  117  1  0.68519000  0.15294200  0.88918200  1
  H  118  1  0.72419800  0.06598700  0.87598000  1
  H  119  1  0.76087300  0.08867100  0.82021500  1
  H  120  1  0.75181400  0.17458600  0.86137100  1
  H  127  1  0.48874500  0.08188800  0.88164500  1
  H  128  1  0.48197400  0.08380300  0.83186900  1
  H  135  1  0.52179100  0.12153300  0.92735900  1
  H  136  1  0.52358700  0.11565600  0.87750900  1
  H  139  1  0.49832400  0.13599200  0.86736300  1
  H  140  1  0.49774900  0.13654200  0.84761000  1
  H  141  1  0.46510300  0.10440800  0.91203200  1
  H  142  1  0.46550400  0.10406000  0.89227100  1
  H  147  1  0.54620500  0.13195300  0.91109300  1
  H  148  1  0.48447300  0.12467700  0.82544600  1
  H  149  1  0.47267400  0.06036000  0.84774300  1
  H  150  1  0.47744800  0.11773700  0.93373500  1
  H  157  1  0.98874300  0.40887600  0.12798500  1
  H  158  1  0.98196300  0.40695600  0.17776000  1
  H  165  1  0.02177300  0.36920300  0.08227900  1
  H  166  1  0.02358700  0.37509200  0.13213000  1
  H  169  1  0.99832100  0.35476800  0.14226300  1
  H  170  1  0.99773900  0.35421100  0.16201600  1
  H  171  1  0.96509300  0.38634500  0.09761500  1
  H  172  1  0.96549900  0.38669800  0.11737500  1
  H  177  1  0.04618400  0.35876400  0.09854600  1
  H  178  1  0.98452200  0.36606200  0.18418400  1
  H  179  1  0.97265900  0.43039600  0.16188800  1
  H  180  1  0.97744300  0.37300400  0.07590600  1
  H  187  1  0.23674900  0.12242800  0.16726900  1
  H  188  1  0.23430900  0.07218100  0.16694000  1
  H  195  1  0.27209200  0.16787700  0.12845100  1
  H  196  1  0.27421100  0.11802400  0.13504800  1
  H  199  1  0.25022300  0.10690300  0.11428900  1
  H  200  1  0.25003100  0.08706600  0.11431700  1
  H  201  1  0.21489600  0.15222800  0.14362000  1
  H  202  1  0.21544900  0.13242900  0.14414100  1
  H  207  1  0.29698900  0.15208700  0.11914600  1
  H  208  1  0.25800800  0.06558500  0.13322500  1
  H  209  1  0.22139100  0.08860100  0.18907700  1
  H  210  1  0.22777300  0.17408800  0.13095700  1
  H  217  1  0.73676800  0.36834500  0.84235500  1
  H  218  1  0.73428700  0.41859000  0.84271600  1
  H  225  1  0.77210400  0.32288700  0.88114400  1
  H  226  1  0.77420800  0.37274300  0.87456400  1
  H  229  1  0.75032700  0.38387000  0.89534500  1
  H  230  1  0.75009400  0.40370500  0.89530300  1
  H  231  1  0.71490600  0.33852400  0.86597900  1
  H  232  1  0.71544500  0.35832400  0.86547800  1
  H  237  1  0.79701600  0.33864400  0.89040400  1
  H  238  1  0.75804600  0.42518000  0.87626200  1
  H  239  1  0.72145000  0.40218500  0.82053300  1
  H  240  1  0.72778700  0.31667400  0.87867500  1
  H  247  1  0.98918800  0.58050300  0.12788700  1
  H  248  1  0.98237200  0.58265800  0.17762600  1
  H  255  1  0.02292500  0.61750700  0.08173300  1
  H  256  1  0.02396900  0.61493400  0.13179900  1
  H  259  1  0.99879600  0.63467400  0.14191100  1
  H  260  1  0.99821100  0.63532100  0.16166100  1
  H  261  1  0.96509300  0.60429800  0.09781000  1
  H  262  1  0.96594900  0.60369800  0.11748900  1
  H  267  1  0.04660700  0.63005500  0.09769500  1
  H  268  1  0.98501300  0.62356200  0.18388400  1
  H  269  1  0.97303800  0.55917600  0.16187400  1
  H  270  1  0.98095300  0.60003000  0.07557400  1
  H  277  1  0.48918300  0.91026400  0.88176100  1
  H  278  1  0.48235500  0.90810500  0.83202200  1
  H  285  1  0.52292700  0.87324400  0.92790100  1
  H  286  1  0.52398000  0.87583500  0.87783400  1
  H  289  1  0.49880900  0.85609500  0.86773600  1
  H  290  1  0.49821400  0.85544100  0.84798600  1
  H  291  1  0.46509400  0.88644500  0.91182200  1
  H  292  1  0.46595500  0.88706100  0.89214500  1
  H  297  1  0.54661200  0.86070000  0.91193700  1
  H  298  1  0.48506100  0.86718500  0.82576100  1
  H  299  1  0.47302200  0.93159000  0.84777000  1
  H  300  1  0.48095700  0.89072500  0.93406100  1
  H  307  1  0.73935800  0.62239400  0.84099800  1
  H  308  1  0.73221300  0.57251700  0.84296600  1
  H  315  1  0.77274900  0.66832300  0.87847400  1
  H  316  1  0.77346200  0.61811900  0.87577100  1
  H  319  1  0.74766200  0.60815700  0.89519600  1
  H  320  1  0.74681200  0.58834400  0.89576200  1
  H  321  1  0.71495300  0.65258500  0.86479300  1
  H  322  1  0.71569900  0.63284600  0.86404700  1
  H  327  1  0.79620400  0.65193800  0.89126500  1
  H  328  1  0.73247600  0.56631500  0.88327800  1
  H  329  1  0.72360200  0.58824700  0.81938600  1
  H  330  1  0.73113900  0.67473400  0.86047900  1
  H  337  1  0.23938600  0.86835300  0.16862700  1
  H  338  1  0.23222400  0.91822800  0.16665400  1
  H  345  1  0.27275700  0.82242500  0.13116500  1
  H  346  1  0.27345500  0.87263000  0.13385100  1
  H  349  1  0.24765200  0.88258300  0.11441900  1
  H  350  1  0.24681400  0.90239800  0.11385700  1
  H  351  1  0.21496700  0.83814900  0.14490600  1
  H  352  1  0.21568800  0.85788500  0.14566200  1
  H  357  1  0.29623300  0.83877500  0.11842200  1
  H  358  1  0.23248700  0.92442200  0.12633400  1
  H  359  1  0.22365600  0.90251300  0.19024700  1
  H  360  1  0.23118600  0.81600800  0.14918900  1
  H  367  1  0.49302800  0.90984400  0.12792800  1
  H  368  1  0.49994400  0.90796600  0.17768600  1
  H  375  1  0.46022500  0.87000600  0.08220500  1
  H  376  1  0.45827800  0.87594200  0.13204800  1
  H  379  1  0.48357000  0.85573200  0.14226700  1
  H  380  1  0.48419100  0.85519900  0.16201900  1
  H  381  1  0.51679200  0.88736100  0.09762000  1
  H  382  1  0.51635200  0.88772500  0.11737700  1
  H  387  1  0.43585500  0.85946700  0.09840500  1
  H  388  1  0.49748000  0.86709100  0.18414000  1
  H  389  1  0.50924500  0.93136400  0.16176600  1
  H  390  1  0.50454300  0.87393800  0.07592100  1
  H  397  1  0.99301200  0.58090500  0.88174000  1
  H  398  1  0.99994900  0.58276700  0.83198400  1
  H  405  1  0.96023300  0.62078900  0.92743600  1
  H  406  1  0.95827300  0.61482900  0.87759500  1
  H  409  1  0.98357300  0.63501500  0.86738600  1
  H  410  1  0.98420100  0.63555100  0.84763500  1
  H  411  1  0.01679100  0.60340300  0.91202400  1
  H  412  1  0.01634600  0.60303000  0.89226600  1
  H  417  1  0.93586900  0.63134800  0.91122800  1
  H  418  1  0.99739300  0.62367900  0.82550900  1
  H  419  1  0.00922200  0.55936200  0.84790600  1
  H  420  1  0.00453400  0.61684700  0.93372400  1
  H  427  1  0.74295100  0.86860500  0.84136800  1
  H  428  1  0.75022100  0.91850100  0.84302100  1
  H  435  1  0.71046400  0.82318300  0.88173100  1
  H  436  1  0.70881400  0.87314000  0.87551800  1
  H  439  1  0.73474500  0.88320800  0.89548200  1
  H  440  1  0.73565200  0.90302300  0.89591900  1
  H  441  1  0.76698500  0.83819500  0.86388900  1
  H  442  1  0.76664900  0.85800200  0.86330700  1
  H  447  1  0.68626400  0.83981900  0.89238900  1
  H  448  1  0.75012100  0.92493000  0.88328000  1
  H  449  1  0.75878200  0.90259600  0.81953500  1
  H  450  1  0.75464700  0.81663700  0.87769800  1
  H  457  1  0.24292000  0.62215700  0.16826200  1
  H  458  1  0.25020400  0.57226400  0.16660700  1
  H  465  1  0.21045300  0.66757100  0.12788800  1
  H  466  1  0.20881900  0.61761300  0.13409300  1
  H  469  1  0.23475500  0.60755600  0.11413900  1
  H  470  1  0.23565100  0.58774100  0.11370600  1
  H  471  1  0.26696200  0.65257800  0.14577300  1
  H  472  1  0.26664100  0.63277000  0.14634300  1
  H  477  1  0.18625000  0.65095900  0.11725100  1
  H  478  1  0.25011400  0.56584000  0.12634500  1
  H  479  1  0.25871400  0.58814800  0.19010700  1
  H  480  1  0.25462500  0.67412200  0.13191200  1
  H  487  1  0.49303500  0.91036400  0.38175400  1
  H  488  1  0.49966100  0.90836100  0.33198300  1
  H  495  1  0.45962300  0.87311200  0.42780600  1
  H  496  1  0.45876500  0.87566900  0.37773700  1
  H  499  1  0.48428500  0.85609000  0.36772100  1
  H  500  1  0.48482000  0.85545600  0.34796800  1
  H  501  1  0.51741800  0.88676100  0.41188900  1
  H  502  1  0.51660500  0.88737800  0.39220800  1
  H  507  1  0.43596000  0.86053800  0.41169300  1
  H  508  1  0.49776100  0.86739700  0.32573300  1
  H  509  1  0.50820900  0.93209500  0.34748000  1
  H  510  1  0.50147800  0.89078600  0.43410100  1
  H  517  1  0.99304300  0.58039800  0.62784600  1
  H  518  1  0.99969200  0.58240300  0.67761400  1
  H  525  1  0.95959400  0.61763600  0.58181000  1
  H  526  1  0.95871600  0.61505700  0.63187900  1
  H  529  1  0.98420100  0.63465700  0.64188600  1
  H  530  1  0.98473900  0.63529800  0.66163800  1
  H  531  1  0.01740300  0.60405900  0.59773900  1
  H  532  1  0.01658200  0.60342500  0.61741900  1
  H  537  1  0.93590800  0.63016900  0.59790100  1
  H  538  1  0.99759500  0.62340900  0.68387300  1
  H  539  1  0.00827200  0.55868500  0.66210900  1
  H  540  1  0.00146600  0.59999500  0.57552500  1
  H  547  1  0.74501900  0.86803800  0.66986200  1
  H  548  1  0.74737100  0.91825400  0.66927800  1
  H  555  1  0.70917300  0.82212800  0.63367500  1
  H  556  1  0.70788800  0.87226800  0.63670300  1
  H  559  1  0.73217500  0.88319400  0.61667400  1
  H  560  1  0.73237500  0.90302700  0.61654200  1
  H  561  1  0.76726900  0.83837500  0.64512900  1
  H  562  1  0.76639100  0.85811200  0.64587500  1
  H  567  1  0.68504300  0.83775000  0.62201700  1
  H  568  1  0.72431800  0.92463000  0.63480800  1
  H  569  1  0.76011700  0.90206800  0.69156400  1
  H  570  1  0.75140200  0.81613100  0.65048300  1
  H  577  1  0.24502700  0.62268400  0.33977000  1
  H  578  1  0.24739400  0.57246500  0.34039000  1
  H  585  1  0.20917100  0.66862300  0.37590000  1
  H  586  1  0.20786600  0.61848400  0.37285600  1
  H  589  1  0.23196700  0.60752200  0.39295000  1
  H  590  1  0.23218600  0.58768800  0.39305100  1
  H  591  1  0.26727500  0.65235900  0.36447400  1
  H  592  1  0.26641300  0.63262700  0.36371100  1
  H  597  1  0.18498800  0.65305600  0.38745200  1
  H  598  1  0.22411600  0.56609900  0.37449800  1
  H  599  1  0.26007100  0.58863200  0.31805800  1
  H  600  1  0.25140900  0.67461400  0.35914200  1
  H  607  1  0.98939500  0.58079800  0.38173400  1
  H  608  1  0.98263600  0.58250200  0.33194900  1
  H  615  1  0.02190700  0.62088300  0.42731700  1
  H  616  1  0.02365800  0.61494200  0.37746900  1
  H  619  1  0.99802100  0.63499700  0.36735800  1
  H  620  1  0.99744300  0.63551100  0.34760300  1
  H  621  1  0.96540400  0.60312700  0.41211200  1
  H  622  1  0.96577900  0.60272400  0.39235100  1
  H  627  1  0.04628000  0.63138300  0.41101700  1
  H  628  1  0.98444100  0.62344900  0.32547000  1
  H  629  1  0.97412500  0.55886700  0.34762300  1
  H  630  1  0.97761600  0.61674400  0.43373600  1
  H  637  1  0.48939800  0.90996600  0.62788100  1
  H  638  1  0.48262800  0.90825800  0.67766600  1
  H  645  1  0.52190700  0.86987400  0.58230400  1
  H  646  1  0.52367200  0.87581800  0.63215400  1
  H  649  1  0.49803900  0.85576700  0.64225500  1
  H  650  1  0.49745200  0.85524600  0.66200800  1
  H  651  1  0.46540300  0.88761600  0.59752100  1
  H  652  1  0.46578300  0.88802400  0.61728200  1
  H  657  1  0.54628000  0.85936700  0.59859800  1
  H  658  1  0.48448800  0.86729100  0.68414600  1
  H  659  1  0.47412400  0.93189300  0.66199700  1
  H  660  1  0.47762700  0.87399500  0.57589000  1
  H  667  1  0.73722500  0.62245700  0.66949900  1
  H  668  1  0.73478200  0.57220800  0.66920900  1
  H  675  1  0.77229400  0.66789800  0.63045600  1
  H  676  1  0.77451200  0.61804900  0.63709700  1
  H  679  1  0.75042400  0.60689600  0.61647000  1
  H  680  1  0.75023400  0.58705900  0.61651200  1
  H  681  1  0.71521100  0.65220600  0.64591100  1
  H  682  1  0.71578900  0.63240800  0.64645300  1
  H  687  1  0.79722900  0.65227400  0.62121800  1
  H  688  1  0.75831500  0.56559000  0.63541800  1
  H  689  1  0.72201700  0.58858100  0.69139300  1
  H  690  1  0.72801000  0.67404600  0.63309900  1
  H  697  1  0.23727400  0.86831300  0.34013400  1
  H  698  1  0.23478600  0.91855700  0.34045400  1
  H  705  1  0.27233800  0.82285700  0.37914100  1
  H  706  1  0.27454500  0.87270900  0.37251800  1
  H  709  1  0.25057200  0.88387200  0.39317100  1
  H  710  1  0.25033800  0.90370700  0.39311300  1
  H  711  1  0.21525400  0.83854400  0.36369900  1
  H  712  1  0.21581900  0.85834200  0.36317700  1
  H  717  1  0.29728700  0.83845100  0.38833800  1
  H  718  1  0.25838400  0.92517400  0.37408100  1
  H  719  1  0.22209300  0.90219500  0.31823400  1
  H  720  1  0.22805300  0.81671300  0.37653900  1
  H  727  1  0.48953900  0.08162600  0.62782900  1
  H  728  1  0.48280400  0.08360400  0.67759000  1
  H  735  1  0.52292000  0.11887400  0.58179000  1
  H  736  1  0.52382300  0.11628900  0.63186000  1
  H  739  1  0.49830500  0.13588500  0.64191000  1
  H  740  1  0.49771500  0.13651000  0.66166300  1
  H  741  1  0.46512000  0.10529800  0.59774100  1
  H  742  1  0.46594800  0.10466400  0.61742100  1
  H  747  1  0.54660100  0.13145400  0.59792600  1
  H  748  1  0.48467400  0.12456000  0.68386600  1
  H  749  1  0.47430900  0.05987700  0.66208100  1
  H  750  1  0.48106100  0.10121300  0.57553000  1
  H  757  1  0.98953600  0.40913500  0.38182800  1
  H  758  1  0.98278000  0.40715000  0.33206900  1
  H  765  1  0.02294300  0.37189300  0.42785500  1
  H  766  1  0.02385900  0.37449800  0.37778400  1
  H  769  1  0.99835800  0.35488200  0.36774700  1
  H  770  1  0.99775500  0.35425100  0.34799500  1
  H  771  1  0.96513100  0.38541800  0.41189700  1
  H  772  1  0.96596600  0.38606900  0.39221700  1
  H  777  1  0.04664100  0.35934100  0.41172800  1
  H  778  1  0.98474300  0.36617600  0.32579100  1
  H  779  1  0.97425800  0.43086700  0.34758400  1
  H  780  1  0.98106800  0.38952600  0.43410900  1
  H  787  1  0.23960000  0.12233500  0.33876000  1
  H  788  1  0.23242700  0.07246300  0.34076600  1
  H  795  1  0.27278500  0.16834500  0.37641000  1
  H  796  1  0.27367200  0.11814700  0.37368400  1
  H  799  1  0.24789500  0.10812300  0.39297500  1
  H  800  1  0.24705700  0.08831000  0.39354400  1
  H  801  1  0.21512700  0.15247800  0.36244700  1
  H  802  1  0.21592200  0.13274300  0.36171300  1
  H  807  1  0.29613900  0.15209000  0.38936300  1
  H  808  1  0.23274700  0.06626800  0.38105700  1
  H  809  1  0.22358500  0.08826800  0.31726100  1
  H  810  1  0.23126800  0.17466100  0.35818200  1
  H  817  1  0.73966400  0.36841400  0.67086000  1
  H  818  1  0.73246300  0.41828200  0.66885700  1
  H  825  1  0.77279900  0.32240900  0.63320300  1
  H  826  1  0.77367700  0.37260800  0.63591900  1
  H  829  1  0.74788400  0.38262700  0.61663200  1
  H  830  1  0.74705300  0.40244000  0.61606800  1
  H  831  1  0.71515200  0.33826500  0.64725100  1
  H  832  1  0.71592700  0.35799800  0.64799700  1
  H  837  1  0.79616600  0.33864000  0.62027900  1
  H  838  1  0.73275100  0.42447200  0.62855900  1
  H  839  1  0.72369000  0.40249200  0.69238300  1
  H  840  1  0.73132900  0.31609000  0.65148100  1
  H  847  1  0.99281500  0.40874800  0.62788600  1
  H  848  1  0.99967500  0.40702200  0.67766000  1
  H  855  1  0.96014600  0.36881300  0.58230100  1
  H  856  1  0.95837500  0.37478700  0.63214600  1
  H  859  1  0.98391500  0.35459300  0.64228700  1
  H  860  1  0.98455100  0.35407900  0.66204200  1
  H  861  1  0.01674900  0.38625900  0.59755100  1
  H  862  1  0.01635400  0.38667600  0.61731100  1
  H  867  1  0.93570900  0.35841500  0.59861200  1
  H  868  1  0.99772600  0.36609400  0.68414400  1
  H  869  1  0.00825800  0.43062600  0.66196000  1
  H  870  1  0.00448100  0.37269500  0.57593100  1
  H  877  1  0.49282000  0.08201200  0.38177500  1
  H  878  1  0.49969500  0.08374100  0.33200200  1
  H  885  1  0.46013700  0.12195100  0.42734700  1
  H  886  1  0.45835700  0.11596600  0.37749900  1
  H  889  1  0.48388700  0.13616400  0.36736900  1
  H  890  1  0.48453400  0.13668300  0.34761700  1
  H  891  1  0.51674800  0.10453400  0.41208900  1
  H  892  1  0.51634800  0.10411000  0.39233000  1
  H  897  1  0.43569400  0.13234300  0.41104100  1
  H  898  1  0.49767800  0.12468500  0.32551300  1
  H  899  1  0.50827900  0.06013500  0.34770100  1
  H  900  1  0.50446200  0.11810000  0.43371400  1
  H  907  1  0.24262000  0.36855500  0.33924900  1
  H  908  1  0.24988400  0.41844300  0.34094100  1
  H  915  1  0.21043700  0.32301300  0.37979600  1
  H  916  1  0.20853000  0.37296200  0.37359200  1
  H  919  1  0.23440700  0.38311700  0.39337900  1
  H  920  1  0.23525900  0.40292900  0.39382600  1
  H  921  1  0.26675700  0.33820600  0.36161500  1
  H  922  1  0.26635500  0.35801200  0.36105900  1
  H  927  1  0.18632800  0.33952500  0.39069200  1
  H  928  1  0.24948900  0.42487900  0.38127400  1
  H  929  1  0.25870500  0.40246200  0.31753700  1
  H  930  1  0.25456200  0.31658500  0.37545800  1
  H  937  1  0.74257700  0.12222200  0.67035500  1
  H  938  1  0.74985100  0.07233800  0.66865500  1
  H  945  1  0.71040800  0.16776400  0.62981000  1
  H  946  1  0.70850900  0.11781300  0.63601000  1
  H  949  1  0.73438100  0.10767300  0.61622100  1
  H  950  1  0.73521300  0.08786100  0.61577100  1
  H  951  1  0.76672000  0.15258200  0.64801400  1
  H  952  1  0.76633000  0.13277500  0.64855800  1
  H  957  1  0.68629000  0.15127600  0.61894100  1
  H  958  1  0.74938300  0.06590800  0.62829300  1
  H  959  1  0.75862300  0.08829800  0.69207800  1
  H  960  1  0.75452200  0.17418800  0.63412200  1
  H  967  1  0.97412900  0.40513500  0.79531700  1
  H  972  1  0.00084600  0.36101100  0.79439200  1
  H  977  1  0.97405400  0.40504900  0.71447600  1
  H  978  1  0.00077900  0.36092800  0.71545400  1
  H  989  1  0.47443600  0.08546600  0.21432600  1
  H  994  1  0.50064400  0.12984700  0.21524800  1
  H  999  1  0.47436400  0.08555100  0.29516700  1
  H  1000  1  0.50056800  0.12993500  0.29419200  1
  H  1011  1  0.22062000  0.45350400  0.15647400  1
  H  1016  1  0.26275700  0.45714000  0.12440100  1
  H  1021  1  0.21743600  0.53477300  0.15823800  1
  H  1022  1  0.25847700  0.53548900  0.12471700  1
  H  1033  1  0.72056700  0.03728600  0.85336200  1
  H  1038  1  0.76296600  0.03358700  0.88515500  1
  H  1043  1  0.71731800  0.95601400  0.85154600  1
  H  1044  1  0.75862000  0.95524900  0.88479500  1
  H  1055  1  0.50827700  0.08576600  0.79515400  1
  H  1060  1  0.48133500  0.12977200  0.79414200  1
  H  1065  1  0.50847700  0.08576200  0.71431200  1
  H  1066  1  0.48152000  0.12976400  0.71520400  1
  H  1077  1  0.00794400  0.40516400  0.21448700  1
  H  1082  1  0.98156000  0.36087400  0.21549800  1
  H  1087  1  0.00814500  0.40517500  0.29532800  1
  H  1088  1  0.98175600  0.36088200  0.29444200  1
  H  1099  1  0.26139700  0.03686100  0.15678400  1
  H  1104  1  0.21995000  0.03319300  0.12396800  1
  H  1109  1  0.26466800  0.95560400  0.15858900  1
  H  1110  1  0.22430800  0.95482500  0.12438400  1
  H  1121  1  0.76147600  0.45385100  0.85310300  1
  H  1126  1  0.71969800  0.45759700  0.88557100  1
  H  1131  1  0.76482200  0.53511100  0.85122300  1
  H  1132  1  0.72413400  0.53594800  0.88509900  1
  H  1143  1  0.00824900  0.58446800  0.21432000  1
  H  1148  1  0.98186400  0.62876100  0.21523000  1
  H  1153  1  0.00806400  0.58444700  0.29516100  1
  H  1154  1  0.98166900  0.62873600  0.29416900  1
  H  1165  1  0.50796100  0.90643700  0.79531100  1
  H  1170  1  0.48204700  0.86191200  0.79440500  1
  H  1175  1  0.50777400  0.90645800  0.71447100  1
  H  1176  1  0.48185500  0.86193200  0.71545900  1
  H  1187  1  0.47383800  0.90606900  0.21446500  1
  H  1192  1  0.50071800  0.86203000  0.21546300  1
  H  1197  1  0.47389100  0.90617900  0.29530600  1
  H  1198  1  0.50080000  0.86215400  0.29440100  1
  H  1209  1  0.97464500  0.58426200  0.79516700  1
  H  1214  1  0.00016900  0.62897900  0.79417500  1
  H  1219  1  0.97467000  0.58416400  0.71432900  1
  H  1220  1  0.00024100  0.62885900  0.71522600  1
  H  1231  1  0.72145500  0.95370100  0.66055300  1
  H  1236  1  0.76044500  0.95696900  0.62525600  1
  H  1241  1  0.71852500  0.03494400  0.66196500  1
  H  1242  1  0.75652200  0.03540900  0.62554400  1
  H  1253  1  0.22116300  0.53715400  0.34971800  1
  H  1258  1  0.26108200  0.53371400  0.38411500  1
  H  1263  1  0.21813600  0.45590200  0.34809300  1
  H  1264  1  0.25699600  0.45530500  0.38373800  1
  H  1275  1  0.76174900  0.53688600  0.65898300  1
  H  1280  1  0.72021800  0.53322700  0.62625700  1
  H  1285  1  0.76501500  0.45562900  0.66076400  1
  H  1286  1  0.72456800  0.45486800  0.62664300  1
  H  1297  1  0.26184800  0.95383000  0.35089800  1
  H  1302  1  0.21999700  0.95755700  0.38329200  1
  H  1307  1  0.26516100  0.03509200  0.34903900  1
  H  1308  1  0.22440100  0.03590400  0.38284400  1
  H  1319  1  0.98993500  0.53556300  0.83878300  1
  H  1324  1  0.99444600  0.53368700  0.88912700  1
  H  1329  1  0.99027800  0.45449400  0.83872800  1
  H  1330  1  0.99476400  0.45633800  0.88907500  1
  H  1341  1  0.49004700  0.95519400  0.17089100  1
  H  1346  1  0.49443100  0.95705800  0.12053600  1
  H  1351  1  0.49042800  0.03626000  0.17093200  1
  H  1352  1  0.49477300  0.03440800  0.12057500  1
  H  1363  1  0.23899200  0.41126200  0.29385900  1
  H  1368  1  0.24491100  0.36089800  0.29221000  1
  H  1373  1  0.24087800  0.41110700  0.21301800  1
  H  1374  1  0.24647300  0.36073400  0.21508700  1
  H  1385  1  0.73882700  0.07956900  0.71574600  1
  H  1390  1  0.74505000  0.12990200  0.71739700  1
  H  1395  1  0.74071500  0.07970000  0.79658000  1
  H  1396  1  0.74661600  0.13004500  0.79452900  1
  H  1407  1  0.49205200  0.95549000  0.83872900  1
  H  1412  1  0.48768700  0.95737600  0.88908500  1
  H  1417  1  0.49190500  0.03655900  0.83867800  1
  H  1418  1  0.48754300  0.03472500  0.88903500  1
  H  1429  1  0.99205700  0.53527000  0.17091200  1
  H  1434  1  0.98771600  0.53338800  0.12055700  1
  H  1439  1  0.99187600  0.45420300  0.17096200  1
  H  1440  1  0.98754800  0.45604000  0.12060300  1
  H  1451  1  0.24315400  0.07950400  0.29354600  1
  H  1456  1  0.23728500  0.12987000  0.29179000  1
  H  1461  1  0.24153600  0.07952000  0.21270100  1
  H  1462  1  0.23595400  0.12990000  0.21466800  1
  H  1473  1  0.74335200  0.41118200  0.71608200  1
  H  1478  1  0.73715600  0.36084800  0.71783100  1
  H  1483  1  0.74168600  0.41118300  0.79691900  1
  H  1484  1  0.73578600  0.36083400  0.79496400  1
  H  1495  1  0.74255600  0.57973300  0.71495800  1
  H  1500  1  0.73581800  0.62999600  0.71690400  1
  H  1505  1  0.74370300  0.57972600  0.79581500  1
  H  1506  1  0.73672800  0.62997200  0.79403800  1
  H  1517  1  0.24268900  0.91097000  0.29466600  1
  H  1522  1  0.23569200  0.86073800  0.29273500  1
  H  1527  1  0.24381400  0.91096500  0.21381700  1
  H  1528  1  0.23658600  0.86075000  0.21559200  1
  H  1539  1  0.73969200  0.91089200  0.71514500  1
  H  1544  1  0.74646400  0.86063900  0.71722200  1
  H  1549  1  0.73854600  0.91110900  0.79600000  1
  H  1550  1  0.74555200  0.86086300  0.79435600  1
  H  1561  1  0.23955700  0.57990300  0.29448100  1
  H  1566  1  0.24667300  0.63011600  0.29242600  1
  H  1571  1  0.23839000  0.57971600  0.21363300  1
  H  1572  1  0.24574500  0.62992000  0.21528300  1
  H  1583  1  0.48746100  0.03668700  0.33938000  1
  H  1588  1  0.49561200  0.03480400  0.38933500  1
  H  1593  1  0.48757900  0.95559800  0.33933000  1
  H  1594  1  0.49572900  0.95744300  0.38928800  1
  H  1605  1  0.98747300  0.45408700  0.67027100  1
  H  1610  1  0.99558100  0.45595100  0.62030900  1
  H  1615  1  0.98764600  0.53517500  0.67029500  1
  H  1616  1  0.99573500  0.53331000  0.62033000  1
  H  1627  1  0.99496100  0.45436300  0.33941500  1
  H  1632  1  0.98668800  0.45624300  0.38935300  1
  H  1637  1  0.99500300  0.53545100  0.33939700  1
  H  1638  1  0.98671700  0.53360400  0.38933500  1
  H  1649  1  0.49503400  0.03639000  0.67022200  1
  H  1654  1  0.48668500  0.03452700  0.62029200  1
  H  1659  1  0.49503400  0.95530100  0.67022000  1
  H  1660  1  0.48668000  0.95716500  0.62029200  1
  H  1671  1  0.91005400  0.38820400  0.87293000  1
  H  1676  1  0.90686500  0.35261200  0.90895500  1
  H  1681  1  0.82302300  0.37727300  0.86183900  1
  H  1682  1  0.82559800  0.34265800  0.89883800  1
  H  1693  1  0.41003800  0.10253900  0.13669000  1
  H  1698  1  0.40687800  0.13817400  0.10070500  1
  H  1703  1  0.32300900  0.11349400  0.14777100  1
  H  1704  1  0.32561500  0.14815700  0.11081700  1
  H  1715  1  0.15943100  0.37762200  0.14753000  1
  H  1720  1  0.15651300  0.34148200  0.11203500  1
  H  1725  1  0.07242900  0.38853900  0.13624700  1
  H  1726  1  0.07526900  0.35143700  0.10174500  1
  H  1737  1  0.65943100  0.11311900  0.86206600  1
  H  1742  1  0.65653100  0.14921800  0.89760600  1
  H  1747  1  0.57242700  0.10221200  0.87335200  1
  H  1748  1  0.57528700  0.13927700  0.90789200  1
  H  1759  1  0.07303500  0.60169400  0.13634000  1
  H  1764  1  0.07561200  0.63778700  0.10077900  1
  H  1769  1  0.16003600  0.61314900  0.14703700  1
  H  1770  1  0.15688800  0.64832000  0.11060700  1
  H  1781  1  0.57304400  0.88908100  0.87331100  1
  H  1786  1  0.57561300  0.85295100  0.90883400  1
  H  1791  1  0.66003800  0.87761600  0.86258900  1
  H  1792  1  0.65688500  0.84239900  0.89897700  1
  H  1803  1  0.82242700  0.61365500  0.86213400  1
  H  1808  1  0.82540200  0.64887500  0.89852800  1
  H  1813  1  0.90940600  0.60231400  0.87306400  1
  H  1814  1  0.90666800  0.63843800  0.90858400  1
  H  1825  1  0.32241900  0.87710000  0.14752000  1
  H  1830  1  0.32540000  0.84192700  0.11107900  1
  H  1835  1  0.40940300  0.88845100  0.13661200  1
  H  1836  1  0.40666500  0.85236700  0.10105100  1
  H  1847  1  0.41004100  0.88930300  0.37304400  1
  H  1852  1  0.40690200  0.85280800  0.40815500  1
  H  1857  1  0.32324800  0.87795300  0.36097500  1
  H  1858  1  0.32578000  0.84243700  0.39711200  1
  H  1869  1  0.90999100  0.60143000  0.63656300  1
  H  1874  1  0.90686900  0.63794500  0.60147100  1
  H  1879  1  0.82320000  0.61280300  0.64863200  1
  H  1880  1  0.82575200  0.64834200  0.61251700  1
  H  1891  1  0.65877200  0.87669200  0.64982500  1
  H  1896  1  0.65679400  0.84236900  0.61253400  1
  H  1901  1  0.57200200  0.88794100  0.63755300  1
  H  1902  1  0.57567900  0.85266900  0.60126000  1
  H  1913  1  0.15875000  0.61404200  0.35975400  1
  H  1918  1  0.15679600  0.64834800  0.39706300  1
  H  1923  1  0.07197900  0.60281600  0.37204400  1
  H  1924  1  0.07567900  0.63807100  0.40835100  1
  H  1935  1  0.57249900  0.10270500  0.63663000  1
  H  1940  1  0.57584900  0.13868900  0.60101600  1
  H  1945  1  0.65942600  0.11356100  0.64832600  1
  H  1946  1  0.65708800  0.14868800  0.61180200  1
  H  1957  1  0.07252900  0.38809200  0.37302300  1
  H  1962  1  0.07588000  0.35208100  0.40861000  1
  H  1967  1  0.15945000  0.37722700  0.36129600  1
  H  1968  1  0.15711300  0.34206700  0.39778800  1
  H  1979  1  0.32297400  0.11385900  0.36067900  1
  H  1984  1  0.32511800  0.14898600  0.39721200  1
  H  1989  1  0.40987700  0.10311800  0.37263300  1
  H  1990  1  0.40633900  0.13910600  0.40822700  1
  H  2001  1  0.82298100  0.37687800  0.64896300  1
  H  2006  1  0.82512800  0.34179700  0.61238600  1
  H  2011  1  0.90989100  0.38761600  0.63704000  1
  H  2012  1  0.90635100  0.35167200  0.60140100  1
  H  2023  1  0.01197900  0.39057600  0.96248400  1
  H  2028  1  0.96395600  0.36668900  0.96858900  1
  H  2033  1  0.01925300  0.39276200  0.04347000  1
  H  2034  1  0.97067500  0.36922400  0.04627600  1
  H  2045  1  0.51198200  0.10017500  0.04716100  1
  H  2050  1  0.46396400  0.12407000  0.04105400  1
  H  2055  1  0.51926200  0.09799100  0.96617600  1
  H  2056  1  0.47068300  0.12153000  0.96336800  1
  H  2067  1  0.26180800  0.28773000  0.14949200  1
  H  2072  1  0.21420400  0.28158600  0.12495500  1
  H  2077  1  0.26900100  0.20654200  0.15182400  1
  H  2078  1  0.22088600  0.20377100  0.12753600  1
  H  2089  1  0.76180800  0.20302200  0.86012900  1
  H  2094  1  0.71422300  0.20916400  0.88469600  1
  H  2099  1  0.76899700  0.28421000  0.85779100  1
  H  2100  1  0.72090100  0.28698400  0.88210900  1
  H  2111  1  0.97056800  0.59918700  0.04724700  1
  H  2116  1  0.01850700  0.62316900  0.04095100  1
  H  2121  1  0.96288700  0.59703000  0.96629200  1
  H  2122  1  0.01140200  0.62065500  0.96329600  1
  H  2133  1  0.47058100  0.89158600  0.96239000  1
  H  2138  1  0.51850700  0.86758200  0.96868700  1
  H  2143  1  0.46289800  0.89374600  0.04334400  1
  H  2144  1  0.51140200  0.87010300  0.04634400  1
  H  2155  1  0.72064100  0.70299600  0.85980600  1
  H  2160  1  0.76826500  0.70929200  0.88426700  1
  H  2165  1  0.71307900  0.78415700  0.85754200  1
  H  2166  1  0.76128600  0.78709100  0.88165300  1
  H  2177  1  0.22065800  0.78776200  0.14984100  1
  H  2182  1  0.26823000  0.78145900  0.12530000  1
  H  2187  1  0.21309000  0.70660200  0.15212500  1
  H  2188  1  0.26125000  0.70366500  0.12793400  1
  H  2199  1  0.51184500  0.89156600  0.46242300  1
  H  2204  1  0.46391900  0.86754300  0.46863900  1
  H  2209  1  0.51938400  0.89371000  0.54338800  1
  H  2210  1  0.47087700  0.87006300  0.54631300  1
  H  2221  1  0.01183700  0.59921500  0.54720500  1
  H  2226  1  0.96389400  0.62320800  0.54098000  1
  H  2231  1  0.01939200  0.59706900  0.46624300  1
  H  2232  1  0.97086800  0.62068600  0.46331000  1
  H  2243  1  0.76152000  0.78776100  0.65174600  1
  H  2248  1  0.71413700  0.78144400  0.62689300  1
  H  2253  1  0.76903600  0.70660000  0.65413100  1
  H  2254  1  0.72111400  0.70366600  0.62953800  1
  H  2265  1  0.26153500  0.70298000  0.35788300  1
  H  2270  1  0.21416900  0.70929800  0.38276200  1
  H  2275  1  0.26905700  0.78414100  0.35549300  1
  H  2276  1  0.22115400  0.78708300  0.38011400  1
  H  2287  1  0.47062800  0.10041800  0.54725200  1
  H  2292  1  0.51846900  0.12455300  0.54092300  1
  H  2297  1  0.46287000  0.09824000  0.46630800  1
  H  2298  1  0.51129300  0.12201600  0.46326400  1
  H  2309  1  0.97063200  0.39031700  0.46238700  1
  H  2314  1  0.01850200  0.36623100  0.46872400  1
  H  2319  1  0.96286100  0.39249500  0.54333200  1
  H  2320  1  0.01131700  0.36877700  0.54638100  1
  H  2331  1  0.22069900  0.20292200  0.35751800  1
  H  2336  1  0.26828700  0.20926700  0.38202700  1
  H  2341  1  0.21302800  0.28407800  0.35529000  1
  H  2342  1  0.26121300  0.28704600  0.37943800  1
  H  2353  1  0.72072100  0.28785000  0.65212200  1
  H  2358  1  0.76824800  0.28149000  0.62751300  1
  H  2363  1  0.71303800  0.20669800  0.65437300  1
  H  2364  1  0.76116300  0.20372200  0.63012300  1
  C  1  1  0.98983200  0.38587800  0.87214400  1
  C  2  1  0.99383900  0.40250200  0.87140300  1
  C  3  1  0.99780900  0.41029200  0.85683500  1
  C  4  1  0.99735500  0.40128100  0.84251300  1
  C  5  1  0.99278700  0.38474700  0.84214400  1
  C  6  1  0.98926900  0.37691000  0.85727700  1
  C  9  1  0.98364800  0.38022300  0.88770100  1
  C  10  1  0.99298100  0.38185400  0.90270500  1
  C  11  1  0.98421000  0.37921000  0.91786100  1
  C  12  1  0.96647100  0.37415700  0.91732600  1
  C  13  1  0.95723600  0.37214300  0.90282500  1
  C  14  1  0.96585600  0.37553800  0.88825900  1
  C  23  1  0.93985800  0.36735300  0.90323200  1
  C  24  1  0.99279300  0.37720200  0.82683900  1
  C  25  1  0.00121000  0.42665600  0.85606000  1
  C  26  1  0.99159500  0.38230900  0.93325800  1
  C  31  1  0.48982800  0.10486500  0.13749700  1
  C  32  1  0.49386300  0.08824900  0.13823000  1
  C  33  1  0.49784200  0.08046700  0.15280100  1
  C  34  1  0.49738000  0.08947800  0.16712300  1
  C  35  1  0.49280200  0.10601100  0.16749000  1
  C  36  1  0.48926700  0.11384300  0.15235700  1
  C  39  1  0.48363900  0.11051800  0.12193500  1
  C  40  1  0.49298500  0.10890100  0.10693900  1
  C  41  1  0.48421700  0.11155500  0.09178300  1
  C  42  1  0.46647400  0.11659800  0.09231700  1
  C  43  1  0.45723400  0.11860600  0.10681600  1
  C  44  1  0.46584700  0.11520200  0.12138500  1
  C  53  1  0.43985800  0.12339800  0.10640600  1
  C  54  1  0.49279100  0.11355600  0.18279800  1
  C  55  1  0.50127300  0.06410800  0.15357600  1
  C  56  1  0.49160200  0.10845200  0.07638700  1
  C  61  1  0.23959300  0.37812300  0.14500700  1
  C  62  1  0.24501800  0.37859400  0.16126200  1
  C  63  1  0.24872100  0.39316000  0.16923000  1
  C  64  1  0.24639900  0.40776500  0.16090600  1
  C  65  1  0.24061400  0.40830100  0.14476300  1
  C  66  1  0.23746500  0.39324400  0.13666000  1
  C  69  1  0.23325500  0.36254000  0.13943500  1
  C  70  1  0.24279500  0.34755800  0.14048800  1
  C  71  1  0.23401000  0.33234500  0.13807900  1
  C  72  1  0.21610400  0.33278800  0.13356900  1
  C  73  1  0.20668400  0.34727100  0.13192200  1
  C  74  1  0.21530100  0.36188400  0.13529300  1
  C  83  1  0.18919500  0.34675400  0.12744600  1
  C  84  1  0.23587800  0.42362600  0.13873500  1
  C  85  1  0.25269800  0.39363500  0.18543300  1
  C  86  1  0.24160400  0.31696800  0.14093500  1
  C  91  1  0.73961000  0.11262600  0.86462100  1
  C  92  1  0.74500600  0.11214800  0.84835700  1
  C  93  1  0.74872000  0.09758200  0.84039400  1
  C  94  1  0.74642600  0.08298000  0.84873500  1
  C  95  1  0.74069000  0.08244700  0.86489300  1
  C  96  1  0.73749700  0.09750700  0.87297500  1
  C  99  1  0.73326600  0.12821000  0.87018800  1
  C  100  1  0.74280300  0.14319100  0.86913400  1
  C  101  1  0.73402300  0.15840600  0.87155700  1
  C  102  1  0.71611000  0.15796000  0.87604700  1
  C  103  1  0.70668700  0.14347800  0.87768400  1
  C  104  1  0.71531000  0.12886400  0.87432000  1
  C  113  1  0.68919200  0.14399300  0.88214400  1
  C  114  1  0.73591900  0.06711900  0.87088600  1
  C  115  1  0.75259600  0.09707500  0.82417300  1
  C  116  1  0.74161000  0.17378100  0.86869100  1
  C  121  1  0.49239300  0.10522500  0.87194600  1
  C  122  1  0.48843100  0.08859300  0.87129200  1
  C  123  1  0.48443200  0.08074500  0.85675900  1
  C  124  1  0.48486300  0.08968900  0.84239100  1
  C  125  1  0.48944500  0.10621600  0.84194200  1
  C  126  1  0.49298100  0.11411900  0.85703500  1
  C  129  1  0.49858700  0.11102200  0.88743700  1
  C  130  1  0.48912400  0.10998900  0.90242200  1
  C  131  1  0.49771500  0.11357100  0.91744200  1
  C  132  1  0.51547800  0.11848900  0.91689700  1
  C  133  1  0.52501900  0.11935900  0.90244900  1
  C  134  1  0.51647500  0.11542700  0.88796900  1
  C  143  1  0.54242700  0.12408700  0.90278400  1
  C  144  1  0.48943800  0.11369600  0.82660600  1
  C  145  1  0.48100200  0.06438700  0.85605700  1
  C  146  1  0.48958400  0.11356900  0.93275100  1
  C  151  1  0.99240000  0.38554200  0.13769200  1
  C  152  1  0.98842600  0.40217000  0.13833800  1
  C  153  1  0.98443000  0.41001600  0.15287300  1
  C  154  1  0.98486100  0.40107000  0.16724000  1
  C  155  1  0.98943500  0.38454100  0.16769000  1
  C  156  1  0.99297900  0.37663900  0.15259600  1
  C  159  1  0.99859100  0.37974400  0.12219700  1
  C  160  1  0.98911800  0.38077100  0.10721900  1
  C  161  1  0.99770800  0.37719000  0.09219800  1
  C  162  1  0.01546500  0.37225400  0.09274200  1
  C  163  1  0.02501000  0.37137800  0.10718900  1
  C  164  1  0.01647500  0.37532300  0.12167000  1
  C  173  1  0.04241100  0.36663500  0.10685300  1
  C  174  1  0.98943900  0.37706200  0.18302800  1
  C  175  1  0.98099000  0.42637200  0.15357600  1
  C  176  1  0.98957200  0.37719100  0.07689300  1
  C  181  1  0.24265900  0.11226600  0.14456400  1
  C  182  1  0.23736300  0.11188900  0.16085100  1
  C  183  1  0.23366300  0.09736200  0.16889400  1
  C  184  1  0.23592600  0.08271000  0.16063200  1
  C  185  1  0.24166500  0.08208400  0.14448000  1
  C  186  1  0.24478200  0.09710100  0.13629200  1
  C  189  1  0.24895100  0.12778900  0.13881400  1
  C  190  1  0.23928400  0.14272900  0.13928300  1
  C  191  1  0.24789000  0.15781300  0.13587600  1
  C  192  1  0.26579900  0.15736300  0.13144200  1
  C  193  1  0.27550700  0.14295500  0.13094800  1
  C  194  1  0.26697900  0.12843600  0.13490500  1
  C  203  1  0.29301800  0.14340100  0.12651800  1
  C  204  1  0.24639000  0.06672800  0.13851100  1
  C  205  1  0.22970200  0.09696500  0.18509700  1
  C  206  1  0.23968100  0.17310900  0.13563500  1
  C  211  1  0.74264400  0.37849700  0.86507300  1
  C  212  1  0.73735700  0.37888000  0.84878300  1
  C  213  1  0.73364100  0.39340700  0.84074600  1
  C  214  1  0.73588500  0.40805600  0.84902100  1
  C  215  1  0.74159200  0.40868000  0.86518300  1
  C  216  1  0.74475900  0.39366000  0.87334800  1
  C  219  1  0.74894700  0.36297500  0.87081300  1
  C  220  1  0.73928500  0.34803000  0.87034100  1
  C  221  1  0.74789800  0.33294600  0.87372300  1
  C  222  1  0.76580800  0.33340000  0.87815800  1
  C  223  1  0.77551300  0.34781000  0.87865300  1
  C  224  1  0.76697800  0.36232800  0.87470900  1
  C  233  1  0.79302700  0.34736800  0.88308500  1
  C  234  1  0.74635600  0.42403900  0.87111100  1
  C  235  1  0.72977500  0.39383500  0.82452500  1
  C  236  1  0.73969100  0.31764900  0.87398900  1
  C  241  1  0.99296200  0.60387700  0.13747400  1
  C  242  1  0.98890200  0.58726400  0.13820400  1
  C  243  1  0.98485300  0.57948600  0.15276000  1
  C  244  1  0.98530400  0.58849200  0.16708400  1
  C  245  1  0.98993600  0.60501000  0.16746900  1
  C  246  1  0.99351900  0.61284100  0.15234400  1
  C  249  1  0.99913700  0.60953400  0.12191200  1
  C  250  1  0.98976200  0.60792200  0.10693000  1
  C  251  1  0.99849800  0.61056500  0.09176000  1
  C  252  1  0.01623800  0.61561700  0.09225800  1
  C  253  1  0.02551400  0.61763300  0.10674000  1
  C  254  1  0.01692900  0.61421800  0.12132200  1
  C  263  1  0.04287800  0.62247900  0.10628700  1
  C  264  1  0.98991100  0.61255100  0.18277700  1
  C  265  1  0.98135700  0.56313900  0.15352300  1
  C  266  1  0.99107000  0.60746400  0.07638200  1
  C  271  1  0.49297500  0.88689500  0.87216400  1
  C  272  1  0.48889600  0.90350400  0.87144300  1
  C  273  1  0.48484700  0.91127900  0.85688500  1
  C  274  1  0.48529800  0.90227200  0.84256100  1
  C  275  1  0.48992700  0.88575300  0.84217500  1
  C  276  1  0.49352400  0.87792400  0.85730000  1
  C  279  1  0.49915000  0.88123700  0.88772800  1
  C  280  1  0.48976600  0.88283700  0.90270600  1
  C  281  1  0.49850000  0.88018400  0.91787600  1
  C  282  1  0.51624200  0.87513700  0.91737600  1
  C  283  1  0.52552100  0.87312700  0.90289500  1
  C  284  1  0.51694200  0.87655100  0.88831100  1
  C  293  1  0.54288400  0.86828000  0.90334800  1
  C  294  1  0.48991200  0.87821300  0.82686400  1
  C  295  1  0.48133500  0.92762300  0.85612300  1
  C  296  1  0.49107400  0.88329000  0.93325400  1
  C  301  1  0.74255200  0.61271400  0.86435600  1
  C  302  1  0.73886400  0.61203500  0.84770900  1
  C  303  1  0.73491900  0.59746500  0.83984500  1
  C  304  1  0.73508800  0.58308600  0.84881300  1
  C  305  1  0.73929900  0.58271300  0.86537000  1
  C  306  1  0.74279900  0.59781300  0.87328900  1
  C  309  1  0.74879300  0.62822700  0.87011600  1
  C  310  1  0.73951400  0.64328800  0.86849900  1
  C  311  1  0.74833200  0.65842200  0.87129200  1
  C  312  1  0.76600700  0.65781400  0.87651200  1
  C  313  1  0.77515500  0.64323000  0.87855700  1
  C  314  1  0.76651000  0.62867200  0.87502500  1
  C  323  1  0.79249300  0.64355100  0.88345400  1
  C  324  1  0.73875100  0.56743500  0.87289400  1
  C  325  1  0.73166900  0.59675300  0.82349600  1
  C  326  1  0.74103100  0.67386100  0.86814200  1
  C  331  1  0.24254500  0.87803000  0.14526300  1
  C  332  1  0.23887600  0.87871100  0.16191500  1
  C  333  1  0.23492500  0.89327900  0.16977600  1
  C  334  1  0.23509000  0.90765600  0.16080600  1
  C  335  1  0.23930500  0.90803100  0.14425000  1
  C  336  1  0.24278600  0.89292900  0.13632800  1
  C  339  1  0.24878700  0.86251900  0.13950100  1
  C  340  1  0.23951300  0.84745700  0.14112200  1
  C  341  1  0.24832900  0.83232500  0.13831500  1
  C  342  1  0.26600900  0.83293500  0.13310900  1
  C  343  1  0.27515600  0.84751800  0.13106900  1
  C  344  1  0.26650400  0.86207700  0.13459000  1
  C  353  1  0.29250100  0.84720300  0.12618300  1
  C  354  1  0.23874800  0.92331000  0.13672800  1
  C  355  1  0.23172300  0.89400800  0.18613200  1
  C  356  1  0.24103600  0.81688700  0.14148400  1
  C  361  1  0.48942800  0.88650900  0.13765100  1
  C  362  1  0.49336400  0.90314700  0.13828500  1
  C  363  1  0.49740400  0.91100600  0.15280200  1
  C  364  1  0.49702200  0.90207200  0.16717600  1
  C  365  1  0.49245600  0.88554200  0.16764900  1
  C  366  1  0.48889200  0.87762400  0.15256800  1
  C  369  1  0.48327500  0.88067600  0.12215900  1
  C  370  1  0.49277000  0.88172000  0.10719300  1
  C  371  1  0.48422900  0.87809000  0.09216200  1
  C  372  1  0.46649100  0.87309400  0.09267800  1
  C  373  1  0.45691800  0.87218900  0.10711000  1
  C  374  1  0.46540800  0.87619300  0.12160000  1
  C  383  1  0.43954700  0.86733900  0.10674200  1
  C  384  1  0.49252500  0.87807600  0.18299300  1
  C  385  1  0.50086600  0.92735900  0.15348300  1
  C  386  1  0.49240200  0.87810100  0.07687400  1
  C  391  1  0.98941400  0.60423400  0.87199900  1
  C  392  1  0.99335500  0.58759800  0.87138000  1
  C  393  1  0.99739200  0.57973400  0.85686500  1
  C  394  1  0.99701600  0.58866500  0.84248900  1
  C  395  1  0.99246300  0.60520100  0.84200600  1
  C  396  1  0.98889000  0.61312300  0.85708300  1
  C  399  1  0.98326200  0.61007500  0.88749100  1
  C  400  1  0.99276600  0.60903800  0.90245100  1
  C  401  1  0.98422600  0.61267300  0.91748100  1
  C  402  1  0.96649400  0.61769000  0.91696400  1
  C  403  1  0.95692100  0.61859900  0.90253200  1
  C  404  1  0.96540200  0.61457700  0.88804300  1
  C  413  1  0.93955600  0.62346600  0.90289800  1
  C  414  1  0.99252100  0.61266300  0.82665600  1
  C  415  1  0.00085300  0.56338100  0.85618900  1
  C  416  1  0.99240100  0.61266300  0.93276800  1
  C  421  1  0.73991000  0.87844600  0.86466900  1
  C  422  1  0.74349200  0.87901100  0.84800300  1
  C  423  1  0.74744700  0.89353200  0.84005100  1
  C  424  1  0.74734400  0.90796700  0.84893300  1
  C  425  1  0.74318300  0.90844600  0.86549600  1
  C  426  1  0.73968500  0.89339900  0.87351200  1
  C  429  1  0.73367000  0.86301500  0.87061200  1
  C  430  1  0.74307600  0.84797100  0.86961900  1
  C  431  1  0.73446600  0.83299600  0.87344200  1
  C  432  1  0.71677200  0.83363200  0.87855000  1
  C  433  1  0.70730800  0.84816300  0.87941500  1
  C  434  1  0.71586300  0.86261600  0.87528100  1
  C  443  1  0.68995200  0.84793500  0.88428800  1
  C  444  1  0.74377400  0.92376100  0.87293600  1
  C  445  1  0.75067400  0.89414600  0.82369600  1
  C  446  1  0.74255500  0.81765100  0.87343800  1
  C  451  1  0.23991100  0.61231800  0.14495500  1
  C  452  1  0.24347500  0.61175100  0.16162500  1
  C  453  1  0.24743700  0.59723200  0.16957800  1
  C  454  1  0.24733700  0.58279800  0.16069300  1
  C  455  1  0.24317100  0.58231700  0.14413000  1
  C  456  1  0.23969200  0.59736500  0.13611000  1
  C  459  1  0.23366700  0.62774500  0.13901100  1
  C  460  1  0.24306800  0.64279200  0.14001200  1
  C  461  1  0.23444900  0.65776600  0.13619800  1
  C  462  1  0.21676400  0.65712500  0.13107200  1
  C  463  1  0.20730400  0.64259100  0.13020000  1
  C  464  1  0.21586200  0.62813900  0.13433300  1
  C  473  1  0.18995000  0.64281000  0.12531400  1
  C  474  1  0.24377600  0.56700100  0.13669300  1
  C  475  1  0.25061300  0.59660100  0.18594000  1
  C  476  1  0.24253700  0.67311000  0.13618600  1
  C  481  1  0.48965200  0.88695100  0.37215500  1
  C  482  1  0.49342300  0.90362200  0.37142800  1
  C  483  1  0.49723500  0.91148900  0.35686100  1
  C  484  1  0.49690100  0.90247700  0.34253400  1
  C  485  1  0.49259700  0.88588300  0.34215300  1
  C  486  1  0.48919900  0.87799300  0.35728100  1
  C  489  1  0.48351600  0.88121900  0.38770000  1
  C  490  1  0.49281600  0.88290500  0.40271100  1
  C  491  1  0.48405100  0.88017800  0.41785500  1
  C  492  1  0.46634400  0.87502900  0.41730400  1
  C  493  1  0.45713400  0.87298100  0.40279300  1
  C  494  1  0.46576200  0.87641700  0.38823700  1
  C  503  1  0.43976500  0.86815200  0.40316300  1
  C  504  1  0.49270600  0.87834700  0.32684100  1
  C  505  1  0.50033400  0.92791300  0.35608400  1
  C  506  1  0.49140400  0.88330600  0.43325900  1
  C  511  1  0.98961700  0.60380100  0.63746000  1
  C  512  1  0.99342700  0.58713900  0.63817400  1
  C  513  1  0.99725300  0.57927800  0.65274000  1
  C  514  1  0.99691100  0.58828700  0.66706800  1
  C  515  1  0.99258500  0.60487900  0.66745600  1
  C  516  1  0.98915900  0.61276500  0.65233000  1
  C  519  1  0.98347200  0.60952900  0.62191300  1
  C  520  1  0.99279100  0.60786700  0.60691000  1
  C  521  1  0.98402800  0.61059400  0.59176500  1
  C  522  1  0.96631100  0.61571900  0.59231400  1
  C  523  1  0.95709200  0.61775400  0.60682300  1
  C  524  1  0.96571400  0.61431500  0.62138000  1
  C  533  1  0.93972000  0.62257600  0.60644800  1
  C  534  1  0.99266600  0.61241000  0.68277300  1
  C  535  1  0.00037900  0.56285700  0.65351400  1
  C  536  1  0.99138700  0.60746800  0.57636400  1
  C  541  1  0.73919800  0.87805500  0.64706500  1
  C  542  1  0.74442400  0.87853300  0.66337400  1
  C  543  1  0.74804800  0.89310100  0.67136400  1
  C  544  1  0.74580400  0.90769700  0.66300600  1
  C  545  1  0.74021400  0.90824300  0.64680200  1
  C  546  1  0.73720100  0.89316900  0.63867500  1
  C  549  1  0.73293000  0.86246800  0.64144000  1
  C  550  1  0.74245800  0.84749200  0.64259800  1
  C  551  1  0.73369900  0.83227400  0.64013100  1
  C  552  1  0.71583800  0.83270700  0.63547400  1
  C  553  1  0.70643300  0.84718700  0.63372600  1
  C  554  1  0.71502100  0.86180800  0.63713300  1
  C  563  1  0.68898100  0.84667100  0.62912400  1
  C  564  1  0.73561800  0.92358000  0.64065900  1
  C  565  1  0.75194200  0.89359100  0.68758400  1
  C  566  1  0.74127300  0.81691000  0.64307300  1
  C  571  1  0.23920400  0.61268100  0.36257100  1
  C  572  1  0.24444400  0.61219300  0.34626600  1
  C  573  1  0.24808600  0.59762300  0.33828500  1
  C  574  1  0.24584600  0.58303100  0.34665200  1
  C  575  1  0.24026300  0.58249600  0.36285800  1
  C  576  1  0.23718400  0.59757000  0.37095900  1
  C  579  1  0.23292500  0.62827200  0.36818000  1
  C  580  1  0.24246100  0.64324600  0.36703700  1
  C  581  1  0.23371100  0.65846600  0.36950600  1
  C  582  1  0.21583600  0.65804000  0.37412000  1
  C  583  1  0.20641600  0.64356500  0.37584400  1
  C  584  1  0.21500700  0.62894100  0.37244900  1
  C  593  1  0.18895400  0.64408800  0.38041800  1
  C  594  1  0.23559100  0.56716300  0.36894000  1
  C  595  1  0.25189100  0.59710200  0.32204800  1
  C  596  1  0.24129100  0.67382900  0.36656600  1
  C  601  1  0.99261000  0.60416200  0.37198500  1
  C  602  1  0.98895200  0.58747000  0.37136400  1
  C  603  1  0.98513100  0.57951800  0.35684400  1
  C  604  1  0.98539600  0.58845100  0.34246300  1
  C  605  1  0.98965000  0.60505400  0.34198100  1
  C  606  1  0.99304200  0.61303500  0.35706000  1
  C  609  1  0.99874500  0.61007300  0.38745100  1
  C  610  1  0.98932800  0.60896800  0.40245200  1
  C  611  1  0.99790200  0.61268300  0.41744700  1
  C  612  1  0.01561000  0.61776800  0.41686900  1
  C  613  1  0.02511700  0.61870000  0.40240300  1
  C  614  1  0.01657700  0.61466800  0.38794500  1
  C  623  1  0.04249500  0.62354200  0.40268600  1
  C  624  1  0.98951300  0.61251100  0.32663200  1
  C  625  1  0.98207000  0.56308600  0.35615700  1
  C  626  1  0.98978100  0.61264700  0.43275800  1
  C  631  1  0.49262600  0.88660700  0.63763800  1
  C  632  1  0.48895200  0.90329400  0.63825100  1
  C  633  1  0.48513400  0.91124300  0.65277200  1
  C  634  1  0.48539900  0.90231000  0.66715300  1
  C  635  1  0.48964800  0.88570600  0.66763600  1
  C  636  1  0.49305200  0.87772400  0.65255800  1
  C  639  1  0.49876200  0.88069700  0.62216800  1
  C  640  1  0.48933400  0.88179300  0.60717500  1
  C  641  1  0.49790800  0.87808600  0.59217800  1
  C  642  1  0.51561400  0.87299300  0.59275500  1
  C  643  1  0.52512400  0.87205700  0.60722000  1
  C  644  1  0.51659100  0.87609500  0.62167800  1
  C  653  1  0.54249900  0.86720500  0.60693200  1
  C  654  1  0.48951600  0.87824700  0.68298800  1
  C  655  1  0.48206600  0.92767500  0.65346100  1
  C  656  1  0.48978300  0.87811700  0.57686900  1
  C  661  1  0.74302400  0.61227700  0.64677800  1
  C  662  1  0.73781200  0.61191200  0.66308900  1
  C  663  1  0.73414900  0.59739000  0.67115700  1
  C  664  1  0.73637100  0.58273500  0.66289100  1
  C  665  1  0.74202700  0.58210100  0.64671500  1
  C  666  1  0.74510300  0.59711100  0.63850300  1
  C  669  1  0.74927200  0.62779700  0.64098200  1
  C  670  1  0.73958800  0.64272500  0.64147600  1
  C  671  1  0.74815600  0.65781000  0.63801200  1
  C  672  1  0.76604100  0.65737700  0.63349100  1
  C  673  1  0.77577000  0.64297800  0.63295400  1
  C  674  1  0.76727400  0.62845900  0.63697800  1
  C  683  1  0.79325600  0.64344000  0.62841100  1
  C  684  1  0.74671600  0.56674300  0.64073300  1
  C  685  1  0.73024300  0.59700000  0.68737500  1
  C  686  1  0.73991900  0.67308800  0.63777900  1
  C  691  1  0.24304600  0.87848100  0.36286600  1
  C  692  1  0.23783700  0.87885200  0.34655300  1
  C  693  1  0.23415600  0.89337300  0.33849200  1
  C  694  1  0.23636000  0.90802500  0.34677000  1
  C  695  1  0.24198700  0.90865900  0.36295500  1
  C  696  1  0.24511600  0.89364600  0.37114300  1
  C  699  1  0.24930400  0.86296000  0.36865100  1
  C  700  1  0.23962200  0.84802900  0.36815300  1
  C  701  1  0.24819800  0.83294200  0.37159200  1
  C  702  1  0.26608400  0.83337800  0.37611200  1
  C  703  1  0.27581100  0.84777600  0.37664900  1
  C  704  1  0.26731000  0.86229700  0.37263900  1
  C  713  1  0.29330000  0.84731700  0.38119000  1
  C  714  1  0.24671300  0.92402100  0.36889600  1
  C  715  1  0.23033800  0.89379400  0.32225800  1
  C  716  1  0.23995900  0.81766400  0.37185100  1
  C  721  1  0.49291300  0.10503100  0.63745000  1
  C  722  1  0.48913700  0.08836200  0.63816100  1
  C  723  1  0.48529000  0.08048700  0.65271600  1
  C  724  1  0.48559200  0.08949300  0.66704700  1
  C  725  1  0.48990100  0.10608600  0.66744400  1
  C  726  1  0.49334200  0.11398300  0.65232800  1
  C  729  1  0.49905300  0.11077600  0.62191000  1
  C  730  1  0.48973600  0.10911300  0.60690600  1
  C  731  1  0.49849200  0.11183600  0.59175700  1
  C  732  1  0.51620700  0.11696300  0.59229800  1
  C  733  1  0.52543300  0.11899100  0.60680400  1
  C  734  1  0.51681500  0.11555700  0.62136600  1
  C  743  1  0.54281400  0.12379200  0.60641900  1
  C  744  1  0.48974900  0.11361800  0.68275800  1
  C  745  1  0.48218500  0.06406200  0.65348000  1
  C  746  1  0.49111700  0.10871300  0.57636200  1
  C  751  1  0.99294100  0.38573700  0.37219800  1
  C  752  1  0.98913500  0.40240100  0.37149700  1
  C  753  1  0.98528100  0.41026900  0.35694100  1
  C  754  1  0.98558700  0.40126300  0.34261000  1
  C  755  1  0.98990600  0.38467100  0.34221100  1
  C  756  1  0.99336600  0.37677800  0.35732600  1
  C  759  1  0.99908700  0.37999600  0.38774100  1
  C  760  1  0.98975500  0.38164000  0.40273800  1
  C  761  1  0.99850900  0.37891200  0.41788600  1
  C  762  1  0.01623200  0.37380400  0.41734700  1
  C  763  1  0.02546600  0.37178700  0.40284100  1
  C  764  1  0.01685100  0.37522500  0.38827900  1
  C  773  1  0.04284800  0.36699500  0.40322900  1
  C  774  1  0.98976400  0.37714000  0.32689500  1
  C  775  1  0.98215200  0.42669000  0.35617800  1
  C  776  1  0.99113300  0.38203500  0.43328000  1
  C  781  1  0.24282500  0.11266600  0.36212100  1
  C  782  1  0.23912600  0.11197900  0.34547500  1
  C  783  1  0.23514400  0.09740900  0.33763300  1
  C  784  1  0.23532900  0.08303400  0.34660300  1
  C  785  1  0.23957200  0.08266700  0.36315200  1
  C  786  1  0.24307000  0.09777100  0.37106500  1
  C  789  1  0.24901200  0.12819600  0.36789000  1
  C  790  1  0.23969600  0.14323400  0.36623400  1
  C  791  1  0.24845600  0.15838800  0.36906500  1
  C  792  1  0.26609300  0.15782000  0.37439400  1
  C  793  1  0.27526700  0.14326100  0.37650200  1
  C  794  1  0.26669700  0.12868300  0.37289400  1
  C  803  1  0.29254500  0.14363400  0.38157800  1
  C  804  1  0.23903400  0.06739300  0.37067900  1
  C  805  1  0.23178300  0.09669900  0.32130500  1
  C  806  1  0.24113200  0.17381000  0.36587700  1
  C  811  1  0.74283500  0.37808200  0.64749100  1
  C  812  1  0.73916800  0.37876900  0.66414300  1
  C  813  1  0.73518300  0.39333600  0.67198800  1
  C  814  1  0.73535300  0.40771100  0.66301700  1
  C  815  1  0.73959000  0.40808000  0.64646600  1
  C  816  1  0.74306700  0.39297700  0.63854700  1
  C  819  1  0.74901900  0.36255700  0.64171500  1
  C  820  1  0.73970800  0.34751900  0.64337700  1
  C  821  1  0.74846200  0.33236600  0.64052800  1
  C  822  1  0.76610100  0.33293500  0.63520500  1
  C  823  1  0.77527700  0.34749500  0.63310000  1
  C  824  1  0.76670300  0.36207200  0.63670300  1
  C  833  1  0.79255800  0.34712400  0.62802900  1
  C  834  1  0.73903200  0.42335500  0.63894200  1
  C  835  1  0.73188400  0.39406100  0.68832500  1
  C  836  1  0.74114700  0.31694800  0.64373600  1
  C  841  1  0.98950000  0.38540000  0.63764400  1
  C  842  1  0.99324300  0.40207600  0.63825600  1
  C  843  1  0.99713400  0.41001300  0.65276900  1
  C  844  1  0.99686100  0.40108200  0.66715100  1
  C  845  1  0.99252700  0.38449900  0.66764100  1
  C  846  1  0.98905300  0.37653100  0.65257000  1
  C  849  1  0.98333400  0.37951000  0.62218200  1
  C  850  1  0.99277600  0.38055100  0.60719100  1
  C  851  1  0.98419500  0.37687500  0.59219000  1
  C  852  1  0.96645100  0.37189800  0.59275300  1
  C  853  1  0.95692000  0.37103100  0.60721200  1
  C  854  1  0.96547100  0.37501700  0.62167600  1
  C  863  1  0.93951100  0.36628400  0.60691000  1
  C  864  1  0.99267500  0.37704100  0.68299000  1
  C  865  1  0.00026600  0.42643400  0.65345000  1
  C  866  1  0.99233800  0.37685400  0.57688900  1
  C  871  1  0.48948300  0.10535400  0.37200400  1
  C  872  1  0.49324800  0.08868300  0.37140400  1
  C  873  1  0.49714000  0.08074800  0.35689100  1
  C  874  1  0.49686600  0.08967800  0.34250900  1
  C  875  1  0.49253000  0.10626300  0.34201500  1
  C  876  1  0.48904100  0.11423100  0.35708300  1
  C  879  1  0.48331300  0.11124300  0.38746900  1
  C  880  1  0.49276700  0.11021500  0.40245400  1
  C  881  1  0.48418300  0.11388300  0.41745600  1
  C  882  1  0.46644000  0.11886400  0.41689300  1
  C  883  1  0.45690500  0.11973000  0.40243500  1
  C  884  1  0.46545100  0.11573700  0.38796900  1
  C  893  1  0.43949700  0.12448000  0.40273800  1
  C  894  1  0.49267200  0.11371900  0.32666300  1
  C  895  1  0.50029000  0.06433100  0.35621100  1
  C  896  1  0.49233100  0.11391200  0.43275500  1
  C  901  1  0.23954500  0.37837900  0.36255700  1
  C  902  1  0.24313300  0.37895800  0.34589100  1
  C  903  1  0.24711500  0.39348000  0.33795900  1
  C  904  1  0.24698700  0.40791100  0.34684800  1
  C  905  1  0.24278200  0.40838700  0.36340300  1
  C  906  1  0.23930000  0.39333000  0.37141000  1
  C  909  1  0.23338500  0.36292200  0.36850700  1
  C  910  1  0.24284500  0.34790900  0.36745400  1
  C  911  1  0.23431600  0.33290500  0.37131400  1
  C  912  1  0.21667200  0.33348300  0.37656100  1
  C  913  1  0.20716200  0.34798300  0.37751500  1
  C  914  1  0.21561600  0.36246300  0.37329600  1
  C  923  1  0.18987400  0.34769000  0.38258600  1
  C  924  1  0.24331200  0.42370900  0.37084600  1
  C  925  1  0.25045200  0.39409700  0.32162700  1
  C  926  1  0.24245200  0.31758400  0.37123700  1
  C  931  1  0.73952600  0.11240300  0.64704300  1
  C  932  1  0.74310300  0.11182200  0.66371100  1
  C  933  1  0.74709100  0.09729900  0.67164000  1
  C  934  1  0.74696400  0.08287200  0.66274800  1
  C  935  1  0.74274900  0.08239500  0.64619200  1
  C  936  1  0.73928200  0.09745400  0.63818700  1
  C  939  1  0.73336100  0.12785800  0.64109600  1
  C  940  1  0.74281800  0.14287000  0.64215300  1
  C  941  1  0.73428200  0.15787500  0.63830600  1
  C  942  1  0.71664300  0.15729500  0.63304600  1
  C  943  1  0.70713400  0.14279300  0.63208900  1
  C  944  1  0.71559100  0.12831400  0.63630700  1
  C  953  1  0.68984800  0.14308000  0.62701000  1
  C  954  1  0.74326900  0.06707000  0.63875200  1
  C  955  1  0.75037400  0.09666400  0.68798100  1
  C  956  1  0.74242000  0.17319300  0.63836400  1
  C  961  1  0.98723100  0.38301200  0.79788200  1
  C  962  1  0.99466900  0.37035900  0.78877900  1
  C  964  1  0.98664100  0.38266300  0.76349200  1
  C  965  1  0.97889100  0.39572500  0.77203400  1
  C  966  1  0.97938800  0.39565100  0.78908800  1
  C  968  1  0.98662800  0.38264600  0.74633000  1
  C  969  1  0.99460700  0.37028500  0.72105600  1
  C  970  1  0.98717400  0.38293000  0.71193900  1
  C  971  1  0.97932500  0.39557800  0.72071700  1
  C  974  1  0.97886300  0.39568900  0.73777100  1
  C  975  1  0.97112300  0.40851000  0.74643500  1
  C  976  1  0.97113800  0.40852800  0.76335500  1
  C  983  1  0.48728300  0.10771500  0.21176100  1
  C  984  1  0.49457500  0.12044000  0.22086300  1
  C  986  1  0.48670200  0.10805300  0.24615200  1
  C  987  1  0.47910000  0.09491800  0.23761000  1
  C  988  1  0.47958500  0.09500000  0.22055600  1
  C  990  1  0.48669000  0.10807000  0.26331300  1
  C  991  1  0.49452400  0.12050800  0.28858800  1
  C  992  1  0.48724200  0.10778800  0.29770500  1
  C  993  1  0.47953800  0.09506700  0.28892600  1
  C  996  1  0.47907700  0.09495100  0.27187200  1
  C  997  1  0.47148600  0.08205500  0.26320900  1
  C  998  1  0.47149900  0.08203800  0.24628900  1
  C  1005  1  0.24122900  0.45229800  0.13974700  1
  C  1006  1  0.25274200  0.46216400  0.13082800  1
  C  1008  1  0.23883200  0.48662200  0.13980900  1
  C  1009  1  0.22706600  0.47737100  0.14938100  1
  C  1010  1  0.22846800  0.46029100  0.14914500  1
  C  1012  1  0.23811000  0.50377800  0.14009700  1
  C  1013  1  0.24933300  0.52953000  0.13141800  1
  C  1014  1  0.23752700  0.53817000  0.14127400  1
  C  1015  1  0.22587600  0.52888300  0.15068600  1
  C  1018  1  0.22580800  0.51177300  0.15019200  1
  C  1019  1  0.21420900  0.50245800  0.15967300  1
  C  1020  1  0.21477800  0.48548200  0.15921800  1
  C  1027  1  0.74135000  0.03844700  0.86991700  1
  C  1028  1  0.75290900  0.02857500  0.87877500  1
  C  1030  1  0.73888500  0.00413900  0.86988100  1
  C  1031  1  0.72704900  0.01340800  0.86039600  1
  C  1032  1  0.72846400  0.03048800  0.86063400  1
  C  1034  1  0.73815000  0.98698300  0.86958000  1
  C  1035  1  0.74941500  0.96121800  0.87817200  1
  C  1036  1  0.73753400  0.95259200  0.86838000  1
  C  1037  1  0.72581800  0.96189500  0.85905000  1
  C  1040  1  0.72576100  0.97900400  0.85956400  1
  C  1041  1  0.71409300  0.98833500  0.85017100  1
  C  1042  1  0.71467700  0.00531000  0.85063700  1
  C  1049  1  0.49505300  0.10783300  0.79767700  1
  C  1050  1  0.48757000  0.12044400  0.78854900  1
  C  1052  1  0.49570300  0.10814900  0.76328500  1
  C  1053  1  0.50350500  0.09513100  0.77185400  1
  C  1054  1  0.50297700  0.09521900  0.78890700  1
  C  1056  1  0.49574500  0.10814900  0.74612500  1
  C  1057  1  0.48773200  0.12044100  0.72082500  1
  C  1058  1  0.49524800  0.10782000  0.71173400  1
  C  1059  1  0.50315300  0.09521800  0.72053600  1
  C  1062  1  0.50359200  0.09513000  0.73759000  1
  C  1063  1  0.51138600  0.08235400  0.74627900  1
  C  1064  1  0.51134300  0.08235400  0.76319900  1
  C  1071  1  0.99500000  0.38295800  0.21196400  1
  C  1072  1  0.98767500  0.37026700  0.22109300  1
  C  1074  1  0.99564200  0.38265400  0.24635600  1
  C  1075  1  0.00328100  0.39575500  0.23778800  1
  C  1076  1  0.00276400  0.39565500  0.22073500  1
  C  1078  1  0.99568300  0.38265700  0.26351800  1
  C  1079  1  0.98783800  0.37027800  0.28881900  1
  C  1080  1  0.99518500  0.38298300  0.29790900  1
  C  1081  1  0.00292700  0.39566800  0.28910500  1
  C  1084  1  0.00336500  0.39576000  0.27205000  1
  C  1085  1  0.01099400  0.40861900  0.26336100  1
  C  1086  1  0.01095200  0.40861700  0.24644200  1
  C  1093  1  0.24114100  0.03805100  0.13969700  1
  C  1094  1  0.22983300  0.02817700  0.13057100  1
  C  1096  1  0.24357800  0.00372700  0.13979600  1
  C  1097  1  0.25513000  0.01299000  0.14957300  1
  C  1098  1  0.25370900  0.03006800  0.14932000  1
  C  1100  1  0.24431600  0.98657100  0.14009700  1
  C  1101  1  0.23330600  0.96080000  0.13123700  1
  C  1102  1  0.24492600  0.95217800  0.14129200  1
  C  1103  1  0.25637300  0.96148200  0.15089400  1
  C  1106  1  0.25642300  0.97859000  0.15040000  1
  C  1107  1  0.26781200  0.98791800  0.16007900  1
  C  1108  1  0.26722700  0.00489200  0.15962000  1
  C  1115  1  0.74101000  0.45271400  0.86998500  1
  C  1116  1  0.72963700  0.46259900  0.87902800  1
  C  1118  1  0.74351800  0.48702200  0.86990500  1
  C  1119  1  0.75516000  0.47773700  0.86023500  1
  C  1120  1  0.75372400  0.46065900  0.86049600  1
  C  1122  1  0.74427400  0.50417600  0.86958900  1
  C  1123  1  0.73320800  0.52996400  0.87833900  1
  C  1124  1  0.74492200  0.53856900  0.86836200  1
  C  1125  1  0.75645300  0.52924600  0.85886100  1
  C  1128  1  0.75648900  0.51213800  0.85937700  1
  C  1129  1  0.76796500  0.50279000  0.84980500  1
  C  1130  1  0.76736200  0.48581600  0.85028100  1
  C  1137  1  0.99532400  0.60667900  0.21175000  1
  C  1138  1  0.98794800  0.61936500  0.22084900  1
  C  1140  1  0.99578900  0.60697000  0.24614100  1
  C  1141  1  0.00346900  0.59387200  0.23760300  1
  C  1142  1  0.00303700  0.59397500  0.22054800  1
  C  1144  1  0.99574300  0.60696300  0.26330300  1
  C  1145  1  0.98776800  0.61933600  0.28857100  1
  C  1146  1  0.99508900  0.60663900  0.29769100  1
  C  1147  1  0.00287400  0.59395500  0.28891700  1
  C  1150  1  0.00338300  0.59386000  0.27186500  1
  C  1151  1  0.01105500  0.58100100  0.26320500  1
  C  1152  1  0.01109500  0.58100500  0.24628500  1
  C  1159  1  0.49527300  0.88411200  0.79788300  1
  C  1160  1  0.48803100  0.87136100  0.78878500  1
  C  1162  1  0.49572800  0.88382900  0.76349100  1
  C  1163  1  0.50327200  0.89699400  0.77202900  1
  C  1164  1  0.50285100  0.89688500  0.78908300  1
  C  1166  1  0.49568200  0.88383600  0.74632900  1
  C  1167  1  0.48785000  0.87138800  0.72105800  1
  C  1168  1  0.49502400  0.88415800  0.71193900  1
  C  1169  1  0.50267400  0.89690900  0.72071500  1
  C  1172  1  0.50318300  0.89700800  0.73776800  1
  C  1173  1  0.51071600  0.90993600  0.74642700  1
  C  1174  1  0.51075800  0.90993000  0.76334600  1
  C  1181  1  0.48702600  0.88398400  0.21193500  1
  C  1182  1  0.49450400  0.87136700  0.22106000  1
  C  1184  1  0.48648400  0.88371400  0.24632900  1
  C  1185  1  0.47867000  0.89672900  0.23776400  1
  C  1186  1  0.47914000  0.89661500  0.22071100  1
  C  1188  1  0.48649900  0.88373800  0.26349000  1
  C  1189  1  0.49457700  0.87147500  0.28878400  1
  C  1190  1  0.48708600  0.88410300  0.29788100  1
  C  1191  1  0.47918700  0.89671000  0.28908100  1
  C  1194  1  0.47869500  0.89677700  0.27202700  1
  C  1195  1  0.47089200  0.90955200  0.26334200  1
  C  1196  1  0.47088000  0.90952700  0.24642200  1
  C  1203  1  0.98718500  0.60666300  0.79769500  1
  C  1204  1  0.99427700  0.61946900  0.78857400  1
  C  1206  1  0.98663500  0.60692100  0.76330400  1
  C  1207  1  0.97921900  0.59371000  0.77186800  1
  C  1208  1  0.97967100  0.59384100  0.78892200  1
  C  1210  1  0.98664400  0.60689800  0.74614300  1
  C  1211  1  0.99431600  0.61937700  0.72084700  1
  C  1212  1  0.98719900  0.60656400  0.71175200  1
  C  1213  1  0.97969300  0.59375800  0.72055400  1
  C  1216  1  0.97923100  0.59366900  0.73760700  1
  C  1217  1  0.97183000  0.58069300  0.74629200  1
  C  1218  1  0.97182600  0.58071300  0.76321100  1
  C  1225  1  0.74042900  0.95232300  0.64228200  1
  C  1226  1  0.75108300  0.96207700  0.63240300  1
  C  1228  1  0.73813800  0.98664800  0.64228500  1
  C  1229  1  0.72726800  0.97749200  0.65279500  1
  C  1230  1  0.72863200  0.96041400  0.65260200  1
  C  1232  1  0.73749800  0.00381000  0.64253700  1
  C  1233  1  0.74799400  0.02950000  0.63293700  1
  C  1234  1  0.73713200  0.03820700  0.64361000  1
  C  1235  1  0.72628100  0.02899700  0.65385700  1
  C  1238  1  0.72614600  0.01188900  0.65346800  1
  C  1239  1  0.71540000  0.00266400  0.66383800  1
  C  1240  1  0.71591300  0.98568800  0.66346900  1
  C  1247  1  0.24062100  0.53844700  0.36756500  1
  C  1248  1  0.25152100  0.52864400  0.37716700  1
  C  1250  1  0.23827900  0.50412500  0.36750000  1
  C  1251  1  0.22714900  0.51332800  0.35726100  1
  C  1252  1  0.22852400  0.53040700  0.35749600  1
  C  1254  1  0.23760900  0.48696500  0.36721200  1
  C  1255  1  0.24830400  0.46124100  0.37652700  1
  C  1256  1  0.23717900  0.45256900  0.36605300  1
  C  1257  1  0.22609800  0.46182100  0.35605000  1
  C  1260  1  0.22598100  0.47892800  0.35649700  1
  C  1261  1  0.21499200  0.48819800  0.34638400  1
  C  1262  1  0.21552100  0.50517300  0.34680400  1
  C  1269  1  0.74145000  0.53807700  0.64194100  1
  C  1270  1  0.73011600  0.52820800  0.63283800  1
  C  1272  1  0.74388300  0.50375700  0.64202900  1
  C  1273  1  0.75546100  0.51301700  0.65178500  1
  C  1274  1  0.75404100  0.53009300  0.65153700  1
  C  1276  1  0.74462000  0.48660300  0.64232400  1
  C  1277  1  0.73358500  0.46084000  0.63347800  1
  C  1278  1  0.74523000  0.45221400  0.64350400  1
  C  1279  1  0.75670300  0.46151200  0.65308700  1
  C  1282  1  0.75675400  0.47862000  0.65259900  1
  C  1283  1  0.76816800  0.48794200  0.66225800  1
  C  1284  1  0.76758200  0.50491600  0.66180400  1
  C  1291  1  0.24134600  0.95268600  0.36774500  1
  C  1292  1  0.22994900  0.96256400  0.37676800  1
  C  1294  1  0.24383800  0.98699100  0.36767100  1
  C  1295  1  0.25550600  0.97771200  0.35802100  1
  C  1296  1  0.25407600  0.96063600  0.35827700  1
  C  1298  1  0.24458800  0.00414600  0.36736000  1
  C  1299  1  0.23349100  0.02992500  0.37609800  1
  C  1300  1  0.24522400  0.03853500  0.36614500  1
  C  1301  1  0.25677800  0.02922100  0.35666100  1
  C  1304  1  0.25682200  0.01211300  0.35717300  1
  C  1305  1  0.26832200  0.00277100  0.34761800  1
  C  1306  1  0.26772500  0.98579700  0.34809000  1
  C  1313  1  0.99272200  0.53733300  0.86393900  1
  C  1314  1  0.99365900  0.52819500  0.87815700  1
  C  1316  1  0.99265400  0.50351900  0.86334600  1
  C  1317  1  0.99125700  0.51207500  0.84860300  1
  C  1318  1  0.99121100  0.52906600  0.84917200  1
  C  1320  1  0.99273200  0.48652400  0.86333400  1
  C  1321  1  0.99394300  0.46183700  0.87811100  1
  C  1322  1  0.99308100  0.45270900  0.86388200  1
  C  1323  1  0.99151700  0.46098500  0.84912400  1
  C  1326  1  0.99141300  0.47797600  0.84857800  1
  C  1327  1  0.98993600  0.48655400  0.83396500  1
  C  1328  1  0.98985900  0.50350800  0.83397700  1
  C  1335  1  0.49277000  0.95341600  0.14572900  1
  C  1336  1  0.49367400  0.96255300  0.13150700  1
  C  1338  1  0.49272700  0.98723200  0.14631700  1
  C  1339  1  0.49136400  0.97867800  0.16106400  1
  C  1340  1  0.49130600  0.96168800  0.16049800  1
  C  1342  1  0.49281100  0.00422500  0.14632600  1
  C  1343  1  0.49398400  0.02891100  0.13154200  1
  C  1344  1  0.49317200  0.03804200  0.14577300  1
  C  1345  1  0.49163600  0.02976800  0.16053400  1
  C  1348  1  0.49153400  0.01277700  0.16108200  1
  C  1349  1  0.49009100  0.00420100  0.17570100  1
  C  1350  1  0.49000700  0.98724800  0.17569200  1
  C  1357  1  0.24240700  0.38611200  0.29573300  1
  C  1358  1  0.24385700  0.37185300  0.28668300  1
  C  1360  1  0.24288200  0.38661100  0.26202000  1
  C  1361  1  0.24093000  0.40138000  0.27048300  1
  C  1362  1  0.24060500  0.40085500  0.28742600  1
  C  1364  1  0.24331000  0.38658300  0.24507800  1
  C  1365  1  0.24535200  0.37172400  0.22053200  1
  C  1366  1  0.24435600  0.38595200  0.21138100  1
  C  1367  1  0.24227500  0.40073700  0.21955100  1
  C  1370  1  0.24180800  0.40132600  0.23649000  1
  C  1371  1  0.23976100  0.41596300  0.24497100  1
  C  1372  1  0.23932200  0.41599000  0.26187500  1
  C  1379  1  0.74238700  0.10470000  0.71387400  1
  C  1380  1  0.74394500  0.11895100  0.72292200  1
  C  1382  1  0.74288400  0.10419500  0.74758600  1
  C  1383  1  0.74084100  0.08943700  0.73912200  1
  C  1384  1  0.74051200  0.08996500  0.72217900  1
  C  1386  1  0.74331100  0.10421900  0.76452900  1
  C  1387  1  0.74543200  0.11906200  0.78908100  1
  C  1388  1  0.74434600  0.10483700  0.79822600  1
  C  1389  1  0.74218000  0.09006500  0.79005100  1
  C  1392  1  0.74171700  0.08948300  0.77311300  1
  C  1393  1  0.73958500  0.07485700  0.76463000  1
  C  1394  1  0.73914600  0.07483400  0.74772700  1
  C  1401  1  0.48932300  0.95372300  0.86389200  1
  C  1402  1  0.48844100  0.96286600  0.87811100  1
  C  1404  1  0.48944900  0.98753900  0.86329700  1
  C  1405  1  0.49078600  0.97897800  0.84855100  1
  C  1406  1  0.49080200  0.96198800  0.84912000  1
  C  1408  1  0.48942000  0.00453300  0.86328700  1
  C  1409  1  0.48832200  0.02922300  0.87807100  1
  C  1410  1  0.48917600  0.03834800  0.86383900  1
  C  1411  1  0.49067700  0.03007000  0.84907700  1
  C  1414  1  0.49072700  0.01307800  0.84852900  1
  C  1415  1  0.49214000  0.00449800  0.83391200  1
  C  1416  1  0.49217000  0.98754400  0.83392300  1
  C  1423  1  0.98934100  0.53704000  0.14575000  1
  C  1424  1  0.98846400  0.52789800  0.13152900  1
  C  1426  1  0.98945800  0.50322400  0.14634200  1
  C  1427  1  0.99078900  0.51178300  0.16108900  1
  C  1428  1  0.99080600  0.52877400  0.16052100  1
  C  1430  1  0.98942100  0.48622900  0.14635300  1
  C  1431  1  0.98832300  0.46154100  0.13156800  1
  C  1432  1  0.98915400  0.45241500  0.14580100  1
  C  1433  1  0.99066200  0.46069300  0.16056200  1
  C  1436  1  0.99071600  0.47768400  0.16111000  1
  C  1437  1  0.99212600  0.48626300  0.17572900  1
  C  1438  1  0.99216100  0.50321600  0.17571900  1
  C  1445  1  0.23974500  0.10465800  0.29536700  1
  C  1446  1  0.23833400  0.11890300  0.28628800  1
  C  1448  1  0.23937500  0.10410000  0.26165400  1
  C  1449  1  0.24128500  0.08934400  0.27014800  1
  C  1450  1  0.24155500  0.08989900  0.28709100  1
  C  1452  1  0.23900900  0.10410000  0.24471100  1
  C  1453  1  0.23706100  0.11892000  0.22013400  1
  C  1454  1  0.23808200  0.10467500  0.21101400  1
  C  1455  1  0.24013100  0.08990300  0.21921300  1
  C  1458  1  0.24053600  0.08934200  0.23615400  1
  C  1459  1  0.24253800  0.07471800  0.24466600  1
  C  1460  1  0.24291500  0.07471900  0.26157000  1
  C  1467  1  0.73979100  0.38604600  0.71425800  1
  C  1468  1  0.73826100  0.37181000  0.72333500  1
  C  1470  1  0.73937900  0.38660800  0.74797100  1
  C  1471  1  0.74139100  0.40135400  0.73947600  1
  C  1472  1  0.74167700  0.40079600  0.72253500  1
  C  1474  1  0.73900400  0.38661100  0.76491300  1
  C  1475  1  0.73696100  0.37180700  0.78949400  1
  C  1476  1  0.73807000  0.38604800  0.79861200  1
  C  1477  1  0.74021100  0.40080700  0.79040900  1
  C  1480  1  0.74062200  0.40136200  0.77347000  1
  C  1481  1  0.74272100  0.41597600  0.76495800  1
  C  1482  1  0.74310800  0.41597000  0.74805400  1
  C  1489  1  0.73856100  0.60482000  0.71326100  1
  C  1490  1  0.73716300  0.61904000  0.72237600  1
  C  1492  1  0.73932800  0.60425600  0.74696100  1
  C  1493  1  0.74123600  0.58953300  0.73840800  1
  C  1494  1  0.74090600  0.59008800  0.72146700  1
  C  1496  1  0.73959000  0.60425700  0.76390600  1
  C  1497  1  0.73805900  0.61902900  0.78853800  1
  C  1498  1  0.73974100  0.60481000  0.79761800  1
  C  1499  1  0.74192200  0.59008900  0.78935100  1
  C  1502  1  0.74177600  0.58953800  0.77240800  1
  C  1503  1  0.74378800  0.57494900  0.76383400  1
  C  1504  1  0.74351600  0.57494700  0.74692800  1
  C  1511  1  0.23856200  0.88590200  0.29637100  1
  C  1512  1  0.23708700  0.87168600  0.28726000  1
  C  1514  1  0.23931300  0.88645500  0.26267100  1
  C  1515  1  0.24130000  0.90117200  0.27122000  1
  C  1516  1  0.24097500  0.90062100  0.28816000  1
  C  1518  1  0.23957100  0.88645100  0.24572600  1
  C  1519  1  0.23796300  0.87168700  0.22109300  1
  C  1520  1  0.23971100  0.88589800  0.21201200  1
  C  1521  1  0.24197600  0.90060900  0.22027900  1
  C  1524  1  0.24183200  0.90116300  0.23722300  1
  C  1525  1  0.24392100  0.91574200  0.24579300  1
  C  1526  1  0.24365200  0.91574800  0.26269900  1
  C  1533  1  0.74371600  0.88580600  0.71351100  1
  C  1534  1  0.74510900  0.87160900  0.72266500  1
  C  1536  1  0.74293800  0.88645400  0.74721100  1
  C  1537  1  0.74102100  0.90115400  0.73862000  1
  C  1538  1  0.74135700  0.90055600  0.72168100  1
  C  1540  1  0.74267300  0.88649700  0.76415500  1
  C  1541  1  0.74421700  0.87179100  0.78882500  1
  C  1542  1  0.74253300  0.88603300  0.79786800  1
  C  1543  1  0.74033100  0.90072900  0.78956300  1
  C  1546  1  0.74047800  0.90123900  0.77261800  1
  C  1547  1  0.73845800  0.91580300  0.76400700  1
  C  1548  1  0.73873200  0.91576100  0.74710200  1
  C  1555  1  0.24374200  0.60496600  0.29612400  1
  C  1556  1  0.24525400  0.61915800  0.28697800  1
  C  1558  1  0.24298000  0.60433300  0.26242400  1
  C  1559  1  0.24096400  0.58964100  0.27101000  1
  C  1560  1  0.24130000  0.59023200  0.28795000  1
  C  1562  1  0.24270900  0.60429700  0.24548000  1
  C  1563  1  0.24433400  0.61900100  0.22081100  1
  C  1564  1  0.24254900  0.60477100  0.21176700  1
  C  1565  1  0.24025100  0.59008600  0.22007000  1
  C  1568  1  0.24040600  0.58957100  0.23701500  1
  C  1569  1  0.23829100  0.57501700  0.24562000  1
  C  1570  1  0.23857200  0.57505000  0.26252600  1
  C  1577  1  0.49206500  0.03844000  0.36430800  1
  C  1578  1  0.49396500  0.02930800  0.37844900  1
  C  1580  1  0.49171800  0.00463000  0.36375200  1
  C  1581  1  0.48929400  0.01318900  0.34912100  1
  C  1582  1  0.48941000  0.03018000  0.34967500  1
  C  1584  1  0.49174500  0.98763600  0.36374100  1
  C  1585  1  0.49406600  0.96294700  0.37840800  1
  C  1586  1  0.49219200  0.95382500  0.36425700  1
  C  1587  1  0.48952000  0.96209600  0.34963300  1
  C  1590  1  0.48934900  0.97908800  0.34909900  1
  C  1591  1  0.48682000  0.98766700  0.33460800  1
  C  1592  1  0.48679200  0.00462100  0.33461900  1
  C  1599  1  0.99205400  0.45232500  0.64534000  1
  C  1600  1  0.99394400  0.46145100  0.63119400  1
  C  1602  1  0.99172800  0.48613400  0.64588600  1
  C  1603  1  0.98931200  0.47758100  0.66052200  1
  C  1604  1  0.98941800  0.46058900  0.65997200  1
  C  1606  1  0.99176700  0.50312800  0.64589200  1
  C  1607  1  0.99408500  0.52781200  0.63121600  1
  C  1608  1  0.99224100  0.53693900  0.64536700  1
  C  1609  1  0.98957000  0.52867400  0.65999400  1
  C  1612  1  0.98939100  0.51168200  0.66053200  1
  C  1613  1  0.98686900  0.50310900  0.67502800  1
  C  1614  1  0.98683000  0.48615400  0.67502400  1
  C  1621  1  0.99027500  0.45260700  0.36433000  1
  C  1622  1  0.98837900  0.46173900  0.37847300  1
  C  1624  1  0.99072000  0.48641700  0.36379300  1
  C  1625  1  0.99315900  0.47786000  0.34916300  1
  C  1626  1  0.99299400  0.46086900  0.34970800  1
  C  1628  1  0.99073200  0.50341300  0.36378900  1
  C  1629  1  0.98840900  0.52810100  0.37845800  1
  C  1630  1  0.99032300  0.53722200  0.36431200  1
  C  1631  1  0.99303800  0.52895200  0.34969400  1
  C  1634  1  0.99318400  0.51196000  0.34915600  1
  C  1635  1  0.99573300  0.50338300  0.33466700  1
  C  1636  1  0.99572100  0.48642900  0.33466900  1
  C  1643  1  0.49032300  0.03815400  0.64531000  1
  C  1644  1  0.48838200  0.02902700  0.63117000  1
  C  1646  1  0.49073900  0.00434400  0.64584200  1
  C  1647  1  0.49320400  0.01289700  0.66047000  1
  C  1648  1  0.49304800  0.02988900  0.65992900  1
  C  1650  1  0.49074400  0.98734900  0.64584000  1
  C  1651  1  0.48839400  0.96266500  0.63116800  1
  C  1652  1  0.49031900  0.95353900  0.64530900  1
  C  1653  1  0.49305700  0.96180500  0.65992600  1
  C  1656  1  0.49321200  0.97879700  0.66046900  1
  C  1657  1  0.49578500  0.98736800  0.67495600  1
  C  1658  1  0.49578100  0.00432300  0.67495800  1
  C  1665  1  0.91152100  0.37084500  0.89138400  1
  C  1666  1  0.90142400  0.35971500  0.90028600  1
  C  1668  1  0.87544500  0.36695600  0.88610600  1
  C  1669  1  0.88476600  0.37834500  0.87666800  1
  C  1670  1  0.90294000  0.38009600  0.87952900  1
  C  1672  1  0.85734200  0.36468900  0.88380000  1
  C  1673  1  0.83118400  0.35096400  0.89139800  1
  C  1674  1  0.82126200  0.35946200  0.87983700  1
  C  1675  1  0.83001500  0.37093700  0.87023400  1
  C  1678  1  0.84819600  0.37375000  0.87200300  1
  C  1679  1  0.85749800  0.38509900  0.86260600  1
  C  1680  1  0.87564300  0.38738100  0.86492300  1
  C  1687  1  0.41151800  0.11991800  0.11825400  1
  C  1688  1  0.40143000  0.13106400  0.10936300  1
  C  1690  1  0.37544500  0.12381700  0.12353000  1
  C  1691  1  0.38475700  0.11241400  0.13295600  1
  C  1692  1  0.40292800  0.11065900  0.13009800  1
  C  1694  1  0.35734100  0.12609100  0.12583300  1
  C  1695  1  0.33119300  0.13983700  0.11824800  1
  C  1696  1  0.32126100  0.13132500  0.12979100  1
  C  1697  1  0.33000700  0.11983800  0.13938600  1
  C  1700  1  0.34818800  0.11701900  0.13761800  1
  C  1701  1  0.35748100  0.10565600  0.14700400  1
  C  1702  1  0.37562700  0.10336900  0.14468900  1
  C  1709  1  0.16101600  0.35906500  0.13028500  1
  C  1710  1  0.15100600  0.35013800  0.11911800  1
  C  1712  1  0.12496600  0.36432900  0.12618900  1
  C  1713  1  0.13420800  0.37382600  0.13757500  1
  C  1714  1  0.15237300  0.37098400  0.13942000  1
  C  1716  1  0.10686700  0.36659900  0.12384400  1
  C  1717  1  0.08078900  0.35889000  0.11007200  1
  C  1718  1  0.07078800  0.37043700  0.11852800  1
  C  1719  1  0.07947300  0.38013300  0.12996100  1
  C  1722  1  0.09764900  0.37842000  0.13282900  1
  C  1723  1  0.10687400  0.38788900  0.14416100  1
  C  1724  1  0.12501400  0.38560900  0.14651800  1
  C  1731  1  0.66102500  0.13165700  0.87933200  1
  C  1732  1  0.65102000  0.14057300  0.89051200  1
  C  1734  1  0.62497200  0.12639900  0.88342500  1
  C  1735  1  0.63421000  0.11691200  0.87202800  1
  C  1736  1  0.65237600  0.11975000  0.87018600  1
  C  1738  1  0.60687400  0.12413200  0.88577100  1
  C  1739  1  0.58080200  0.13182900  0.89955800  1
  C  1740  1  0.57079500  0.12029400  0.89109100  1
  C  1741  1  0.57947600  0.11060900  0.87964600  1
  C  1744  1  0.59765100  0.11232200  0.87677500  1
  C  1745  1  0.60687100  0.10286300  0.86543100  1
  C  1746  1  0.62501200  0.10514100  0.86307500  1
  C  1753  1  0.07126300  0.61926700  0.11811300  1
  C  1754  1  0.08118900  0.63060600  0.10930900  1
  C  1756  1  0.10734700  0.62339600  0.12323300  1
  C  1757  1  0.09819800  0.61181100  0.13257800  1
  C  1758  1  0.08002200  0.60994700  0.12980400  1
  C  1760  1  0.12545100  0.62577600  0.12545600  1
  C  1761  1  0.15144400  0.63980500  0.11789900  1
  C  1762  1  0.16153500  0.63117700  0.12923600  1
  C  1763  1  0.15293400  0.61954500  0.13876700  1
  C  1766  1  0.13476200  0.61662400  0.13707400  1
  C  1767  1  0.12563000  0.60509000  0.14638500  1
  C  1768  1  0.10748900  0.60269800  0.14415200  1
  C  1775  1  0.57127000  0.87149100  0.89152000  1
  C  1776  1  0.58119200  0.86014100  0.90031100  1
  C  1778  1  0.60735100  0.86735700  0.88639200  1
  C  1779  1  0.59820400  0.87895500  0.87706100  1
  C  1780  1  0.58003000  0.88082000  0.87983700  1
  C  1782  1  0.62545500  0.86497700  0.88416400  1
  C  1783  1  0.65144300  0.85092900  0.89170000  1
  C  1784  1  0.66153600  0.85956800  0.88037200  1
  C  1785  1  0.65293600  0.87121200  0.87085400  1
  C  1788  1  0.63476700  0.87413600  0.87255400  1
  C  1789  1  0.62563700  0.88568400  0.86325700  1
  C  1790  1  0.60749700  0.88807700  0.86549500  1
  C  1797  1  0.82085500  0.63171800  0.87989300  1
  C  1798  1  0.83089100  0.64036700  0.89125500  1
  C  1800  1  0.85692500  0.62634800  0.88379300  1
  C  1801  1  0.84766100  0.61716900  0.87216400  1
  C  1802  1  0.82949500  0.62006900  0.87041500  1
  C  1804  1  0.87502600  0.62399000  0.88606300  1
  C  1805  1  0.90113500  0.63125000  0.90003600  1
  C  1806  1  0.91110900  0.61992400  0.89126100  1
  C  1807  1  0.90238900  0.61056500  0.87957400  1
  C  1810  1  0.88421600  0.61240000  0.87675700  1
  C  1811  1  0.87496800  0.60326000  0.86517500  1
  C  1812  1  0.85683200  0.60562700  0.86289400  1
  C  1819  1  0.32085100  0.85905600  0.12973700  1
  C  1820  1  0.33088900  0.85042300  0.11836600  1
  C  1822  1  0.35692200  0.86442800  0.12585400  1
  C  1823  1  0.34765700  0.87359400  0.13749100  1
  C  1824  1  0.32948900  0.87069400  0.13923200  1
  C  1826  1  0.37502300  0.86679000  0.12358900  1
  C  1827  1  0.40113100  0.85954700  0.10960600  1
  C  1828  1  0.41110700  0.87086200  0.11839400  1
  C  1829  1  0.40238600  0.88020700  0.13009300  1
  C  1832  1  0.38421300  0.87836900  0.13290700  1
  C  1833  1  0.37496400  0.88749500  0.14449900  1
  C  1834  1  0.35682600  0.88512500  0.14677500  1
  C  1841  1  0.41150600  0.87152700  0.39109900  1
  C  1842  1  0.40144700  0.86009500  0.39964600  1
  C  1844  1  0.37552100  0.86747200  0.38544600  1
  C  1845  1  0.38481500  0.87916600  0.37636300  1
  C  1846  1  0.40294400  0.88098900  0.37940000  1
  C  1848  1  0.35746300  0.86510700  0.38292500  1
  C  1849  1  0.33136400  0.85097100  0.38993200  1
  C  1850  1  0.32147800  0.85967700  0.37850000  1
  C  1851  1  0.33021500  0.87146300  0.36927000  1
  C  1854  1  0.34834700  0.87438300  0.37127300  1
  C  1855  1  0.35762400  0.88603900  0.36224000  1
  C  1856  1  0.37572100  0.88841400  0.36476600  1
  C  1863  1  0.91146300  0.61921300  0.61851600  1
  C  1864  1  0.90141000  0.63065100  0.60997200  1
  C  1866  1  0.87547800  0.62327600  0.62416700  1
  C  1867  1  0.88476900  0.61157400  0.63324500  1
  C  1868  1  0.90289600  0.60974700  0.63020900  1
  C  1870  1  0.85742200  0.62564700  0.62668800  1
  C  1871  1  0.83133100  0.63979800  0.61968900  1
  C  1872  1  0.82144000  0.63108700  0.63111300  1
  C  1873  1  0.83017100  0.61929400  0.64034100  1
  C  1876  1  0.84830100  0.61636800  0.63833500  1
  C  1877  1  0.85757200  0.60470300  0.64736300  1
  C  1878  1  0.87566800  0.60232400  0.64483700  1
  C  1885  1  0.66079800  0.85899700  0.63174100  1
  C  1886  1  0.65107200  0.85061000  0.61996400  1
  C  1888  1  0.62481500  0.86435200  0.62725600  1
  C  1889  1  0.63377600  0.87329900  0.63926200  1
  C  1890  1  0.65191200  0.87043200  0.64128400  1
  C  1892  1  0.60676100  0.86670200  0.62469400  1
  C  1893  1  0.58100000  0.85967000  0.61007300  1
  C  1894  1  0.57078700  0.87074400  0.61893300  1
  C  1895  1  0.57920300  0.87987500  0.63097900  1
  C  1898  1  0.59731700  0.87804300  0.63408700  1
  C  1899  1  0.60626100  0.88695600  0.64604000  1
  C  1900  1  0.62435300  0.88460200  0.64860800  1
  C  1907  1  0.16078700  0.63172800  0.37784700  1
  C  1908  1  0.15106900  0.64011200  0.38963100  1
  C  1910  1  0.12480300  0.62638600  0.38233300  1
  C  1911  1  0.13375700  0.61744200  0.37032300  1
  C  1912  1  0.15189400  0.62030200  0.36830000  1
  C  1914  1  0.10674900  0.62404300  0.38489900  1
  C  1915  1  0.08099500  0.63107400  0.39953300  1
  C  1916  1  0.07077700  0.62000600  0.39067100  1
  C  1917  1  0.07918400  0.61087900  0.37861800  1
  C  1920  1  0.09729700  0.61270600  0.37550500  1
  C  1921  1  0.10623400  0.60379700  0.36354500  1
  C  1922  1  0.12432700  0.60614600  0.36097500  1
  C  1929  1  0.57112300  0.12025700  0.61835400  1
  C  1930  1  0.58125900  0.13149000  0.60962300  1
  C  1932  1  0.60717300  0.12411300  0.62385100  1
  C  1933  1  0.59780100  0.11261400  0.63311300  1
  C  1934  1  0.57964600  0.11088500  0.63014900  1
  C  1936  1  0.62526300  0.12637000  0.62628700  1
  C  1937  1  0.65147300  0.14021900  0.61903900  1
  C  1938  1  0.66132900  0.13155000  0.63052000  1
  C  1939  1  0.65249800  0.11998500  0.63995400  1
  C  1942  1  0.63433300  0.11717800  0.63803500  1
  C  1943  1  0.62497800  0.10572000  0.64725200  1
  C  1944  1  0.60685000  0.10345400  0.64480900  1
  C  1951  1  0.07115500  0.37052700  0.39128800  1
  C  1952  1  0.08129100  0.35928600  0.40000900  1
  C  1954  1  0.10720300  0.36667000  0.38578100  1
  C  1955  1  0.09783000  0.37817900  0.37653000  1
  C  1956  1  0.07967700  0.37990800  0.37949900  1
  C  1958  1  0.12529200  0.36441200  0.38333800  1
  C  1959  1  0.15150000  0.35054800  0.39056400  1
  C  1960  1  0.16135500  0.35922300  0.37908800  1
  C  1961  1  0.15252400  0.37079800  0.36966600  1
  C  1964  1  0.13436000  0.37361000  0.37159400  1
  C  1965  1  0.12500500  0.38507700  0.36238800  1
  C  1966  1  0.10687900  0.38734600  0.36483800  1
  C  1973  1  0.32098800  0.13186400  0.37846300  1
  C  1974  1  0.33078300  0.14053700  0.38998400  1
  C  1976  1  0.35703600  0.12671100  0.38282400  1
  C  1977  1  0.34802100  0.11750300  0.37105300  1
  C  1978  1  0.32986100  0.12029000  0.36907400  1
  C  1980  1  0.37512200  0.12447600  0.38531000  1
  C  1981  1  0.40097700  0.13190000  0.39960200  1
  C  1982  1  0.41116900  0.12068600  0.39090000  1
  C  1983  1  0.40269400  0.11128600  0.37909500  1
  C  1986  1  0.38454400  0.11298500  0.37607900  1
  C  1987  1  0.37554400  0.10380800  0.36436300  1
  C  1988  1  0.35742200  0.10605100  0.36186800  1
  C  1995  1  0.82099700  0.35889500  0.63115700  1
  C  1996  1  0.83079200  0.35023300  0.61962700  1
  C  1998  1  0.85704900  0.36404100  0.62681700  1
  C  1999  1  0.84803200  0.37323700  0.63859600  1
  C  2000  1  0.82987100  0.37045400  0.64056300  1
  C  2002  1  0.87513600  0.36627400  0.62433500  1
  C  2003  1  0.90099100  0.35886800  0.61003500  1
  C  2004  1  0.91118300  0.37006900  0.61875300  1
  C  2005  1  0.90270900  0.37945600  0.63056800  1
  C  2008  1  0.88455800  0.37775500  0.63358000  1
  C  2009  1  0.87555700  0.38691800  0.64530600  1
  C  2010  1  0.85743300  0.38467600  0.64779500  1
  C  2017  1  0.98770700  0.37851100  0.96251100  1
  C  2018  1  0.97495300  0.37213000  0.97304200  1
  C  2020  1  0.99091000  0.38007500  0.99664500  1
  C  2021  1  0.00432700  0.38671700  0.98674200  1
  C  2022  1  0.00245900  0.38587200  0.96974300  1
  C  2024  1  0.99231200  0.38065900  0.01370000  1
  C  2025  1  0.98057600  0.37447900  0.03990300  1
  C  2026  1  0.99513000  0.38131400  0.04790300  1
  C  2027  1  0.00841500  0.38791900  0.03805100  1
  C  2030  1  0.00727500  0.38779900  0.02100800  1
  C  2031  1  0.02055300  0.39435800  0.01108300  1
  C  2032  1  0.01907200  0.39387000  0.99418900  1
  C  2039  1  0.48771200  0.11224400  0.04713300  1
  C  2040  1  0.47496000  0.11862700  0.03660100  1
  C  2042  1  0.49091600  0.11067700  0.01299900  1
  C  2043  1  0.50433000  0.10403300  0.02290200  1
  C  2044  1  0.50246200  0.10487800  0.03990100  1
  C  2046  1  0.49231800  0.11009300  0.99594400  1
  C  2047  1  0.48058800  0.11628100  0.96974000  1
  C  2048  1  0.49514500  0.10945000  0.96174100  1
  C  2049  1  0.50842500  0.10283900  0.97159400  1
  C  2052  1  0.50728100  0.10295300  0.98863600  1
  C  2053  1  0.52055700  0.09639000  0.99856100  1
  C  2054  1  0.51907400  0.09687800  0.01545600  1
  C  2061  1  0.23777000  0.28767500  0.13706500  1
  C  2062  1  0.22512700  0.27712300  0.13051100  1
  C  2064  1  0.24097100  0.25348700  0.13865700  1
  C  2065  1  0.25426600  0.26341100  0.14548800  1
  C  2066  1  0.25239900  0.28044600  0.14462500  1
  C  2068  1  0.24235200  0.23639900  0.13926900  1
  C  2069  1  0.23069800  0.21015500  0.13292300  1
  C  2070  1  0.24509100  0.20213500  0.14001300  1
  C  2071  1  0.25827400  0.21198800  0.14680500  1
  C  2074  1  0.25716900  0.22907100  0.14664100  1
  C  2075  1  0.27033300  0.23901300  0.15338500  1
  C  2076  1  0.26887400  0.25595100  0.15285800  1
  C  2083  1  0.73777500  0.20307600  0.87256600  1
  C  2084  1  0.72513800  0.21362600  0.87912900  1
  C  2086  1  0.74097600  0.23726500  0.87097800  1
  C  2087  1  0.75426500  0.22734100  0.86413800  1
  C  2088  1  0.75240000  0.21030600  0.86500000  1
  C  2090  1  0.74235800  0.25435400  0.87036500  1
  C  2091  1  0.73070600  0.28059900  0.87671300  1
  C  2092  1  0.74509600  0.28861900  0.86961600  1
  C  2093  1  0.75827300  0.27876500  0.86281700  1
  C  2096  1  0.75716800  0.26168200  0.86298300  1
  C  2097  1  0.77032800  0.25174000  0.85623300  1
  C  2098  1  0.76886800  0.23480200  0.85676000  1
  C  2105  1  0.99481300  0.61129700  0.04712400  1
  C  2106  1  0.00750000  0.61770700  0.03654200  1
  C  2108  1  0.99144200  0.60974100  0.01300300  1
  C  2109  1  0.97809100  0.60306800  0.02295900  1
  C  2110  1  0.98004200  0.60391000  0.03995000  1
  C  2112  1  0.98995300  0.60916300  0.99595500  1
  C  2113  1  0.00154000  0.61538600  0.96970600  1
  C  2114  1  0.98696100  0.60852700  0.96176400  1
  C  2115  1  0.97374100  0.60189000  0.97166800  1
  C  2118  1  0.97496900  0.60200200  0.98870600  1
  C  2119  1  0.96175800  0.59541100  0.99868400  1
  C  2120  1  0.96332400  0.59589300  0.01557200  1
  C  2127  1  0.49482000  0.87946400  0.96251200  1
  C  2128  1  0.50750400  0.87304800  0.97309600  1
  C  2130  1  0.49145000  0.88102500  0.99663400  1
  C  2131  1  0.47810300  0.88770400  0.98667800  1
  C  2132  1  0.48005400  0.88686100  0.96968700  1
  C  2134  1  0.48996300  0.88160500  0.01368300  1
  C  2135  1  0.50154200  0.87537700  0.03993300  1
  C  2136  1  0.48696100  0.88223400  0.04787500  1
  C  2137  1  0.47374800  0.88887800  0.03796900  1
  C  2140  1  0.47498100  0.88877300  0.02093100  1
  C  2141  1  0.46177400  0.89537000  0.01095200  1
  C  2142  1  0.46334100  0.89488800  0.99406400  1
  C  2149  1  0.74473000  0.70312100  0.87215400  1
  C  2150  1  0.75733600  0.71371700  0.87869700  1
  C  2152  1  0.74139800  0.73730700  0.87055300  1
  C  2153  1  0.72812600  0.72733800  0.86375000  1
  C  2154  1  0.73006100  0.71030800  0.86461500  1
  C  2156  1  0.73993400  0.75439300  0.86995400  1
  C  2157  1  0.75148500  0.78067800  0.87628400  1
  C  2158  1  0.73702000  0.78865500  0.86926000  1
  C  2159  1  0.72385600  0.77875200  0.86251200  1
  C  2162  1  0.72505400  0.76167000  0.86264100  1
  C  2163  1  0.71191500  0.75168200  0.85592500  1
  C  2164  1  0.71345900  0.73474900  0.85642700  1
  C  2171  1  0.24472300  0.78763200  0.13745600  1
  C  2172  1  0.25731400  0.77703500  0.13089300  1
  C  2174  1  0.24138900  0.75344800  0.13906500  1
  C  2175  1  0.22813300  0.76341900  0.14589000  1
  C  2176  1  0.23006800  0.78044800  0.14502200  1
  C  2178  1  0.23992500  0.73636300  0.13966800  1
  C  2179  1  0.25146500  0.71007800  0.13332600  1
  C  2180  1  0.23701000  0.70210300  0.14036900  1
  C  2181  1  0.22386100  0.71200800  0.14713900  1
  C  2184  1  0.22505900  0.72908600  0.14700800  1
  C  2185  1  0.21193400  0.73907800  0.15374400  1
  C  2186  1  0.21347900  0.75600900  0.15323800  1
  C  2193  1  0.48760900  0.87944000  0.46250300  1
  C  2194  1  0.47491000  0.87301300  0.47306500  1
  C  2196  1  0.49091700  0.88098900  0.49663200  1
  C  2197  1  0.50428000  0.88767400  0.48669800  1
  C  2198  1  0.50236000  0.88683600  0.46970300  1
  C  2200  1  0.49237600  0.88156400  0.51368400  1
  C  2201  1  0.48075200  0.87533300  0.53991700  1
  C  2202  1  0.49530900  0.88220100  0.54788200  1
  C  2203  1  0.50854300  0.88884300  0.53799600  1
  C  2206  1  0.50734400  0.88873300  0.52095600  1
  C  2207  1  0.52056700  0.89533500  0.51099900  1
  C  2208  1  0.51902800  0.89485800  0.49410800  1
  C  2215  1  0.98759100  0.61132700  0.54712000  1
  C  2216  1  0.97489000  0.61774300  0.53655600  1
  C  2218  1  0.99090600  0.60977400  0.51299200  1
  C  2219  1  0.00427200  0.60309700  0.52292900  1
  C  2220  1  0.00234800  0.60393600  0.53992400  1
  C  2222  1  0.99236800  0.60919700  0.49594100  1
  C  2223  1  0.98074100  0.61541600  0.46970700  1
  C  2224  1  0.99531200  0.60856700  0.46174400  1
  C  2225  1  0.00854800  0.60193100  0.47163300  1
  C  2228  1  0.00734200  0.60203600  0.48867200  1
  C  2229  1  0.02056800  0.59544200  0.49863300  1
  C  2230  1  0.01902600  0.59592000  0.51552300  1
  C  2237  1  0.73757700  0.78761700  0.63916300  1
  C  2238  1  0.72502900  0.77702300  0.63252900  1
  C  2240  1  0.74090500  0.75344600  0.64079100  1
  C  2241  1  0.75410500  0.76341500  0.64770800  1
  C  2242  1  0.75217600  0.78044300  0.64682600  1
  C  2244  1  0.74235400  0.73636200  0.64141600  1
  C  2245  1  0.73085800  0.71008300  0.63499100  1
  C  2246  1  0.74523100  0.70211300  0.64217200  1
  C  2247  1  0.75832200  0.71200900  0.64904700  1
  C  2250  1  0.75714500  0.72908800  0.64888200  1
  C  2251  1  0.77021400  0.73907600  0.65571000  1
  C  2252  1  0.76868600  0.75600900  0.65517600  1
  C  2259  1  0.23759700  0.70312300  0.37047500  1
  C  2260  1  0.22505600  0.71372000  0.37711800  1
  C  2262  1  0.24092900  0.73729800  0.36885100  1
  C  2263  1  0.25412300  0.72732600  0.36192700  1
  C  2264  1  0.25219200  0.71029800  0.36280900  1
  C  2266  1  0.24238100  0.75438200  0.36822800  1
  C  2267  1  0.23089000  0.78066500  0.37465000  1
  C  2268  1  0.24526200  0.78863300  0.36746600  1
  C  2269  1  0.25834600  0.77873400  0.36058400  1
  C  2272  1  0.25716600  0.76165500  0.36075300  1
  C  2273  1  0.27023000  0.75166500  0.35391700  1
  C  2274  1  0.26870100  0.73473200  0.35445300  1
  C  2281  1  0.49483000  0.11260100  0.54711700  1
  C  2282  1  0.50748000  0.11905700  0.53652300  1
  C  2284  1  0.49142800  0.11104500  0.51299300  1
  C  2285  1  0.47811300  0.10432800  0.52296100  1
  C  2286  1  0.48008100  0.10517100  0.53995000  1
  C  2288  1  0.48992300  0.11046400  0.49594500  1
  C  2289  1  0.50145900  0.11671300  0.46968300  1
  C  2290  1  0.48689600  0.10981100  0.46175200  1
  C  2291  1  0.47371100  0.10313700  0.47167300  1
  C  2294  1  0.47495600  0.10325500  0.48870900  1
  C  2295  1  0.46178200  0.09662200  0.49869900  1
  C  2296  1  0.46336500  0.09710600  0.51558600  1
  C  2303  1  0.99484900  0.37815800  0.46252700  1
  C  2304  1  0.00750600  0.37171800  0.47312200  1
  C  2306  1  0.99144200  0.37971800  0.49664900  1
  C  2307  1  0.97812100  0.38642100  0.48668000  1
  C  2308  1  0.98009100  0.38557700  0.46969000  1
  C  2310  1  0.98993500  0.38029900  0.51369600  1
  C  2311  1  0.00147200  0.37406200  0.53996100  1
  C  2312  1  0.98689700  0.38094400  0.54788900  1
  C  2313  1  0.97370700  0.38760500  0.53796800  1
  C  2316  1  0.97495800  0.38749300  0.52093000  1
  C  2317  1  0.96177600  0.39411200  0.51093900  1
  C  2318  1  0.96336200  0.39362700  0.49405100  1
  C  2325  1  0.24477300  0.20307600  0.36988700  1
  C  2326  1  0.25736000  0.21368300  0.37644400  1
  C  2328  1  0.24140100  0.23725300  0.36828500  1
  C  2329  1  0.22814900  0.22727300  0.36146900  1
  C  2330  1  0.23010300  0.21024600  0.36233300  1
  C  2332  1  0.23991700  0.25433600  0.36769100  1
  C  2333  1  0.25143000  0.28062700  0.37405100  1
  C  2334  1  0.23695900  0.28859000  0.36702400  1
  C  2335  1  0.22381400  0.27868000  0.36025800  1
  C  2338  1  0.22503500  0.26160100  0.36037200  1
  C  2339  1  0.21191600  0.25160200  0.35364000  1
  C  2340  1  0.21348100  0.23467000  0.35413500  1
  C  2347  1  0.74476900  0.28768800  0.63970600  1
  C  2348  1  0.75733600  0.27707900  0.63312400  1
  C  2350  1  0.74139100  0.25351500  0.64131900  1
  C  2351  1  0.72815900  0.26349700  0.64816300  1
  C  2352  1  0.73011400  0.28052400  0.64729300  1
  C  2354  1  0.73990300  0.23643200  0.64191700  1
  C  2355  1  0.75139900  0.21014200  0.63553900  1
  C  2356  1  0.73694000  0.20218200  0.64259000  1
  C  2357  1  0.72381300  0.21209400  0.64938400  1
  C  2360  1  0.72503700  0.22917100  0.64926800  1
  C  2361  1  0.71193600  0.23917400  0.65602500  1
  C  2362  1  0.71350500  0.25610500  0.65552500  1
  N  17  1  0.98541000  0.36086900  0.85766000  1
  N  18  1  0.01042800  0.38547200  0.90227600  1
  N  47  1  0.48539400  0.12988200  0.15196900  1
  N  48  1  0.51043500  0.10529400  0.10737100  1
  N  77  1  0.23281500  0.39327200  0.12083400  1
  N  78  1  0.26041300  0.34802600  0.14332800  1
  N  107  1  0.73284600  0.09748100  0.88879700  1
  N  108  1  0.76042000  0.14271900  0.86629900  1
  N  137  1  0.49691300  0.13014900  0.85733200  1
  N  138  1  0.47187900  0.10564900  0.90225200  1
  N  167  1  0.99691000  0.36060800  0.15229500  1
  N  168  1  0.97187300  0.38511000  0.10739300  1
  N  197  1  0.24943100  0.09699600  0.12046600  1
  N  198  1  0.22184200  0.14247400  0.14289300  1
  N  227  1  0.74942500  0.39376700  0.88916900  1
  N  228  1  0.72184000  0.34828400  0.86674400  1
  N  257  1  0.99742500  0.62887300  0.15197200  1
  N  258  1  0.97230800  0.60433000  0.10738900  1
  N  287  1  0.49743300  0.86189200  0.85767500  1
  N  288  1  0.47231100  0.88642500  0.90224600  1
  N  317  1  0.74629800  0.59810200  0.88935700  1
  N  318  1  0.72210900  0.64294400  0.86470000  1
  N  347  1  0.24626800  0.89263700  0.12025600  1
  N  348  1  0.22211000  0.84780400  0.14491900  1
  N  377  1  0.48499300  0.86158600  0.15229000  1
  N  378  1  0.51000000  0.88611300  0.10738800  1
  N  407  1  0.98499600  0.62916100  0.85736200  1
  N  408  1  0.00999600  0.60464300  0.90225500  1
  N  437  1  0.73617500  0.89322000  0.88958200  1
  N  438  1  0.76025500  0.84803600  0.86506300  1
  N  467  1  0.23620000  0.59754600  0.12003800  1
  N  468  1  0.26024500  0.64273300  0.14457000  1
  N  497  1  0.48554700  0.86190900  0.35765700  1
  N  498  1  0.51022900  0.88666100  0.40229600  1
  N  527  1  0.98547600  0.62884300  0.65195000  1
  N  528  1  0.01021000  0.60413800  0.60733000  1
  N  557  1  0.73282100  0.89315000  0.62278500  1
  N  558  1  0.76004400  0.84796500  0.64560000  1
  N  587  1  0.23273900  0.59757900  0.38683200  1
  N  588  1  0.26005200  0.64275900  0.36406900  1
  N  617  1  0.99670100  0.62912100  0.35733500  1
  N  618  1  0.97214300  0.60442700  0.40231700  1
  N  647  1  0.49671400  0.86163900  0.65228000  1
  N  648  1  0.47214600  0.88632500  0.60731300  1
  N  677  1  0.74966500  0.59699400  0.62265700  1
  N  678  1  0.72216600  0.64245800  0.64516600  1
  N  707  1  0.24970200  0.89376400  0.38698400  1
  N  708  1  0.22219500  0.84829700  0.36448100  1
  N  737  1  0.49700500  0.13006400  0.65196700  1
  N  738  1  0.47231700  0.10537900  0.60733100  1
  N  767  1  0.99704600  0.36070000  0.35769000  1
  N  768  1  0.97233200  0.38535400  0.40230900  1
  N  797  1  0.24655300  0.09806500  0.38713600  1
  N  798  1  0.22230600  0.14285200  0.36237500  1
  N  827  1  0.74652300  0.39268200  0.62247200  1
  N  828  1  0.72232100  0.34790300  0.64724300  1
  N  857  1  0.98530400  0.36046300  0.65230600  1
  N  858  1  0.00999000  0.38499800  0.60734000  1
  N  887  1  0.48528400  0.13029600  0.35735000  1
  N  888  1  0.50998500  0.10578200  0.40230300  1
  N  917  1  0.23579900  0.39313500  0.38748100  1
  N  918  1  0.25999700  0.34802600  0.36281600  1
  N  947  1  0.73578800  0.09765500  0.62211500  1
  N  948  1  0.75997200  0.14275800  0.64678600  1
  N  963  1  0.99414200  0.37064700  0.77235700  1
  N  973  1  0.99411200  0.37060900  0.73747900  1
  N  981  1  0.98811700  0.38476500  0.81393300  1
  N  982  1  0.98798200  0.38462800  0.69587700  1
  N  985  1  0.49405800  0.12014400  0.23728500  1
  N  995  1  0.49403000  0.12018000  0.27216600  1
  N  1003  1  0.48816700  0.10597600  0.19570900  1
  N  1004  1  0.48803600  0.10611400  0.31376900  1
  N  1007  1  0.25110500  0.47852600  0.13105000  1
  N  1017  1  0.24926400  0.51308400  0.13125500  1
  N  1025  1  0.24462600  0.43657800  0.14200800  1
  N  1026  1  0.23790300  0.55418600  0.14372400  1
  N  1029  1  0.75123900  0.01221700  0.87856200  1
  N  1039  1  0.74936500  0.97766300  0.87834300  1
  N  1047  1  0.74472800  0.05418000  0.86770000  1
  N  1048  1  0.73789700  0.93657700  0.86590900  1
  N  1051  1  0.48812500  0.12014200  0.77212800  1
  N  1061  1  0.48820900  0.12014000  0.73725000  1
  N  1069  1  0.49415500  0.10609800  0.81373200  1
  N  1070  1  0.49444600  0.10608800  0.69567700  1
  N  1073  1  0.98822000  0.37057900  0.23751400  1
  N  1083  1  0.98830800  0.37058300  0.27239500  1
  N  1091  1  0.99410400  0.38467600  0.19590800  1
  N  1092  1  0.99439500  0.38469200  0.31396800  1
  N  1095  1  0.23148300  0.01181500  0.13082200  1
  N  1105  1  0.23335500  0.97724600  0.13106900  1
  N  1113  1  0.23770900  0.05377100  0.14191700  1
  N  1114  1  0.24453100  0.93616600  0.14374900  1
  N  1117  1  0.73132300  0.47895600  0.87878400  1
  N  1127  1  0.73323600  0.51351800  0.87851900  1
  N  1135  1  0.73759800  0.43698000  0.86781400  1
  N  1136  1  0.74454300  0.55457900  0.86587900  1
  N  1139  1  0.98841200  0.61904800  0.23727200  1
  N  1149  1  0.98832000  0.61903400  0.27214900  1
  N  1157  1  0.99449000  0.60495700  0.19569400  1
  N  1158  1  0.99424800  0.60493800  0.31375100  1
  N  1161  1  0.48848400  0.87168500  0.77236200  1
  N  1171  1  0.48839400  0.87169700  0.73748100  1
  N  1179  1  0.49444200  0.88582100  0.81394000  1
  N  1180  1  0.49419500  0.88583800  0.69587700  1
  N  1183  1  0.49401100  0.87169800  0.23748300  1
  N  1193  1  0.49405100  0.87175500  0.27236000  1
  N  1201  1  0.48786600  0.88568800  0.19587600  1
  N  1202  1  0.48795400  0.88586300  0.31393200  1
  N  1205  1  0.99378800  0.61912900  0.77215200  1
  N  1215  1  0.99381800  0.61907700  0.73727000  1
  N  1223  1  0.98799100  0.60500900  0.81376000  1
  N  1224  1  0.98805300  0.60484600  0.69569700  1
  N  1227  1  0.74952500  0.97845000  0.63265000  1
  N  1237  1  0.74786200  0.01305200  0.63285200  1
  N  1245  1  0.74387600  0.93662500  0.64457600  1
  N  1246  1  0.73760700  0.05424200  0.64590300  1
  N  1249  1  0.24993000  0.51227600  0.37690300  1
  N  1259  1  0.24819200  0.47768700  0.37665900  1
  N  1267  1  0.24406300  0.55415400  0.36530200  1
  N  1268  1  0.23761200  0.43653700  0.36372100  1
  N  1271  1  0.73176600  0.51184700  0.63308300  1
  N  1281  1  0.73363600  0.47728500  0.63331600  1
  N  1289  1  0.73803100  0.55379700  0.64416800  1
  N  1290  1  0.74483400  0.43620400  0.64596000  1
  N  1293  1  0.23162700  0.97892200  0.37652800  1
  N  1303  1  0.23352700  0.01348000  0.37627400  1
  N  1311  1  0.23795100  0.93695000  0.36556600  1
  N  1312  1  0.24484100  0.05454400  0.36366400  1
  N  1315  1  0.99372200  0.51187400  0.87738300  1
  N  1325  1  0.99386900  0.47815800  0.87735900  1
  N  1333  1  0.99207200  0.55326700  0.86468800  1
  N  1334  1  0.99252200  0.43677200  0.86463400  1
  N  1337  1  0.49375200  0.97887400  0.13227900  1
  N  1347  1  0.49390900  0.01259000  0.13229700  1
  N  1355  1  0.49210300  0.93748200  0.14498100  1
  N  1356  1  0.49258800  0.05397800  0.14501300  1
  N  1359  1  0.24417900  0.37258600  0.27040800  1
  N  1369  1  0.24494300  0.37252100  0.23680200  1
  N  1377  1  0.24174000  0.38541800  0.31162400  1
  N  1378  1  0.24381600  0.38519000  0.19550500  1
  N  1381  1  0.74426700  0.11821400  0.73919900  1
  N  1391  1  0.74502700  0.11827000  0.77280900  1
  N  1399  1  0.74171700  0.10539200  0.69798100  1
  N  1400  1  0.74378900  0.10558800  0.81410400  1
  N  1403  1  0.48840600  0.97918600  0.87733600  1
  N  1413  1  0.48834400  0.01290100  0.87731600  1
  N  1421  1  0.48999900  0.93779000  0.86466000  1
  N  1422  1  0.48977000  0.05428400  0.86457900  1
  N  1425  1  0.98842200  0.51157700  0.13230300  1
  N  1435  1  0.98835300  0.47786200  0.13232300  1
  N  1443  1  0.99001700  0.55297300  0.14498300  1
  N  1444  1  0.98975600  0.43648000  0.14505600  1
  N  1447  1  0.23806100  0.11814000  0.27001400  1
  N  1457  1  0.23741100  0.11814900  0.23640700  1
  N  1465  1  0.24041100  0.10539400  0.31125600  1
  N  1466  1  0.23863900  0.10539900  0.19513600  1
  N  1469  1  0.73798200  0.37257400  0.73961100  1
  N  1479  1  0.73731800  0.37257300  0.77322100  1
  N  1487  1  0.74045900  0.38531500  0.69837000  1
  N  1488  1  0.73864000  0.38533300  0.81449100  1
  N  1491  1  0.73745000  0.61827200  0.73865100  1
  N  1501  1  0.73790700  0.61826600  0.77226100  1
  N  1509  1  0.73910800  0.60553300  0.69738300  1
  N  1510  1  0.74027600  0.60553900  0.81351000  1
  N  1513  1  0.23736800  0.87244800  0.27098400  1
  N  1523  1  0.23781800  0.87245000  0.23737000  1
  N  1531  1  0.23913100  0.88519700  0.31225100  1
  N  1532  1  0.24026700  0.88517100  0.19612100  1
  N  1535  1  0.74482200  0.87241700  0.73893700  1
  N  1545  1  0.74436500  0.87251000  0.77254700  1
  N  1553  1  0.74315600  0.88503700  0.69763400  1
  N  1554  1  0.74200200  0.88535600  0.81376200  1
  N  1557  1  0.24496200  0.61835500  0.27070400  1
  N  1567  1  0.24449000  0.61827700  0.23709100  1
  N  1575  1  0.24317900  0.60572400  0.31200200  1
  N  1576  1  0.24200400  0.60544500  0.19587300  1
  N  1579  1  0.49386600  0.01298600  0.37768400  1
  N  1589  1  0.49391900  0.97926900  0.37766400  1
  N  1597  1  0.49166800  0.05437900  0.36503300  1
  N  1598  1  0.49183400  0.93788400  0.36498600  1
  N  1601  1  0.99385700  0.47777300  0.63195300  1
  N  1611  1  0.99392900  0.51148900  0.63196400  1
  N  1619  1  0.99165300  0.43638400  0.64461900  1
  N  1620  1  0.99186900  0.55287800  0.64462900  1
  N  1623  1  0.98851800  0.47806000  0.37771700  1
  N  1633  1  0.98853400  0.51177900  0.37771000  1
  N  1641  1  0.99065800  0.43666800  0.36506800  1
  N  1642  1  0.99067500  0.55316300  0.36502600  1
  N  1645  1  0.48851700  0.01270600  0.63192200  1
  N  1655  1  0.48852400  0.97898700  0.63192000  1
  N  1663  1  0.49068900  0.05409400  0.64457700  1
  N  1664  1  0.49067000  0.93759800  0.64459300  1
  N  1667  1  0.88406900  0.35819900  0.89739100  1
  N  1677  1  0.84854500  0.35381100  0.89293000  1
  N  1685  1  0.92859500  0.37314800  0.89331900  1
  N  1686  1  0.80417200  0.35756400  0.87755200  1
  N  1689  1  0.38407600  0.13258400  0.11225600  1
  N  1699  1  0.34855200  0.13698400  0.11671600  1
  N  1707  1  0.42859200  0.11761000  0.11632100  1
  N  1708  1  0.30417300  0.13322900  0.13207900  1
  N  1711  1  0.13366000  0.35302100  0.11750600  1
  N  1721  1  0.09814600  0.35741300  0.11296900  1
  N  1729  1  0.17808600  0.35715200  0.13265000  1
  N  1730  1  0.05370300  0.37269200  0.11658500  1
  N  1733  1  0.63367200  0.13769400  0.89212100  1
  N  1743  1  0.59815700  0.13330700  0.89665700  1
  N  1751  1  0.67809600  0.13356700  0.87697200  1
  N  1752  1  0.55371000  0.11803800  0.89303800  1
  N  1755  1  0.09855000  0.63223000  0.11212000  1
  N  1765  1  0.13409000  0.63685800  0.11644200  1
  N  1773  1  0.05419400  0.61684500  0.11624600  1
  N  1774  1  0.17861100  0.63319200  0.13150800  1
  N  1777  1  0.59855300  0.85851400  0.89749700  1
  N  1787  1  0.63409000  0.85387900  0.89316300  1
  N  1795  1  0.55420000  0.87391500  0.89339000  1
  N  1796  1  0.67861000  0.85754600  0.87808900  1
  N  1799  1  0.84824300  0.63743500  0.89276900  1
  N  1809  1  0.88377800  0.63284600  0.89718600  1
  N  1817  1  0.80379400  0.63371500  0.87755500  1
  N  1818  1  0.92818300  0.61753600  0.89316300  1
  N  1821  1  0.34824100  0.85335400  0.11686100  1
  N  1831  1  0.38377500  0.85794700  0.11245500  1
  N  1839  1  0.30378600  0.85706200  0.13206200  1
  N  1840  1  0.42818100  0.87325300  0.11649200  1
  N  1843  1  0.38413400  0.85850700  0.39657800  1
  N  1853  1  0.34867900  0.85392800  0.39169600  1
  N  1861  1  0.42855100  0.87386800  0.39315700  1
  N  1862  1  0.30443100  0.85771500  0.37602000  1
  N  1865  1  0.88409500  0.63224400  0.61304000  1
  N  1875  1  0.84864400  0.63683500  0.61792300  1
  N  1883  1  0.92850800  0.61687200  0.61646400  1
  N  1884  1  0.80439500  0.63305700  0.63360100  1
  N  1887  1  0.63374800  0.85352200  0.61817900  1
  N  1897  1  0.59829900  0.85807300  0.61320700  1
  N  1905  1  0.67783800  0.85707400  0.63425300  1
  N  1906  1  0.55374500  0.87308300  0.61681700  1
  N  1909  1  0.13374400  0.63721000  0.39141400  1
  N  1919  1  0.09829300  0.63266800  0.39639300  1
  N  1927  1  0.17782900  0.63364400  0.37533800  1
  N  1928  1  0.05373500  0.61766800  0.39279500  1
  N  1931  1  0.59860000  0.13298900  0.61262100  1
  N  1941  1  0.63412100  0.13738200  0.61736600  1
  N  1949  1  0.55405500  0.11798300  0.61634600  1
  N  1950  1  0.67838200  0.13347600  0.63302200  1
  N  1953  1  0.09863000  0.35778700  0.39700600  1
  N  1963  1  0.13414900  0.35338800  0.39224700  1
  N  1971  1  0.05408700  0.37279900  0.39329700  1
  N  1972  1  0.17840300  0.35728900  0.37657200  1
  N  1975  1  0.34813100  0.13771400  0.39171700  1
  N  1985  1  0.38364400  0.13336700  0.39655900  1
  N  1993  1  0.30395300  0.13377800  0.37589000  1
  N  1994  1  0.42824400  0.11845800  0.39294500  1
  N  1997  1  0.84814200  0.35305200  0.61790500  1
  N  2007  1  0.88365600  0.35739700  0.61307600  1
  N  2015  1  0.80395700  0.35698800  0.63371400  1
  N  2016  1  0.92825800  0.37230300  0.61670500  1
  N  2019  1  0.97689700  0.37311200  0.98927500  1
  N  2029  1  0.97973500  0.37436400  0.02352600  1
  N  2037  1  0.98484400  0.37721000  0.94660400  1
  N  2038  1  0.99788500  0.38100900  0.06387600  1
  N  2041  1  0.47690200  0.11764400  0.02036800  1
  N  2051  1  0.47974200  0.11639000  0.98611800  1
  N  2059  1  0.48485000  0.11354800  0.06303900  1
  N  2060  1  0.49789700  0.10975700  0.94576800  1
  N  2063  1  0.22706800  0.26085500  0.13151000  1
  N  2073  1  0.22988200  0.22657000  0.13278600  1
  N  2081  1  0.23483600  0.30359900  0.13585700  1
  N  2082  1  0.24783100  0.18613600  0.13977800  1
  N  2085  1  0.72707900  0.22989500  0.87813300  1
  N  2095  1  0.72989200  0.26418400  0.87685300  1
  N  2103  1  0.73484800  0.18714900  0.87378100  1
  N  2104  1  0.74783300  0.30461800  0.86984300  1
  N  2107  1  0.00547700  0.61672900  0.02031700  1
  N  2117  1  0.00246600  0.61548800  0.98607900  1
  N  2125  1  0.99775100  0.61260000  0.06302000  1
  N  2126  1  0.98412700  0.60883500  0.94580100  1
  N  2129  1  0.50548200  0.87403000  0.98932100  1
  N  2139  1  0.50247100  0.87527500  0.02356000  1
  N  2147  1  0.49775600  0.87815700  0.94661600  1
  N  2148  1  0.48412900  0.88192300  0.06383700  1
  N  2151  1  0.75533600  0.72998200  0.87768900  1
  N  2161  1  0.75238200  0.76426600  0.87640400  1
  N  2169  1  0.74763600  0.68719400  0.87349100  1
  N  2170  1  0.73420900  0.80465000  0.86954900  1
  N  2173  1  0.25531300  0.76077200  0.13190600  1
  N  2183  1  0.25236000  0.72648900  0.13319900  1
  N  2191  1  0.24762500  0.80355900  0.13610800  1
  N  2192  1  0.23419600  0.68610900  0.14008500  1
  N  2195  1  0.47690200  0.87399100  0.48929400  1
  N  2205  1  0.47985100  0.87523100  0.52354200  1
  N  2213  1  0.48471200  0.87812800  0.44660000  1
  N  2214  1  0.49811200  0.88189600  0.56385100  1
  N  2217  1  0.97688600  0.61676400  0.52032700  1
  N  2227  1  0.97984000  0.61551900  0.48608100  1
  N  2235  1  0.98469200  0.61264000  0.56302100  1
  N  2236  1  0.99811400  0.60887600  0.44577700  1
  N  2239  1  0.72702900  0.76076100  0.63354800  1
  N  2249  1  0.72997400  0.72649400  0.63485200  1
  N  2257  1  0.73460100  0.80353200  0.63791200  1
  N  2258  1  0.74804000  0.68612500  0.64193900  1
  N  2261  1  0.22705700  0.72998200  0.37610200  1
  N  2271  1  0.23000600  0.76425400  0.37479700  1
  N  2279  1  0.23462200  0.68720600  0.37172900  1
  N  2280  1  0.24807000  0.80462300  0.36769000  1
  N  2283  1  0.50544400  0.11807600  0.52029800  1
  N  2293  1  0.50240100  0.11682500  0.48605600  1
  N  2301  1  0.49777100  0.11391600  0.56301400  1
  N  2302  1  0.48405200  0.11009400  0.44578900  1
  N  2305  1  0.00546700  0.37270100  0.48934600  1
  N  2315  1  0.00242000  0.37395400  0.52358800  1
  N  2323  1  0.99779200  0.37684100  0.44663000  1
  N  2324  1  0.98405500  0.38065800  0.56385200  1
  N  2327  1  0.25534100  0.22994300  0.37543400  1
  N  2337  1  0.25234700  0.26421700  0.37415900  1
  N  2345  1  0.24769400  0.18715500  0.37123700  1
  N  2346  1  0.23411500  0.30457900  0.36735100  1
  N  2349  1  0.75531400  0.26081900  0.63413900  1
  N  2359  1  0.75231600  0.22655200  0.63542500  1
  N  2367  1  0.74768600  0.30360800  0.63834400  1
  N  2368  1  0.73409100  0.18619600  0.64226900  1
  O  979  1  0.96363600  0.42112500  0.73869700  1
  O  980  1  0.96366700  0.42116100  0.77107700  1
  O  1001  1  0.46415100  0.06936500  0.27094700  1
  O  1002  1  0.46417500  0.06933300  0.23856600  1
  O  1023  1  0.20241500  0.50963400  0.16952500  1
  O  1024  1  0.20352600  0.47713100  0.16867400  1
  O  1045  1  0.70221500  0.98117400  0.84039200  1
  O  1046  1  0.70335300  0.01367800  0.84126700  1
  O  1067  1  0.51895200  0.06976500  0.73856400  1
  O  1068  1  0.51887000  0.06976400  0.77094500  1
  O  1089  1  0.01839400  0.42129200  0.27107500  1
  O  1090  1  0.01831600  0.42128800  0.23869500  1
  O  1111  1  0.27941500  0.98075400  0.17013000  1
  O  1112  1  0.27827000  0.01325600  0.16926900  1
  O  1133  1  0.77967300  0.50993300  0.83984200  1
  O  1134  1  0.77849600  0.47743300  0.84073700  1
  O  1155  1  0.01842000  0.56832900  0.27094700  1
  O  1156  1  0.01849500  0.56833600  0.23856600  1
  O  1177  1  0.51794200  0.92267600  0.73868600  1
  O  1178  1  0.51802200  0.92266700  0.77106500  1
  O  1199  1  0.46336900  0.92216100  0.27106000  1
  O  1200  1  0.46334800  0.92211600  0.23867900  1
  O  1221  1  0.96469300  0.56789500  0.73857500  1
  O  1222  1  0.96468600  0.56793400  0.77095500  1
  O  1243  1  0.70452500  0.00992700  0.67448400  1
  O  1244  1  0.70552800  0.97742300  0.67379600  1
  O  1265  1  0.20385300  0.48097800  0.33594000  1
  O  1266  1  0.20488800  0.51348100  0.33672900  1
  O  1287  1  0.77979500  0.48077500  0.67228300  1
  O  1288  1  0.77865100  0.51327700  0.67143200  1
  O  1309  1  0.28004700  0.00992200  0.33767700  1
  O  1310  1  0.27888300  0.97742100  0.33856400  1
  O  1331  1  0.98856800  0.47873100  0.81972700  1
  O  1332  1  0.98842000  0.51134000  0.81975000  1
  O  1353  1  0.48876200  0.01202700  0.18994100  1
  O  1354  1  0.48860100  0.97941900  0.18992400  1
  O  1375  1  0.23818300  0.43018400  0.23710400  1
  O  1376  1  0.23735200  0.43023800  0.26961900  1
  O  1397  1  0.73791900  0.06064300  0.77249500  1
  O  1398  1  0.73708800  0.06059800  0.73998000  1
  O  1419  1  0.49349600  0.01231900  0.81967200  1
  O  1420  1  0.49355400  0.97971000  0.81969200  1
  O  1441  1  0.99347200  0.47844200  0.18997000  1
  O  1442  1  0.99354100  0.51105000  0.18994900  1
  O  1463  1  0.24413600  0.06048300  0.23682600  1
  O  1464  1  0.24484800  0.06048400  0.26934500  1
  O  1485  1  0.74440700  0.43020300  0.77279600  1
  O  1486  1  0.74513700  0.43019400  0.74027900  1
  O  1507  1  0.74599000  0.56075100  0.77161600  1
  O  1508  1  0.74547800  0.56074700  0.73909400  1
  O  1529  1  0.24619500  0.92993000  0.23801000  1
  O  1530  1  0.24569000  0.92994000  0.27053000  1
  O  1551  1  0.73624800  0.93002000  0.77175300  1
  O  1552  1  0.73676300  0.92994000  0.73923100  1
  O  1573  1  0.23598000  0.56081400  0.23787200  1
  O  1574  1  0.23650700  0.56088100  0.27039200  1
  O  1595  1  0.48441000  0.97984500  0.32048700  1
  O  1596  1  0.48435900  0.01245500  0.32050600  1
  O  1617  1  0.98447700  0.51093600  0.68915000  1
  O  1618  1  0.98440300  0.47832700  0.68913900  1
  O  1639  1  0.99819600  0.51120600  0.32055300  1
  O  1640  1  0.99817200  0.47859700  0.32056000  1
  O  1661  1  0.49826200  0.97954100  0.68906600  1
  O  1662  1  0.49825600  0.01215100  0.68906700  1
  O  1683  1  0.84920300  0.39396500  0.85124700  1
  O  1684  1  0.88411400  0.39835500  0.85570600  1
  O  1705  1  0.34917700  0.09678100  0.15835100  1
  O  1706  1  0.38408800  0.09238100  0.15389700  1
  O  1727  1  0.09851000  0.39928000  0.15294500  1
  O  1728  1  0.13340900  0.39489100  0.15747700  1
  O  1749  1  0.59850200  0.09148200  0.85663800  1
  O  1750  1  0.63340200  0.09586800  0.85210400  1
  O  1771  1  0.13408600  0.59614400  0.15758100  1
  O  1772  1  0.09918600  0.59154600  0.15328300  1
  O  1793  1  0.63409300  0.89463900  0.85206800  1
  O  1794  1  0.59919500  0.89924100  0.85637600  1
  O  1815  1  0.88330800  0.59210000  0.85608000  1
  O  1816  1  0.84841600  0.59665700  0.85169300  1
  O  1837  1  0.38330200  0.89864500  0.15360700  1
  O  1838  1  0.34840900  0.89408400  0.15798600  1
  O  1859  1  0.34935400  0.89511400  0.35103000  1
  O  1860  1  0.38416900  0.89968000  0.35588900  1
  O  1881  1  0.84929800  0.59562600  0.65856900  1
  O  1882  1  0.88411200  0.59105100  0.65371000  1
  O  1903  1  0.59767100  0.89788200  0.65522100  1
  O  1904  1  0.63247800  0.89335200  0.66015700  1
  O  1925  1  0.09763800  0.59287700  0.35436300  1
  O  1926  1  0.13244600  0.59739700  0.34942000  1
  O  1947  1  0.63319900  0.09673600  0.65856400  1
  O  1948  1  0.59832800  0.09237700  0.65386200  1
  O  1969  1  0.13322500  0.39406700  0.35108000  1
  O  1970  1  0.09835600  0.39843000  0.35579500  1
  O  1991  1  0.38410900  0.09273700  0.35533800  1
  O  1992  1  0.34924800  0.09705400  0.35053800  1
  O  2013  1  0.88412300  0.39797800  0.65434500  1
  O  2014  1  0.84925900  0.39366200  0.65913400  1
  O  2035  1  0.03501200  0.40123500  0.01759200  1
  O  2036  1  0.03215100  0.40030800  0.98523900  1
  O  2057  1  0.53501500  0.08951200  0.99205400  1
  O  2058  1  0.53215200  0.09043700  0.02440700  1
  O  2079  1  0.28465300  0.23248200  0.16048000  1
  O  2080  1  0.28182900  0.26492600  0.15948400  1
  O  2101  1  0.78464200  0.25827100  0.84912900  1
  O  2102  1  0.78182000  0.22582700  0.85012500  1
  O  2123  1  0.94728200  0.58850900  0.99223300  1
  O  2124  1  0.95030500  0.58942300  0.02457500  1
  O  2145  1  0.44730100  0.90227700  0.01740200  1
  O  2146  1  0.45032600  0.90136300  0.98506100  1
  O  2167  1  0.69753900  0.75816200  0.84888100  1
  O  2168  1  0.70051900  0.72573000  0.84983400  1
  O  2189  1  0.19757100  0.73259800  0.16081100  1
  O  2190  1  0.20055400  0.76503100  0.15985200  1
  O  2211  1  0.53502600  0.90224500  0.51747100  1
  O  2212  1  0.53205700  0.90133900  0.48512600  1
  O  2233  1  0.03503400  0.58854200  0.49216200  1
  O  2234  1  0.03205800  0.58944800  0.52450700  1
  O  2255  1  0.78450700  0.73259600  0.66289800  1
  O  2256  1  0.78155200  0.76503200  0.66188400  1
  O  2277  1  0.28451900  0.75814300  0.34672000  1
  O  2278  1  0.28156100  0.72570800  0.34773400  1
  O  2299  1  0.44732400  0.08967400  0.49226100  1
  O  2300  1  0.45038100  0.09059500  0.52460000  1
  O  2321  1  0.94730800  0.40104300  0.51737400  1
  O  2322  1  0.95037100  0.40012500  0.48503700  1
  O  2343  1  0.19753600  0.25807000  0.34659100  1
  O  2344  1  0.20055900  0.22563900  0.34752900  1
  O  2365  1  0.69757300  0.23270800  0.66310500  1
  O  2366  1  0.70060200  0.26513900  0.66215800  1
