# generated using pymatgen
data_H16C20N
_symmetry_space_group_name_H-M   'P 1'
_cell_length_a   48.94550000
_cell_length_b   49.13910000
_cell_length_c   82.84970000
_cell_angle_alpha   90.00000000
_cell_angle_beta   90.00000000
_cell_angle_gamma   90.00000000
_symmetry_Int_Tables_number   1
_chemical_formula_structural   H16C20N
_chemical_formula_sum   'H1024 C1280 N64'
_cell_volume   199264.94676695
_cell_formula_units_Z   64
loop_
 _symmetry_equiv_pos_site_id
 _symmetry_equiv_pos_as_xyz
  1  'x, y, z'
loop_
 _atom_site_type_symbol
 _atom_site_label
 _atom_site_symmetry_multiplicity
 _atom_site_fract_x
 _atom_site_fract_y
 _atom_site_fract_z
 _atom_site_occupancy
  H  7  1  0.21296200  0.08057500  0.09852000  1
  H  8  1  0.24661300  0.02386700  0.06629000  1
  H  15  1  0.12652400  0.16076100  0.08555200  1
  H  16  1  0.20641600  0.13624900  0.07502500  1
  H  19  1  0.17263200  0.09936700  0.04812900  1
  H  20  1  0.18657400  0.07791600  0.03533500  1
  H  21  1  0.12669600  0.06504600  0.09018400  1
  H  22  1  0.15742900  0.05540700  0.08469700  1
  H  29  1  0.34629200  0.92184800  0.59853000  1
  H  30  1  0.31265200  0.97861400  0.56632600  1
  H  37  1  0.43270600  0.84166200  0.58555200  1
  H  38  1  0.35282300  0.86621800  0.57502600  1
  H  41  1  0.38662800  0.90312600  0.54813000  1
  H  42  1  0.37270100  0.92460400  0.53534700  1
  H  43  1  0.43258200  0.93738000  0.59018800  1
  H  44  1  0.40184900  0.94703400  0.58470800  1
  H  51  1  0.19865000  0.93455900  0.34806700  1
  H  52  1  0.25545400  0.96871100  0.31600900  1
  H  59  1  0.12141800  0.84546900  0.33539800  1
  H  60  1  0.14270500  0.92523900  0.32301000  1
  H  63  1  0.18104500  0.89374400  0.29768400  1
  H  64  1  0.20243400  0.90796500  0.28493700  1
  H  65  1  0.21692500  0.85098400  0.34222000  1
  H  66  1  0.22553700  0.88146700  0.33591700  1
  H  73  1  0.36060800  0.06789500  0.84804300  1
  H  74  1  0.30388700  0.03371200  0.81594500  1
  H  81  1  0.43783000  0.15701600  0.83541000  1
  H  82  1  0.41661900  0.07725100  0.82297600  1
  H  85  1  0.37825800  0.10874900  0.79766800  1
  H  86  1  0.35691800  0.09448700  0.78491000  1
  H  87  1  0.34231200  0.15142100  0.84219300  1
  H  88  1  0.33370600  0.12096600  0.83585400  1
  H  95  1  0.34943800  0.07797300  0.40749500  1
  H  96  1  0.31348000  0.02203100  0.43934800  1
  H  103  1  0.43547500  0.15807100  0.42169300  1
  H  104  1  0.35597200  0.13180400  0.43167700  1
  H  107  1  0.39399000  0.09075800  0.45736700  1
  H  108  1  0.38072600  0.06817800  0.46970500  1
  H  109  1  0.43707800  0.06250500  0.41593000  1
  H  110  1  0.40634000  0.05219900  0.42102200  1
  H  117  1  0.20972700  0.92449000  0.90747700  1
  H  118  1  0.24556300  0.98065500  0.93924200  1
  H  125  1  0.12431400  0.84377200  0.92199300  1
  H  126  1  0.20358300  0.87080500  0.93191800  1
  H  129  1  0.16521300  0.91182800  0.95737700  1
  H  130  1  0.17842800  0.93449400  0.96967600  1
  H  131  1  0.12195700  0.93929500  0.91584100  1
  H  132  1  0.15263200  0.94988900  0.92085500  1
  H  139  1  0.35848300  0.93211900  0.15802700  1
  H  140  1  0.30245100  0.96844700  0.18974900  1
  H  147  1  0.43558500  0.84327300  0.17193100  1
  H  148  1  0.41274300  0.92283500  0.18376700  1
  H  151  1  0.37041600  0.88748300  0.20788600  1
  H  152  1  0.34789500  0.90101600  0.22019600  1
  H  153  1  0.34023800  0.84739000  0.16389400  1
  H  154  1  0.33107100  0.87796700  0.16979300  1
  H  161  1  0.20071100  0.07030100  0.65803600  1
  H  162  1  0.25673300  0.03394500  0.68975200  1
  H  169  1  0.12369000  0.15920700  0.67191500  1
  H  170  1  0.14646100  0.07964500  0.68379200  1
  H  173  1  0.18881400  0.11494200  0.70789900  1
  H  174  1  0.21132300  0.10138500  0.72020900  1
  H  175  1  0.21905200  0.15501300  0.66391600  1
  H  176  1  0.22821500  0.12446000  0.66985100  1
  H  183  1  0.84584400  0.92055000  0.91014600  1
  H  184  1  0.81066600  0.97715000  0.94184700  1
  H  191  1  0.92923000  0.83862100  0.92223500  1
  H  192  1  0.84925200  0.86477800  0.93133900  1
  H  195  1  0.88162400  0.89995300  0.96150300  1
  H  196  1  0.86732500  0.92170400  0.97399300  1
  H  197  1  0.93529000  0.93351700  0.93079900  1
  H  198  1  0.90365300  0.94400400  0.93277000  1
  H  205  1  0.71351100  0.08186100  0.41013400  1
  H  206  1  0.74869100  0.02528400  0.44185300  1
  H  213  1  0.62997700  0.16361400  0.42210300  1
  H  214  1  0.70998600  0.13768300  0.43134600  1
  H  217  1  0.67773600  0.10251100  0.46148500  1
  H  218  1  0.69203200  0.08077000  0.47398400  1
  H  219  1  0.62413800  0.06872000  0.43076800  1
  H  220  1  0.65579500  0.05832200  0.43277100  1
  H  227  1  0.85955300  0.06962400  0.65974800  1
  H  228  1  0.80277700  0.03563800  0.69189500  1
  H  235  1  0.93754600  0.15851200  0.67334700  1
  H  236  1  0.91508600  0.07934800  0.68653600  1
  H  239  1  0.87677200  0.11112500  0.71003500  1
  H  240  1  0.85552800  0.09678700  0.72280300  1
  H  241  1  0.84264800  0.15345500  0.66480200  1
  H  242  1  0.83349100  0.12300800  0.67092500  1
  H  249  1  0.69972400  0.93277600  0.15975000  1
  H  250  1  0.75644000  0.96679200  0.19192500  1
  H  257  1  0.62173500  0.84389400  0.17326400  1
  H  258  1  0.64414400  0.92302700  0.18654800  1
  H  261  1  0.68247200  0.89125600  0.21003100  1
  H  262  1  0.70367700  0.90562500  0.22280800  1
  H  263  1  0.71665300  0.84899600  0.16480000  1
  H  264  1  0.72581000  0.87940500  0.17098100  1
  H  271  1  0.71065000  0.92312000  0.59987600  1
  H  272  1  0.74796900  0.97928300  0.56876500  1
  H  279  1  0.62768400  0.84132800  0.58651300  1
  H  280  1  0.70725500  0.86917300  0.57810000  1
  H  283  1  0.67104300  0.90810200  0.54874300  1
  H  284  1  0.68444400  0.93108100  0.53673600  1
  H  285  1  0.62015400  0.93651300  0.57917700  1
  H  286  1  0.65167600  0.94753700  0.57762100  1
  H  293  1  0.84859000  0.07929100  0.09989400  1
  H  294  1  0.81129500  0.02313800  0.06876700  1
  H  301  1  0.93159000  0.16106000  0.08655700  1
  H  302  1  0.85200800  0.13326100  0.07813500  1
  H  305  1  0.88819300  0.09436700  0.04876800  1
  H  306  1  0.87480700  0.07139100  0.03675300  1
  H  307  1  0.93907600  0.06587700  0.07919400  1
  H  308  1  0.90754700  0.05487000  0.07763700  1
  H  315  1  0.70194700  0.07221000  0.85055900  1
  H  316  1  0.75774800  0.03593700  0.81866100  1
  H  323  1  0.62391300  0.16068400  0.83563200  1
  H  324  1  0.64811500  0.08166100  0.82328300  1
  H  327  1  0.69022800  0.11743600  0.80083000  1
  H  328  1  0.71259100  0.10380800  0.78846900  1
  H  329  1  0.71866300  0.15742100  0.84515900  1
  H  330  1  0.72839900  0.12684000  0.83955300  1
  H  337  1  0.85735000  0.93018000  0.35054500  1
  H  338  1  0.80154900  0.96647500  0.31865400  1
  H  345  1  0.93535400  0.84170400  0.33565900  1
  H  346  1  0.91117800  0.92071500  0.32327000  1
  H  349  1  0.86906700  0.88498100  0.30080600  1
  H  350  1  0.84671000  0.89862400  0.28844700  1
  H  351  1  0.84057500  0.84497100  0.34511100  1
  H  352  1  0.83083100  0.87552700  0.33946900  1
  H  359  1  0.71568700  0.58160400  0.59830700  1
  H  360  1  0.74896000  0.52506400  0.56586000  1
  H  367  1  0.62619500  0.65861400  0.58696200  1
  H  368  1  0.70536500  0.63725000  0.57260700  1
  H  371  1  0.67339300  0.59945100  0.54836200  1
  H  372  1  0.68738200  0.57827500  0.53542800  1
  H  373  1  0.63225300  0.56373800  0.59407600  1
  H  374  1  0.66244800  0.55505700  0.58718000  1
  H  381  1  0.84357800  0.42079900  0.09833400  1
  H  382  1  0.81031600  0.47735700  0.06588500  1
  H  389  1  0.93308200  0.34379500  0.08697200  1
  H  390  1  0.85390200  0.36516300  0.07263300  1
  H  393  1  0.88587400  0.40295400  0.04838600  1
  H  394  1  0.87189700  0.42414100  0.03545300  1
  H  395  1  0.92702000  0.43867300  0.09409400  1
  H  396  1  0.89681500  0.44735400  0.08721200  1
  H  403  1  0.69886200  0.43414900  0.84794500  1
  H  404  1  0.75542300  0.46845600  0.81581900  1
  H  411  1  0.61692400  0.35169100  0.83891500  1
  H  412  1  0.64323900  0.43068300  0.82787100  1
  H  415  1  0.67805100  0.39684700  0.79708500  1
  H  416  1  0.69972200  0.41075800  0.78435200  1
  H  417  1  0.71145300  0.34435500  0.82824700  1
  H  418  1  0.72201000  0.37561100  0.82520300  1
  H  425  1  0.86036200  0.56828300  0.34793400  1
  H  426  1  0.80383800  0.53396200  0.31578900  1
  H  433  1  0.94233500  0.65070800  0.33892700  1
  H  434  1  0.91601000  0.57173000  0.32785900  1
  H  437  1  0.88116900  0.60564200  0.29707900  1
  H  438  1  0.85952600  0.59169800  0.28434300  1
  H  439  1  0.84780300  0.65806200  0.32825600  1
  H  440  1  0.83724600  0.62681000  0.32519500  1
  H  447  1  0.84661800  0.57868200  0.90775100  1
  H  448  1  0.81123600  0.52283000  0.93987300  1
  H  455  1  0.93535400  0.65609000  0.92028700  1
  H  456  1  0.85645300  0.63272600  0.93402800  1
  H  459  1  0.89245100  0.59120900  0.95720600  1
  H  460  1  0.87921100  0.56885600  0.96970600  1
  H  461  1  0.93129400  0.56128000  0.91219000  1
  H  462  1  0.90102100  0.55190700  0.91867400  1
  H  469  1  0.71263800  0.42370500  0.40772900  1
  H  470  1  0.74802700  0.47955100  0.43985300  1
  H  477  1  0.62379600  0.34638200  0.42032300  1
  H  478  1  0.70275800  0.36965100  0.43399500  1
  H  481  1  0.66681400  0.41117400  0.45718700  1
  H  482  1  0.68005100  0.43352800  0.46968700  1
  H  483  1  0.62798300  0.44117200  0.41217500  1
  H  484  1  0.65828000  0.45051100  0.41863500  1
  H  491  1  0.85862500  0.43220200  0.65818200  1
  H  492  1  0.80227300  0.46841700  0.68969500  1
  H  499  1  0.94014700  0.34958500  0.66868900  1
  H  500  1  0.91235900  0.42833700  0.67892700  1
  H  503  1  0.87357900  0.39092300  0.70876200  1
  H  504  1  0.85060600  0.40395100  0.72097800  1
  H  505  1  0.84511800  0.34129000  0.67775300  1
  H  506  1  0.83408800  0.37251000  0.68031900  1
  H  513  1  0.70060400  0.57023000  0.15817800  1
  H  514  1  0.75693900  0.53400400  0.18969500  1
  H  521  1  0.61910100  0.65285700  0.16865700  1
  H  522  1  0.64686700  0.57411500  0.17893100  1
  H  525  1  0.68566500  0.61153500  0.20875200  1
  H  526  1  0.70862400  0.59849100  0.22097100  1
  H  527  1  0.71413600  0.66113700  0.17770600  1
  H  528  1  0.72515400  0.62992200  0.18030400  1
  H  535  1  0.34886400  0.42007100  0.41012000  1
  H  536  1  0.31454000  0.47639200  0.44230800  1
  H  543  1  0.43442400  0.34031800  0.42060400  1
  H  544  1  0.35515900  0.36375100  0.43369800  1
  H  547  1  0.38699400  0.39980000  0.46091700  1
  H  548  1  0.37291900  0.42130000  0.47364600  1
  H  549  1  0.43741300  0.43575300  0.42660300  1
  H  550  1  0.40576400  0.44504500  0.43003300  1
  H  557  1  0.21028700  0.58234300  0.91005800  1
  H  558  1  0.24455800  0.52606000  0.94229600  1
  H  565  1  0.12490300  0.66217900  0.92024100  1
  H  566  1  0.20401300  0.63867900  0.93364300  1
  H  569  1  0.17210600  0.60272000  0.96082600  1
  H  570  1  0.18615800  0.58124000  0.97357700  1
  H  571  1  0.12170400  0.56679100  0.92646500  1
  H  572  1  0.15331200  0.55746800  0.92999700  1
  H  579  1  0.35693200  0.56863500  0.15918000  1
  H  580  1  0.30142300  0.53336700  0.19160700  1
  H  587  1  0.43750100  0.65367100  0.17020500  1
  H  588  1  0.41356700  0.57392400  0.18119000  1
  H  591  1  0.37827200  0.60570100  0.21006600  1
  H  592  1  0.35708500  0.59131300  0.22287700  1
  H  593  1  0.34206700  0.65727500  0.17785800  1
  H  594  1  0.33245400  0.62559700  0.18048800  1
  H  601  1  0.20234300  0.43377100  0.65918700  1
  H  602  1  0.25778100  0.46905200  0.69165200  1
  H  609  1  0.12177900  0.34873900  0.67011300  1
  H  610  1  0.14565500  0.42846100  0.68118400  1
  H  613  1  0.18097400  0.39662900  0.71005800  1
  H  614  1  0.20212000  0.41104500  0.72287900  1
  H  615  1  0.21720100  0.34515100  0.67782400  1
  H  616  1  0.22679100  0.37682200  0.68050400  1
  H  623  1  0.20809300  0.42249200  0.09970000  1
  H  624  1  0.24419000  0.47884300  0.06820000  1
  H  631  1  0.12295200  0.34272500  0.08768600  1
  H  632  1  0.20206400  0.36830100  0.07581200  1
  H  635  1  0.16593600  0.40828000  0.04923600  1
  H  636  1  0.17897300  0.43123100  0.03706200  1
  H  637  1  0.11811600  0.43834900  0.08282600  1
  H  638  1  0.14972100  0.44837800  0.08001500  1
  H  645  1  0.35117900  0.57994100  0.59974900  1
  H  646  1  0.31506100  0.52362400  0.56823400  1
  H  653  1  0.43632700  0.65970500  0.58773200  1
  H  654  1  0.35720200  0.63415100  0.57585600  1
  H  657  1  0.39330300  0.59420900  0.54927900  1
  H  658  1  0.38025800  0.57127000  0.53709900  1
  H  659  1  0.44112800  0.56407600  0.58286800  1
  H  660  1  0.40951700  0.55406000  0.58005900  1
  H  667  1  0.20421200  0.57064300  0.35092500  1
  H  668  1  0.25917200  0.53342000  0.31893800  1
  H  675  1  0.12376400  0.65551300  0.33869500  1
  H  676  1  0.14937900  0.57596500  0.32865900  1
  H  679  1  0.18839800  0.61166800  0.30032300  1
  H  680  1  0.21085100  0.59820400  0.28795700  1
  H  681  1  0.21941600  0.66052300  0.33201100  1
  H  682  1  0.22958800  0.62890400  0.32987300  1
  H  689  1  0.35502800  0.43177800  0.85093500  1
  H  690  1  0.30007900  0.46900700  0.81894400  1
  H  697  1  0.43545400  0.34690900  0.83875500  1
  H  698  1  0.40987700  0.42644200  0.82867100  1
  H  701  1  0.37085400  0.39075800  0.80033500  1
  H  702  1  0.34841400  0.40423200  0.78796300  1
  H  703  1  0.33981100  0.34191100  0.83203800  1
  H  704  1  0.32965100  0.37352500  0.82986800  1
  H  711  1  0.13609500  0.31277500  0.06534700  1
  H  718  1  0.16880500  0.23754800  0.10226100  1
  H  719  1  0.16232200  0.18966500  0.10425500  1
  H  720  1  0.18927300  0.17977000  0.05636100  1
  H  721  1  0.20817900  0.32477800  0.09220100  1
  H  723  1  0.23932800  0.28926900  0.09768000  1
  H  724  1  0.23852300  0.26236700  0.08358900  1
  H  725  1  0.22133200  0.25919100  0.10237200  1
  H  726  1  0.14477000  0.26536900  0.06425600  1
  H  728  1  0.21794700  0.24409900  0.05116100  1
  H  729  1  0.18380200  0.24530000  0.04394700  1
  H  730  1  0.20428600  0.21646100  0.04022400  1
  H  737  1  0.42322400  0.68969100  0.56542400  1
  H  744  1  0.39040200  0.76493300  0.60229200  1
  H  745  1  0.39686200  0.81281500  0.60427000  1
  H  746  1  0.37002400  0.82264800  0.55635300  1
  H  747  1  0.35107200  0.67766200  0.59221000  1
  H  749  1  0.31988700  0.71315500  0.59765000  1
  H  750  1  0.32072400  0.74005600  0.58356100  1
  H  751  1  0.33785400  0.74323900  0.60236200  1
  H  752  1  0.41453300  0.73709500  0.56432700  1
  H  754  1  0.34139800  0.75829600  0.55114300  1
  H  755  1  0.37557100  0.75711600  0.54397200  1
  H  756  1  0.35507500  0.78593600  0.54021500  1
  H  763  1  0.96534000  0.85295600  0.31343500  1
  H  770  1  0.04166800  0.88737100  0.34973800  1
  H  771  1  0.08975700  0.88207500  0.35253700  1
  H  772  1  0.10083000  0.90357800  0.30378600  1
  H  773  1  0.95540400  0.92676700  0.33860400  1
  H  775  1  0.99156100  0.95753500  0.34294200  1
  H  776  1  0.01874500  0.95483000  0.32906100  1
  H  777  1  0.02117500  0.93924000  0.34834700  1
  H  778  1  0.01322600  0.86042500  0.31199600  1
  H  780  1  0.02739800  0.91487200  0.29489700  1
  H  781  1  0.05468800  0.89595400  0.28664000  1
  H  782  1  0.05903800  0.93087000  0.29148900  1
  H  789  1  0.59398200  0.14940000  0.81337900  1
  H  796  1  0.51767200  0.11518100  0.84967800  1
  H  797  1  0.46959000  0.12052200  0.85249600  1
  H  798  1  0.45842500  0.09880200  0.80378500  1
  H  799  1  0.60385200  0.07565200  0.83861700  1
  H  801  1  0.56765600  0.04493100  0.84299300  1
  H  802  1  0.54050800  0.04758800  0.82908500  1
  H  803  1  0.53803800  0.06326400  0.84834500  1
  H  804  1  0.54609800  0.14195700  0.81192600  1
  H  806  1  0.53183100  0.08740600  0.79487500  1
  H  807  1  0.50454300  0.10629800  0.78659500  1
  H  808  1  0.50017100  0.07141600  0.79152000  1
  H  815  1  0.42303600  0.30951900  0.44275000  1
  H  822  1  0.39044700  0.23444900  0.40565200  1
  H  823  1  0.39797000  0.18677200  0.40308100  1
  H  824  1  0.37364900  0.17496700  0.45130900  1
  H  825  1  0.34937500  0.32038200  0.41725100  1
  H  827  1  0.31884900  0.28423200  0.41200900  1
  H  828  1  0.32108400  0.25699700  0.42581700  1
  H  829  1  0.33734300  0.25475000  0.40670000  1
  H  830  1  0.41566700  0.26189300  0.44349200  1
  H  832  1  0.34389900  0.23849200  0.45770500  1
  H  833  1  0.37839100  0.24026700  0.46427600  1
  H  834  1  0.35877300  0.21087500  0.46809700  1
  H  841  1  0.13586700  0.69327900  0.94208800  1
  H  848  1  0.17348400  0.76871400  0.90533700  1
  H  849  1  0.16581200  0.81637000  0.90286300  1
  H  850  1  0.18210100  0.82684000  0.95236000  1
  H  851  1  0.21044200  0.68185800  0.91762200  1
  H  853  1  0.24176700  0.71760800  0.91322800  1
  H  854  1  0.23890100  0.74489100  0.92695700  1
  H  855  1  0.22398400  0.74726600  0.90746800  1
  H  856  1  0.14363800  0.74081700  0.94302300  1
  H  858  1  0.19688100  0.75421400  0.96086400  1
  H  859  1  0.17507500  0.77969700  0.96862300  1
  H  860  1  0.21024000  0.78656900  0.96533600  1
  H  867  1  0.59108000  0.85400400  0.19535000  1
  H  874  1  0.51514700  0.88742100  0.15839700  1
  H  875  1  0.46728300  0.88106000  0.15500000  1
  H  876  1  0.45412600  0.90112500  0.20378400  1
  H  877  1  0.60008000  0.92853700  0.17081800  1
  H  879  1  0.56333300  0.95856000  0.16631300  1
  H  880  1  0.53577600  0.95490300  0.17985600  1
  H  881  1  0.53435000  0.93969600  0.16042800  1
  H  882  1  0.54300000  0.86030900  0.19628800  1
  H  884  1  0.52696800  0.91383800  0.21363600  1
  H  885  1  0.49988900  0.89403900  0.22139400  1
  H  886  1  0.49483900  0.92897100  0.21682900  1
  H  893  1  0.96814500  0.14830700  0.69545800  1
  H  900  1  0.04402600  0.11517200  0.65846700  1
  H  901  1  0.09188000  0.12158800  0.65504700  1
  H  902  1  0.10516200  0.10117700  0.70377100  1
  H  903  1  0.95918200  0.07390300  0.67078800  1
  H  905  1  0.99595800  0.04393400  0.66621000  1
  H  906  1  0.02348900  0.04750000  0.67977900  1
  H  907  1  0.02494800  0.06284800  0.66039300  1
  H  908  1  0.01622200  0.14201500  0.69640100  1
  H  910  1  0.03235500  0.08833000  0.71364400  1
  H  911  1  0.05943500  0.10808300  0.72144000  1
  H  912  1  0.06450400  0.07319700  0.71676500  1
  H  919  1  0.92395500  0.68820500  0.94144300  1
  H  926  1  0.88619100  0.76317600  0.90480500  1
  H  927  1  0.89103700  0.81129700  0.90261700  1
  H  928  1  0.86940300  0.82024100  0.95149700  1
  H  929  1  0.84947000  0.67484300  0.91724000  1
  H  931  1  0.81759800  0.70976100  0.91228100  1
  H  932  1  0.81961000  0.73732900  0.92586500  1
  H  933  1  0.83484400  0.73970600  0.90645900  1
  H  934  1  0.91502700  0.73572600  0.94209900  1
  H  936  1  0.85895800  0.74675800  0.95952300  1
  H  937  1  0.87775500  0.77390900  0.96798300  1
  H  938  1  0.84256000  0.77793000  0.96340500  1
  H  945  1  0.63518500  0.31422000  0.44142800  1
  H  952  1  0.67281400  0.23921100  0.40478400  1
  H  953  1  0.66802100  0.19109400  0.40259400  1
  H  954  1  0.68978000  0.18215500  0.45144900  1
  H  955  1  0.70966100  0.32753500  0.41720700  1
  H  957  1  0.74151100  0.29260000  0.41224500  1
  H  958  1  0.73947600  0.26500900  0.42581000  1
  H  959  1  0.72422700  0.26268700  0.40640600  1
  H  960  1  0.64407600  0.26669000  0.44207100  1
  H  962  1  0.70014300  0.25564000  0.45948400  1
  H  963  1  0.68139100  0.22846200  0.46794600  1
  H  964  1  0.71658500  0.22448700  0.46335100  1
  H  971  1  0.63653300  0.69143300  0.56604800  1
  H  978  1  0.67298000  0.76621900  0.60336000  1
  H  979  1  0.66692000  0.81412800  0.60607200  1
  H  980  1  0.68736100  0.82502500  0.55715900  1
  H  981  1  0.71164700  0.67916200  0.58977300  1
  H  983  1  0.74273700  0.71470600  0.59493300  1
  H  984  1  0.73980300  0.74265900  0.58169100  1
  H  985  1  0.72482900  0.74400400  0.60120100  1
  H  986  1  0.64424800  0.73916700  0.56589400  1
  H  988  1  0.69953400  0.75207700  0.54830200  1
  H  989  1  0.67976300  0.77890900  0.54026900  1
  H  990  1  0.71493900  0.78380500  0.54459000  1
  H  997  1  0.92272900  0.31098400  0.06605500  1
  H  1004  1  0.88631700  0.23624600  0.10336900  1
  H  1005  1  0.89237900  0.18833300  0.10611100  1
  H  1006  1  0.87188500  0.17735600  0.05720600  1
  H  1007  1  0.84763300  0.32325000  0.08979700  1
  H  1009  1  0.81655600  0.28769600  0.09497800  1
  H  1010  1  0.81946300  0.25975800  0.08172000  1
  H  1011  1  0.83447200  0.25838700  0.10122100  1
  H  1012  1  0.91501700  0.26325100  0.06589600  1
  H  1014  1  0.85968400  0.25028300  0.04831500  1
  H  1015  1  0.87944800  0.22344500  0.04028200  1
  H  1016  1  0.84428500  0.21854300  0.04463400  1
  H  1023  1  0.46661700  0.36244700  0.81737800  1
  H  1030  1  0.54140700  0.39230700  0.85610200  1
  H  1031  1  0.58952200  0.38558700  0.85747700  1
  H  1032  1  0.59832700  0.41746400  0.81060400  1
  H  1033  1  0.45242800  0.43123300  0.84654900  1
  H  1035  1  0.48747900  0.46194000  0.85381400  1
  H  1036  1  0.51492600  0.46307100  0.84002500  1
  H  1037  1  0.51781900  0.44399300  0.85815100  1
  H  1038  1  0.51411100  0.37180400  0.81729700  1
  H  1040  1  0.53368200  0.44677200  0.80708400  1
  H  1041  1  0.53261500  0.41367900  0.79849600  1
  H  1042  1  0.56136800  0.43468600  0.79549100  1
  H  1049  1  0.09259600  0.63994400  0.31733600  1
  H  1056  1  0.01785500  0.61011900  0.35608400  1
  H  1057  1  0.96974700  0.61684700  0.35746800  1
  H  1058  1  0.96090000  0.58492700  0.31060700  1
  H  1059  1  0.10682600  0.57119700  0.34653200  1
  H  1061  1  0.07179400  0.54047200  0.35380500  1
  H  1062  1  0.04431800  0.53933200  0.34003800  1
  H  1063  1  0.04146800  0.55843100  0.35815800  1
  H  1064  1  0.04510600  0.63056900  0.31727000  1
  H  1066  1  0.02554600  0.55560600  0.30707500  1
  H  1067  1  0.02660000  0.58869800  0.29848400  1
  H  1068  1  0.99784800  0.56768400  0.29549100  1
  H  1075  1  0.08984300  0.36300400  0.69139200  1
  H  1082  1  0.01562500  0.39194400  0.65217800  1
  H  1083  1  0.96770400  0.38428300  0.65019500  1
  H  1084  1  0.95667100  0.41518900  0.69712700  1
  H  1085  1  0.10335400  0.43291200  0.66305600  1
  H  1087  1  0.06783100  0.46305100  0.65573300  1
  H  1088  1  0.03991400  0.46312400  0.66920400  1
  H  1089  1  0.03807800  0.44452800  0.65085500  1
  H  1090  1  0.04214700  0.37126600  0.69102400  1
  H  1092  1  0.02059900  0.44558000  0.70167600  1
  H  1093  1  0.02208800  0.41230100  0.70998600  1
  H  1094  1  0.99280700  0.43263100  0.71284400  1
  H  1101  1  0.46940000  0.63932400  0.19149900  1
  H  1108  1  0.54353200  0.61049700  0.15223700  1
  H  1109  1  0.59144800  0.61820000  0.15020700  1
  H  1110  1  0.60263000  0.58720400  0.19711400  1
  H  1111  1  0.45589300  0.56953400  0.16306200  1
  H  1113  1  0.49142500  0.53943200  0.15568800  1
  H  1114  1  0.51932300  0.53928100  0.16917100  1
  H  1115  1  0.52118800  0.55797100  0.15085600  1
  H  1116  1  0.51709400  0.63105700  0.19112900  1
  H  1118  1  0.53876900  0.55673000  0.20168300  1
  H  1119  1  0.53723500  0.58997600  0.21003700  1
  H  1120  1  0.56655900  0.56969100  0.21284700  1
  H  1127  1  0.09628900  0.13959400  0.10683500  1
  H  1134  1  0.00824300  0.08575900  0.10552200  1
  H  1135  1  0.95945000  0.08950900  0.10470600  1
  H  1136  1  0.96517000  0.14205800  0.06474300  1
  H  1137  1  0.10005000  0.08702900  0.06675500  1
  H  1139  1  0.06164400  0.06394800  0.05659600  1
  H  1140  1  0.03317600  0.08583800  0.05587600  1
  H  1141  1  0.03503300  0.05998000  0.07074100  1
  H  1142  1  0.04763000  0.13735900  0.10639000  1
  H  1144  1  0.03260000  0.13495500  0.05523500  1
  H  1145  1  0.03213700  0.16075700  0.07018300  1
  H  1146  1  0.00655200  0.15962300  0.05523800  1
  H  1153  1  0.46295600  0.86278700  0.60682400  1
  H  1160  1  0.55102000  0.91660400  0.60551800  1
  H  1161  1  0.59981100  0.91286400  0.60468900  1
  H  1162  1  0.59407400  0.86033300  0.56471900  1
  H  1163  1  0.45921100  0.91537700  0.56675500  1
  H  1165  1  0.49762300  0.93845800  0.55660200  1
  H  1166  1  0.52607500  0.91655100  0.55587300  1
  H  1167  1  0.52424500  0.94240200  0.57074200  1
  H  1168  1  0.51161900  0.86500800  0.60637700  1
  H  1170  1  0.52663500  0.86742900  0.55522900  1
  H  1171  1  0.52711100  0.84162100  0.57017100  1
  H  1172  1  0.55268700  0.84276700  0.55522000  1
  H  1179  1  0.14269200  0.81791700  0.35782200  1
  H  1186  1  0.19907400  0.73021500  0.35836500  1
  H  1187  1  0.19502800  0.68159400  0.35731800  1
  H  1188  1  0.14434500  0.68807300  0.31646700  1
  H  1189  1  0.19789100  0.82182400  0.31889900  1
  H  1191  1  0.22316500  0.78402700  0.30992400  1
  H  1192  1  0.20204300  0.75503400  0.30909100  1
  H  1193  1  0.22702800  0.75811100  0.32446100  1
  H  1194  1  0.14671400  0.76956000  0.35820100  1
  H  1196  1  0.15248500  0.75512800  0.30722400  1
  H  1197  1  0.12579400  0.75482600  0.32168900  1
  H  1198  1  0.12752600  0.72938900  0.30674400  1
  H  1205  1  0.41652500  0.18452000  0.85785500  1
  H  1212  1  0.36008900  0.27221500  0.85839600  1
  H  1213  1  0.36415000  0.32083400  0.85735300  1
  H  1214  1  0.41490700  0.31434200  0.81653400  1
  H  1215  1  0.36137200  0.18060300  0.81891200  1
  H  1217  1  0.33610700  0.21840200  0.80992100  1
  H  1218  1  0.35720600  0.24741400  0.80912200  1
  H  1219  1  0.33218600  0.24429000  0.82446900  1
  H  1220  1  0.41247800  0.23287000  0.85824400  1
  H  1222  1  0.40676900  0.24729600  0.80728500  1
  H  1223  1  0.43342900  0.24757700  0.82176900  1
  H  1224  1  0.43174400  0.27302300  0.80682600  1
  H  1231  1  0.46646400  0.13799200  0.40027900  1
  H  1238  1  0.55610100  0.08600700  0.40269200  1
  H  1239  1  0.60471800  0.09110400  0.40424300  1
  H  1240  1  0.59579600  0.14418800  0.44375200  1
  H  1241  1  0.46283600  0.08452100  0.43993900  1
  H  1243  1  0.50158500  0.06259000  0.45055600  1
  H  1244  1  0.52924200  0.08544800  0.45172300  1
  H  1245  1  0.52888900  0.05963000  0.43678900  1
  H  1246  1  0.51514700  0.13706900  0.40127300  1
  H  1248  1  0.52825700  0.13485500  0.45238200  1
  H  1249  1  0.52845200  0.16065400  0.43742500  1
  H  1250  1  0.55347300  0.16036900  0.45271500  1
  H  1257  1  0.09290100  0.86340600  0.90067000  1
  H  1264  1  0.00347500  0.91569400  0.90283400  1
  H  1265  1  0.95482200  0.91086900  0.90433100  1
  H  1266  1  0.96330100  0.85809300  0.94401800  1
  H  1267  1  0.09655900  0.91745100  0.94005200  1
  H  1269  1  0.05782500  0.93948200  0.95059900  1
  H  1270  1  0.03016100  0.91665300  0.95187700  1
  H  1271  1  0.03051700  0.94227400  0.93682300  1
  H  1272  1  0.04421100  0.86432600  0.90168600  1
  H  1274  1  0.03086200  0.86723200  0.95272700  1
  H  1275  1  0.03059200  0.84125100  0.93788100  1
  H  1276  1  0.00551200  0.84185100  0.95313700  1
  H  1283  1  0.41531900  0.81498000  0.14939300  1
  H  1290  1  0.36035600  0.72585000  0.14984100  1
  H  1291  1  0.36551700  0.67739100  0.15165100  1
  H  1292  1  0.41646800  0.68685000  0.19218200  1
  H  1293  1  0.35913200  0.81899300  0.18781400  1
  H  1295  1  0.33470500  0.78090100  0.19718100  1
  H  1296  1  0.35662600  0.75254700  0.19850700  1
  H  1297  1  0.33173100  0.75430800  0.18300600  1
  H  1298  1  0.41232800  0.76654400  0.14954600  1
  H  1300  1  0.40643200  0.75404100  0.20047400  1
  H  1301  1  0.43319200  0.75385800  0.18604900  1
  H  1302  1  0.43207900  0.72900600  0.20135900  1
  H  1309  1  0.14398800  0.18744300  0.64935000  1
  H  1316  1  0.19899900  0.27658000  0.64979900  1
  H  1317  1  0.19381500  0.32503400  0.65160400  1
  H  1318  1  0.14277000  0.31555300  0.69209200  1
  H  1319  1  0.20012500  0.18343400  0.68779400  1
  H  1321  1  0.22453200  0.22153200  0.69717800  1
  H  1322  1  0.20263000  0.24990500  0.69846400  1
  H  1323  1  0.22756800  0.24810000  0.68299000  1
  H  1324  1  0.14700200  0.23587300  0.64948600  1
  H  1326  1  0.15281400  0.24837200  0.70039400  1
  H  1327  1  0.12609000  0.24852900  0.68594500  1
  H  1328  1  0.12714600  0.27338900  0.70125100  1
  H  1335  1  0.91736200  0.18453600  0.64952500  1
  H  1342  1  0.86303600  0.27465100  0.64943500  1
  H  1343  1  0.86785600  0.32314400  0.65096300  1
  H  1344  1  0.92134200  0.31463900  0.69041700  1
  H  1345  1  0.86191900  0.18324600  0.68837500  1
  H  1347  1  0.83876600  0.22227900  0.69752800  1
  H  1348  1  0.86151000  0.25005300  0.69822400  1
  H  1349  1  0.83595500  0.24847800  0.68308700  1
  H  1350  1  0.91518600  0.23301600  0.64888000  1
  H  1352  1  0.91187000  0.24758700  0.69925800  1
  H  1353  1  0.93795400  0.24739200  0.68440100  1
  H  1354  1  0.93761700  0.27258500  0.69953100  1
  H  1361  1  0.64192700  0.81789000  0.14944800  1
  H  1368  1  0.69623200  0.72778300  0.14940300  1
  H  1369  1  0.69141500  0.67929000  0.15093200  1
  H  1370  1  0.63789200  0.68779800  0.19036900  1
  H  1371  1  0.69729100  0.81919300  0.18833800  1
  H  1373  1  0.72043900  0.78016700  0.19750700  1
  H  1374  1  0.69767300  0.75241100  0.19820400  1
  H  1375  1  0.72325600  0.75394100  0.18308200  1
  H  1376  1  0.64409900  0.76940800  0.14881900  1
  H  1378  1  0.64732900  0.75485900  0.19920100  1
  H  1379  1  0.62126700  0.75504000  0.18433100  1
  H  1380  1  0.62159000  0.72985500  0.19946600  1
  H  1387  1  0.64317700  0.18758400  0.85952500  1
  H  1394  1  0.69599100  0.27905500  0.85831100  1
  H  1395  1  0.69012100  0.32735400  0.85607800  1
  H  1396  1  0.63577700  0.31604000  0.81728600  1
  H  1397  1  0.69916200  0.18629100  0.82095200  1
  H  1399  1  0.72120900  0.22560200  0.81126300  1
  H  1400  1  0.69760900  0.25262800  0.81014900  1
  H  1401  1  0.72319100  0.25248700  0.82530700  1
  H  1402  1  0.64417200  0.23612800  0.85959100  1
  H  1404  1  0.64695700  0.24888900  0.80928400  1
  H  1405  1  0.62100800  0.24861900  0.82422900  1
  H  1406  1  0.62056800  0.27321600  0.80875500  1
  H  1413  1  0.91605900  0.81480700  0.35954400  1
  H  1420  1  0.86323700  0.72334400  0.35831900  1
  H  1421  1  0.86911900  0.67504700  0.35608600  1
  H  1422  1  0.92350600  0.68637600  0.31731600  1
  H  1423  1  0.86013100  0.81612200  0.32094400  1
  H  1425  1  0.83810600  0.77680700  0.31123100  1
  H  1426  1  0.86168600  0.74975900  0.31014900  1
  H  1427  1  0.83607000  0.74994000  0.32528400  1
  H  1428  1  0.91505700  0.76627000  0.35960800  1
  H  1430  1  0.91233400  0.75352400  0.30931300  1
  H  1431  1  0.93825500  0.75380100  0.32427400  1
  H  1432  1  0.93872900  0.72920500  0.30880100  1
  H  1439  1  0.59943100  0.63803000  0.60962300  1
  H  1446  1  0.50912600  0.58382800  0.61030800  1
  H  1447  1  0.46049400  0.58892800  0.60821400  1
  H  1448  1  0.47059300  0.63822300  0.56710100  1
  H  1449  1  0.60207200  0.58219600  0.57109100  1
  H  1451  1  0.56371700  0.55722800  0.56254400  1
  H  1452  1  0.53508300  0.57888700  0.56153800  1
  H  1453  1  0.53760500  0.55425700  0.57709100  1
  H  1454  1  0.55084800  0.63474900  0.61021400  1
  H  1456  1  0.53801300  0.62850300  0.55930300  1
  H  1457  1  0.53778200  0.65535000  0.57360300  1
  H  1458  1  0.51294000  0.65408400  0.55824100  1
  H  1465  1  0.95985200  0.36435500  0.10962600  1
  H  1472  1  0.05015100  0.41858100  0.11028800  1
  H  1473  1  0.09878100  0.41349800  0.10817800  1
  H  1474  1  0.08866100  0.36419700  0.06707000  1
  H  1475  1  0.95717800  0.42019700  0.07109700  1
  H  1477  1  0.99552300  0.44517500  0.06254300  1
  H  1478  1  0.02415100  0.42351000  0.06152400  1
  H  1479  1  0.02165500  0.44814200  0.07707900  1
  H  1480  1  0.00844100  0.36764400  0.11019900  1
  H  1482  1  0.02122800  0.37389200  0.05929600  1
  H  1483  1  0.02148400  0.34704500  0.07359400  1
  H  1484  1  0.04630800  0.34831900  0.05822400  1
  H  1491  1  0.96274700  0.63649700  0.89743100  1
  H  1498  1  0.05468800  0.58413100  0.89759300  1
  H  1499  1  0.10310100  0.59048700  0.90025800  1
  H  1500  1  0.09029200  0.64034300  0.94086800  1
  H  1501  1  0.96074900  0.58004300  0.93565400  1
  H  1503  1  0.99963100  0.55620900  0.94452600  1
  H  1504  1  0.02749200  0.57880800  0.94585400  1
  H  1505  1  0.02627100  0.55414500  0.93025800  1
  H  1506  1  0.01142500  0.63448600  0.89718800  1
  H  1508  1  0.02294700  0.62861700  0.94798600  1
  H  1509  1  0.02281900  0.65539900  0.93363800  1
  H  1510  1  0.04720600  0.65494500  0.94926800  1
  H  1517  1  0.59634100  0.36594300  0.39753200  1
  H  1524  1  0.50444100  0.41836100  0.39769700  1
  H  1525  1  0.45604600  0.41196100  0.40041800  1
  H  1526  1  0.46901800  0.36234500  0.44111500  1
  H  1527  1  0.59855400  0.42256000  0.43566400  1
  H  1529  1  0.55973100  0.44649400  0.44454500  1
  H  1530  1  0.53182100  0.42396200  0.44592000  1
  H  1531  1  0.53307300  0.44856100  0.43028900  1
  H  1532  1  0.54767300  0.36801800  0.39734400  1
  H  1534  1  0.53636600  0.37418300  0.44815000  1
  H  1535  1  0.53649100  0.34733400  0.43384700  1
  H  1536  1  0.51214200  0.34783300  0.44949700  1
  H  1543  1  0.20015200  0.00633000  0.95748000  1
  H  1550  1  0.25973200  0.02330000  0.00921700  1
  H  1551  1  0.25929500  0.04717700  0.03443700  1
  H  1552  1  0.17851300  0.02138200  0.04279800  1
  H  1553  1  0.23589500  0.93576600  0.97708800  1
  H  1555  1  0.24828900  0.93185900  0.00451900  1
  H  1556  1  0.22607600  0.95028000  0.01723400  1
  H  1557  1  0.25918400  0.96306600  0.01283900  1
  H  1558  1  0.20220100  0.02808500  0.98328200  1
  H  1560  1  0.17504400  0.97104900  0.01393900  1
  H  1561  1  0.16244700  0.00092000  0.00444700  1
  H  1562  1  0.15393400  0.99379300  0.02468700  1
  H  1569  1  0.35898100  0.99634300  0.45752000  1
  H  1576  1  0.29949300  0.97930100  0.50927900  1
  H  1577  1  0.29996000  0.95536900  0.53448000  1
  H  1578  1  0.38076500  0.98111500  0.54281400  1
  H  1579  1  0.32329500  0.06688600  0.47718700  1
  H  1581  1  0.31095000  0.07075000  0.50463000  1
  H  1582  1  0.33319100  0.05231000  0.51731800  1
  H  1583  1  0.30007100  0.03953200  0.51294400  1
  H  1584  1  0.35698100  0.97455200  0.48331300  1
  H  1586  1  0.38420700  0.03151100  0.51399400  1
  H  1587  1  0.39677400  0.00165600  0.50447000  1
  H  1588  1  0.40532700  0.00873400  0.52471100  1
  H  1595  1  0.27632200  0.92280500  0.20750800  1
  H  1602  1  0.25744200  0.98161900  0.25908100  1
  H  1603  1  0.23267700  0.98103700  0.28403100  1
  H  1604  1  0.25890000  0.90077700  0.29271300  1
  H  1605  1  0.34651800  0.95838900  0.22791800  1
  H  1607  1  0.34959900  0.97055900  0.25542200  1
  H  1608  1  0.33082100  0.94827700  0.26789400  1
  H  1609  1  0.31799300  0.98123900  0.26345100  1
  H  1610  1  0.25375400  0.92454300  0.23309600  1
  H  1612  1  0.31031100  0.89760500  0.26441600  1
  H  1613  1  0.28071900  0.88489800  0.25457200  1
  H  1614  1  0.28724400  0.87643400  0.27488800  1
  H  1621  1  0.28287600  0.07963200  0.70748000  1
  H  1628  1  0.30189500  0.02079700  0.75903300  1
  H  1629  1  0.32669600  0.02137400  0.78396900  1
  H  1630  1  0.30045500  0.10162000  0.79268000  1
  H  1631  1  0.21273900  0.04400500  0.72793800  1
  H  1633  1  0.20972100  0.03183300  0.75544400  1
  H  1634  1  0.22852200  0.05411400  0.76790400  1
  H  1635  1  0.24134800  0.02115700  0.76344700  1
  H  1636  1  0.30549900  0.07789800  0.73305200  1
  H  1638  1  0.24900200  0.10478700  0.76441500  1
  H  1639  1  0.27856700  0.11750900  0.75455100  1
  H  1640  1  0.27207800  0.12596300  0.77487300  1
  H  1647  1  0.85634900  0.99810700  0.05046000  1
  H  1654  1  0.79559000  0.97895600  0.99879500  1
  H  1655  1  0.79638700  0.95426000  0.97384100  1
  H  1656  1  0.87762400  0.97898200  0.96589400  1
  H  1657  1  0.81855800  0.06705800  0.03018400  1
  H  1659  1  0.80578300  0.06969300  0.00275500  1
  H  1660  1  0.82809100  0.05108800  0.99018900  1
  H  1661  1  0.79523600  0.03800200  0.99493800  1
  H  1662  1  0.85405900  0.97522500  0.02503600  1
  H  1664  1  0.88057800  0.03050300  0.99405300  1
  H  1665  1  0.89306800  0.00098300  0.00397700  1
  H  1666  1  0.90184500  0.00739300  0.98369600  1
  H  1673  1  0.70293400  0.00434300  0.55045200  1
  H  1680  1  0.76373000  0.02348900  0.49880300  1
  H  1681  1  0.76295500  0.04818600  0.47385000  1
  H  1682  1  0.68171400  0.02348900  0.46588500  1
  H  1683  1  0.74069000  0.93537500  0.53017600  1
  H  1685  1  0.75349000  0.93274600  0.50275000  1
  H  1686  1  0.73119400  0.95136400  0.49018500  1
  H  1687  1  0.76405300  0.96443300  0.49493700  1
  H  1688  1  0.70525700  0.02723500  0.52503300  1
  H  1690  1  0.67872700  0.97196700  0.49404400  1
  H  1691  1  0.66624400  0.00149100  0.50396500  1
  H  1692  1  0.65747500  0.99508500  0.48368200  1
  H  1699  1  0.78394000  0.08157400  0.80064200  1
  H  1706  1  0.80172300  0.02290100  0.74894400  1
  H  1707  1  0.82594200  0.02352800  0.72381000  1
  H  1708  1  0.79911800  0.10361800  0.71523400  1
  H  1709  1  0.71317600  0.04619500  0.78080300  1
  H  1711  1  0.70943500  0.03397400  0.75333900  1
  H  1712  1  0.72792100  0.05625000  0.74071400  1
  H  1713  1  0.74083100  0.02327400  0.74503300  1
  H  1714  1  0.80588900  0.07980400  0.77486300  1
  H  1716  1  0.74838000  0.10671200  0.74396400  1
  H  1717  1  0.77818300  0.11950900  0.75354200  1
  H  1718  1  0.77113000  0.12791400  0.73327800  1
  H  1725  1  0.77535700  0.92081600  0.30064600  1
  H  1732  1  0.75748600  0.97953600  0.24896800  1
  H  1733  1  0.73324700  0.97891700  0.22384200  1
  H  1734  1  0.76008500  0.89883800  0.21524200  1
  H  1735  1  0.84608100  0.95624200  0.28078700  1
  H  1737  1  0.84978300  0.96847900  0.25332300  1
  H  1738  1  0.83128100  0.94621600  0.24069900  1
  H  1739  1  0.81837400  0.97918500  0.24503800  1
  H  1740  1  0.75337300  0.92259700  0.27487700  1
  H  1742  1  0.81084800  0.89574300  0.24395400  1
  H  1743  1  0.78106100  0.88293200  0.25354100  1
  H  1744  1  0.78809400  0.87453800  0.23327300  1
  H  1751  1  0.70201400  0.50511900  0.45749000  1
  H  1758  1  0.76106200  0.52348900  0.50894000  1
  H  1759  1  0.76087600  0.54801600  0.53393600  1
  H  1760  1  0.68033900  0.52208500  0.54293500  1
  H  1761  1  0.73756800  0.43501200  0.47778000  1
  H  1763  1  0.74963900  0.43172700  0.50529600  1
  H  1764  1  0.72731600  0.45040900  0.51780500  1
  H  1765  1  0.76042800  0.46314800  0.51337800  1
  H  1766  1  0.70365100  0.52740500  0.48314300  1
  H  1768  1  0.67661400  0.47106900  0.51455600  1
  H  1769  1  0.66385700  0.50062600  0.50479700  1
  H  1770  1  0.65555800  0.49408300  0.52513900  1
  H  1777  1  0.85725600  0.49727200  0.95751500  1
  H  1784  1  0.79821300  0.47889800  0.00896600  1
  H  1785  1  0.79840700  0.45437900  0.03396500  1
  H  1786  1  0.87893800  0.48033600  0.04295900  1
  H  1787  1  0.82169200  0.56737700  0.97779800  1
  H  1789  1  0.80961100  0.57066800  0.00531100  1
  H  1790  1  0.83194000  0.55199200  0.01782300  1
  H  1791  1  0.79883000  0.53924700  0.01339900  1
  H  1792  1  0.85562000  0.47499000  0.98316900  1
  H  1794  1  0.88264600  0.53134700  0.01457300  1
  H  1795  1  0.89540700  0.50178800  0.00481900  1
  H  1796  1  0.90370800  0.50834300  0.02515900  1
  H  1803  1  0.77705700  0.42280600  0.70746100  1
  H  1810  1  0.75738000  0.48269500  0.75908600  1
  H  1811  1  0.73240300  0.48205400  0.78396900  1
  H  1812  1  0.75707100  0.40114900  0.79213200  1
  H  1813  1  0.84617500  0.45998000  0.72816600  1
  H  1815  1  0.84857700  0.47231200  0.75566600  1
  H  1816  1  0.82973000  0.44998800  0.76807800  1
  H  1817  1  0.81669100  0.48278000  0.76340100  1
  H  1818  1  0.75386400  0.42469600  0.73283200  1
  H  1820  1  0.80898000  0.39799100  0.76413900  1
  H  1821  1  0.77944700  0.38559500  0.75408900  1
  H  1822  1  0.78560700  0.37686300  0.77440300  1
  H  1829  1  0.78215800  0.57963200  0.20745000  1
  H  1836  1  0.80188900  0.51971600  0.25905800  1
  H  1837  1  0.82688200  0.52034900  0.28393600  1
  H  1838  1  0.80219700  0.60124600  0.29212100  1
  H  1839  1  0.71305700  0.54244800  0.22816600  1
  H  1841  1  0.71067500  0.53010900  0.25566800  1
  H  1842  1  0.72953900  0.55241900  0.26807800  1
  H  1843  1  0.74256500  0.51962700  0.26338800  1
  H  1844  1  0.80536800  0.57773300  0.23281400  1
  H  1846  1  0.75027200  0.60440900  0.26413900  1
  H  1847  1  0.77979500  0.61681200  0.25408300  1
  H  1848  1  0.77364900  0.62553600  0.27439900  1
  H  1855  1  0.36052800  0.49837100  0.55060300  1
  H  1862  1  0.30071200  0.47891400  0.49900300  1
  H  1863  1  0.30110300  0.45389500  0.47417000  1
  H  1864  1  0.38241300  0.47800400  0.46582200  1
  H  1865  1  0.32400600  0.56743400  0.52966100  1
  H  1867  1  0.31197600  0.56983100  0.50210700  1
  H  1868  1  0.33434400  0.55080800  0.48980300  1
  H  1869  1  0.30126400  0.53812900  0.49438700  1
  H  1870  1  0.35872600  0.47518800  0.52525400  1
  H  1872  1  0.38608900  0.52974100  0.49375600  1
  H  1873  1  0.39831300  0.50027200  0.50384500  1
  H  1874  1  0.40709400  0.50624200  0.48351600  1
  H  1881  1  0.19870100  0.50411400  0.05059200  1
  H  1888  1  0.25843900  0.52361800  0.99895300  1
  H  1889  1  0.25801000  0.54862000  0.97411600  1
  H  1890  1  0.17667900  0.52452700  0.96582300  1
  H  1891  1  0.23519400  0.43507500  0.02960400  1
  H  1893  1  0.24718500  0.43270800  0.00204500  1
  H  1894  1  0.22478700  0.45173800  0.98976400  1
  H  1895  1  0.25787700  0.46441600  0.99432300  1
  H  1896  1  0.20046600  0.52732300  0.02525100  1
  H  1898  1  0.17304400  0.47280300  0.99376500  1
  H  1899  1  0.16084200  0.50227400  0.00386200  1
  H  1900  1  0.15202400  0.49630300  0.98353800  1
  H  1907  1  0.28423500  0.57853100  0.30052600  1
  H  1914  1  0.30134800  0.51885600  0.24851200  1
  H  1915  1  0.32521100  0.51973700  0.22325000  1
  H  1916  1  0.29975400  0.60054400  0.21560600  1
  H  1917  1  0.21387300  0.54185800  0.28100700  1
  H  1919  1  0.21006000  0.52948900  0.25356700  1
  H  1920  1  0.22836000  0.55179500  0.24086200  1
  H  1921  1  0.24148100  0.51891900  0.24523800  1
  H  1922  1  0.30615300  0.57649800  0.27476500  1
  H  1924  1  0.24921200  0.60344200  0.24448900  1
  H  1925  1  0.27922700  0.61582500  0.25402800  1
  H  1926  1  0.27201900  0.62465500  0.23385000  1
  H  1933  1  0.27503300  0.42387000  0.80054500  1
  H  1940  1  0.25783200  0.48356800  0.74854600  1
  H  1941  1  0.23395000  0.48268700  0.72329100  1
  H  1942  1  0.25944200  0.40189600  0.71562500  1
  H  1943  1  0.34535600  0.46058600  0.78100600  1
  H  1945  1  0.34913600  0.47295700  0.75356400  1
  H  1946  1  0.33082300  0.45065700  0.74086100  1
  H  1947  1  0.31770300  0.48352900  0.74525300  1
  H  1948  1  0.25308800  0.42589900  0.77479100  1
  H  1950  1  0.31000600  0.39901000  0.74449200  1
  H  1951  1  0.28000800  0.38660700  0.75404200  1
  H  1952  1  0.28719900  0.37778900  0.73386100  1
  H  1959  1  0.28666200  0.04023800  0.08572900  1
  H  1966  1  0.28568900  0.96001100  0.12386500  1
  H  1967  1  0.30784300  0.93456100  0.14463400  1
  H  1968  1  0.32440000  0.00691700  0.17005000  1
  H  1969  1  0.21335200  0.03290200  0.11196800  1
  H  1971  1  0.21062800  0.01211300  0.13742600  1
  H  1972  1  0.24034500  0.01675900  0.14911500  1
  H  1973  1  0.23427700  0.98522500  0.13929900  1
  H  1974  1  0.31098700  0.01811600  0.10704800  1
  H  1976  1  0.28114400  0.04971600  0.14969200  1
  H  1977  1  0.31249100  0.05218800  0.13902400  1
  H  1978  1  0.31238200  0.05037700  0.16028700  1
  H  1985  1  0.27260300  0.96217900  0.58574200  1
  H  1992  1  0.27351900  0.04237300  0.62388400  1
  H  1993  1  0.25135100  0.06782600  0.64464600  1
  H  1994  1  0.23478600  0.99547600  0.67006500  1
  H  1995  1  0.34588300  0.96952500  0.61201000  1
  H  1997  1  0.34857000  0.99030300  0.63747300  1
  H  1998  1  0.31884500  0.98563500  0.64915000  1
  H  1999  1  0.32490500  0.01717500  0.63934400  1
  H  2000  1  0.24824600  0.98426900  0.60705900  1
  H  2002  1  0.27806300  0.95268300  0.64972400  1
  H  2003  1  0.24672600  0.95019000  0.63904500  1
  H  2004  1  0.24681600  0.95201600  0.66030900  1
  H  2011  1  0.23911300  0.00832600  0.33565300  1
  H  2018  1  0.32036700  0.00605600  0.37319900  1
  H  2019  1  0.34658200  0.02752900  0.39390500  1
  H  2020  1  0.27465700  0.04421000  0.41997800  1
  H  2021  1  0.24650700  0.93482000  0.36140600  1
  H  2023  1  0.26775700  0.93154300  0.38672200  1
  H  2024  1  0.26358100  0.96097800  0.39861700  1
  H  2025  1  0.29497500  0.95485700  0.38852700  1
  H  2026  1  0.26185700  0.03205300  0.35697800  1
  H  2028  1  0.23083700  0.00189100  0.39967900  1
  H  2029  1  0.22842600  0.03334200  0.38924100  1
  H  2030  1  0.23070800  0.03280300  0.41048700  1
  H  2037  1  0.32016000  0.99411200  0.83561400  1
  H  2044  1  0.23880100  0.99640800  0.87309100  1
  H  2045  1  0.21254100  0.97497900  0.89379700  1
  H  2046  1  0.28441700  0.95834900  0.91992900  1
  H  2047  1  0.31272800  0.06763900  0.86134000  1
  H  2049  1  0.29140400  0.07094200  0.88663400  1
  H  2050  1  0.29554900  0.04151700  0.89854100  1
  H  2051  1  0.26417800  0.04763700  0.88842700  1
  H  2052  1  0.29734300  0.97041000  0.85692100  1
  H  2054  1  0.32828800  0.00060400  0.89962700  1
  H  2055  1  0.33070300  0.96913200  0.88921100  1
  H  2056  1  0.32838600  0.96971000  0.91045400  1
  H  2063  1  0.77148500  0.96129100  0.92204000  1
  H  2070  1  0.77452600  0.04242800  0.88466700  1
  H  2071  1  0.75268500  0.06876100  0.86415400  1
  H  2072  1  0.73544900  0.99738300  0.83796200  1
  H  2073  1  0.84553500  0.96803300  0.89650600  1
  H  2075  1  0.84914700  0.98929800  0.87120600  1
  H  2076  1  0.81961400  0.98545500  0.85925300  1
  H  2077  1  0.82600300  0.01663300  0.86939000  1
  H  2078  1  0.74804300  0.98424500  0.90071700  1
  H  2080  1  0.77814000  0.95346700  0.85790300  1
  H  2081  1  0.74671300  0.95106900  0.86849700  1
  H  2082  1  0.74694600  0.95351800  0.84725700  1
  H  2089  1  0.78785700  0.04111700  0.42203400  1
  H  2096  1  0.78479800  0.95997700  0.38466100  1
  H  2097  1  0.80662500  0.93364500  0.36414400  1
  H  2098  1  0.82383800  0.00502300  0.33794700  1
  H  2099  1  0.71379300  0.03435200  0.39651300  1
  H  2101  1  0.71017200  0.01308300  0.37121600  1
  H  2102  1  0.73969700  0.01691500  0.35925600  1
  H  2103  1  0.73331600  0.98574800  0.36940600  1
  H  2104  1  0.81129100  0.01816600  0.40070700  1
  H  2106  1  0.78114900  0.04892700  0.35789400  1
  H  2107  1  0.81258200  0.05134300  0.36848100  1
  H  2108  1  0.81233700  0.04888700  0.34724100  1
  H  2115  1  0.81917900  0.99587100  0.67271000  1
  H  2122  1  0.73829500  0.99625500  0.63435500  1
  H  2123  1  0.71301800  0.97391700  0.61353900  1
  H  2124  1  0.78604000  0.95703800  0.58863100  1
  H  2125  1  0.81193400  0.06846300  0.64606700  1
  H  2127  1  0.79098100  0.07079700  0.62062000  1
  H  2128  1  0.79543900  0.04096600  0.60911400  1
  H  2129  1  0.76386300  0.04733900  0.61894600  1
  H  2130  1  0.79676700  0.97136700  0.65158600  1
  H  2132  1  0.82872700  0.00032200  0.60897200  1
  H  2133  1  0.83104800  0.96926500  0.61982400  1
  H  2134  1  0.82951300  0.96904100  0.59855500  1
  H  2141  1  0.74006700  0.00654600  0.17271400  1
  H  2148  1  0.82097500  0.00616700  0.13437200  1
  H  2149  1  0.84624200  0.02851200  0.11355600  1
  H  2150  1  0.77321600  0.04533600  0.08863700  1
  H  2151  1  0.74735400  0.93393200  0.14609700  1
  H  2153  1  0.76832900  0.93158200  0.12065700  1
  H  2154  1  0.76386100  0.96140100  0.10914000  1
  H  2155  1  0.79543700  0.95504800  0.11897700  1
  H  2156  1  0.76249000  0.03103700  0.15158900  1
  H  2158  1  0.73054800  0.00203600  0.10898400  1
  H  2159  1  0.72821500  0.03310000  0.11982900  1
  H  2160  1  0.72974900  0.03330900  0.09856000  1
  H  2167  1  0.78917700  0.54095000  0.58554200  1
  H  2174  1  0.78683700  0.46024400  0.62356600  1
  H  2175  1  0.80814300  0.43460700  0.64457700  1
  H  2176  1  0.82486300  0.50688100  0.67005100  1
  H  2177  1  0.71539600  0.53378100  0.61134500  1
  H  2179  1  0.71208500  0.51278100  0.63669700  1
  H  2180  1  0.74164400  0.51708100  0.64856700  1
  H  2181  1  0.73548200  0.48568900  0.63861300  1
  H  2182  1  0.81299700  0.51836300  0.60691300  1
  H  2184  1  0.78265300  0.55010000  0.64923700  1
  H  2185  1  0.81432700  0.55216900  0.63887900  1
  H  2186  1  0.81359100  0.55043500  0.66014000  1
  H  2193  1  0.77010400  0.46145700  0.08555400  1
  H  2200  1  0.77241300  0.54215900  0.12357700  1
  H  2201  1  0.75109900  0.56780200  0.14458000  1
  H  2202  1  0.73435400  0.49554000  0.17005700  1
  H  2203  1  0.84386000  0.46863500  0.11138100  1
  H  2205  1  0.84714500  0.48963900  0.13673300  1
  H  2206  1  0.81757500  0.48534100  0.14859600  1
  H  2207  1  0.82374200  0.51672700  0.13863900  1
  H  2208  1  0.74626100  0.48403800  0.10691800  1
  H  2210  1  0.77657700  0.45231800  0.14926100  1
  H  2211  1  0.74491100  0.45023400  0.13889400  1
  H  2212  1  0.74563000  0.45198000  0.16015500  1
  H  2219  1  0.73889600  0.50789700  0.83568000  1
  H  2226  1  0.81933300  0.50628100  0.87376900  1
  H  2227  1  0.84479100  0.52828200  0.89458900  1
  H  2228  1  0.77212900  0.54398600  0.92017600  1
  H  2229  1  0.74676200  0.43422200  0.86123000  1
  H  2231  1  0.76757100  0.43099300  0.88669300  1
  H  2232  1  0.76265100  0.46025300  0.89864200  1
  H  2233  1  0.79438600  0.45468900  0.88881600  1
  H  2234  1  0.76088400  0.53170700  0.85723900  1
  H  2236  1  0.72939400  0.50078600  0.89966100  1
  H  2237  1  0.72666000  0.53216900  0.88917700  1
  H  2238  1  0.72854800  0.53172100  0.91043700  1
  H  2245  1  0.82034400  0.49452900  0.33566100  1
  H  2252  1  0.73991100  0.49611400  0.37374800  1
  H  2253  1  0.71446100  0.47409500  0.39456400  1
  H  2254  1  0.78712900  0.45842100  0.42015400  1
  H  2255  1  0.81246200  0.56820500  0.36120500  1
  H  2257  1  0.79164700  0.57143300  0.38666900  1
  H  2258  1  0.79658900  0.54217700  0.39861800  1
  H  2259  1  0.76484300  0.54772500  0.38879900  1
  H  2260  1  0.79836200  0.47071700  0.35722100  1
  H  2262  1  0.82984600  0.50164500  0.39964200  1
  H  2263  1  0.83259200  0.47026700  0.38915500  1
  H  2264  1  0.83070600  0.47070900  0.41041600  1
  H  2271  1  0.27486300  0.46068800  0.42266300  1
  H  2278  1  0.27709600  0.54183900  0.38484500  1
  H  2279  1  0.25489600  0.56756000  0.36418600  1
  H  2280  1  0.23754000  0.49542600  0.33875300  1
  H  2281  1  0.34853300  0.46770500  0.39676000  1
  H  2283  1  0.35172200  0.48894500  0.37143700  1
  H  2284  1  0.32203000  0.48492500  0.35964400  1
  H  2285  1  0.32845100  0.51618400  0.36968900  1
  H  2286  1  0.25104100  0.48357000  0.40144900  1
  H  2288  1  0.28074700  0.45224100  0.35886000  1
  H  2289  1  0.24946100  0.44993100  0.36960600  1
  H  2290  1  0.24942500  0.45186600  0.34834800  1
  H  2297  1  0.28424300  0.54171300  0.92266600  1
  H  2304  1  0.28209600  0.46056400  0.88483300  1
  H  2305  1  0.30432000  0.43485700  0.86417800  1
  H  2306  1  0.32169500  0.50700600  0.83876500  1
  H  2307  1  0.21062600  0.53468400  0.89671200  1
  H  2309  1  0.20749000  0.51344000  0.87138800  1
  H  2310  1  0.23720500  0.51745300  0.85961400  1
  H  2311  1  0.23076700  0.48620300  0.86966200  1
  H  2312  1  0.30811200  0.51883900  0.90146700  1
  H  2314  1  0.27846100  0.55016900  0.85886000  1
  H  2315  1  0.30973300  0.55249100  0.86962100  1
  H  2316  1  0.30979800  0.55055700  0.84836300  1
  H  2323  1  0.31734100  0.49429500  0.17179600  1
  H  2330  1  0.23577300  0.49536900  0.13400400  1
  H  2331  1  0.21028500  0.47306500  0.11327500  1
  H  2332  1  0.28294800  0.45709400  0.08778200  1
  H  2333  1  0.30909500  0.56764000  0.14598100  1
  H  2335  1  0.28768400  0.57056400  0.12067500  1
  H  2336  1  0.29217000  0.54109000  0.10884900  1
  H  2337  1  0.26070200  0.54696800  0.11891000  1
  H  2338  1  0.29469300  0.47028300  0.15057500  1
  H  2340  1  0.32565800  0.50054800  0.10803200  1
  H  2341  1  0.32845700  0.46934500  0.11869600  1
  H  2342  1  0.32650800  0.46943900  0.09743800  1
  H  2349  1  0.24190200  0.50811900  0.67182300  1
  H  2356  1  0.32350300  0.50706000  0.63404600  1
  H  2357  1  0.34898600  0.52937900  0.61332100  1
  H  2358  1  0.27632000  0.54532900  0.58782400  1
  H  2359  1  0.25018900  0.43476800  0.64602000  1
  H  2361  1  0.27162500  0.43183900  0.62071900  1
  H  2362  1  0.26712600  0.46130900  0.60889100  1
  H  2363  1  0.29859800  0.45544600  0.61895200  1
  H  2364  1  0.26456600  0.53212800  0.65060700  1
  H  2366  1  0.23362300  0.50185100  0.60806900  1
  H  2367  1  0.23081400  0.53305200  0.61873400  1
  H  2368  1  0.23276500  0.53296200  0.59747600  1
  C  1  1  0.19834600  0.08381400  0.07459700  1
  C  2  1  0.21470000  0.07291000  0.08705100  1
  C  3  1  0.23295100  0.05125600  0.08412800  1
  C  4  1  0.23449200  0.04053600  0.06835600  1
  C  5  1  0.21811400  0.05083200  0.05569000  1
  C  6  1  0.19992700  0.07300300  0.05864000  1
  C  9  1  0.17867800  0.10380800  0.07896500  1
  C  10  1  0.15131900  0.09670300  0.08325700  1
  C  11  1  0.13172000  0.11796800  0.08542300  1
  C  12  1  0.14054900  0.14536500  0.08445000  1
  C  13  1  0.16791200  0.15241700  0.08117600  1
  C  14  1  0.18665400  0.13138600  0.07795500  1
  C  23  1  0.36091800  0.91865300  0.57460600  1
  C  24  1  0.34455900  0.92953500  0.58706600  1
  C  25  1  0.32632700  0.95120800  0.58415300  1
  C  26  1  0.32481500  0.96197100  0.56839100  1
  C  27  1  0.34116300  0.95167000  0.55571500  1
  C  28  1  0.35934700  0.92949000  0.55865400  1
  C  31  1  0.38058100  0.89864700  0.57896600  1
  C  32  1  0.40794400  0.90573700  0.58325500  1
  C  33  1  0.42752900  0.88445800  0.58541600  1
  C  34  1  0.41869100  0.85706500  0.58444700  1
  C  35  1  0.39132300  0.85003200  0.58117200  1
  C  36  1  0.37258800  0.87107200  0.57795600  1
  C  45  1  0.19572800  0.91997600  0.32413000  1
  C  46  1  0.20630900  0.93648600  0.33659900  1
  C  47  1  0.22791300  0.95486100  0.33374900  1
  C  48  1  0.23878600  0.95651100  0.31800900  1
  C  49  1  0.22875700  0.94007400  0.30531400  1
  C  50  1  0.20675500  0.92162400  0.30821700  1
  C  53  1  0.17633500  0.89972500  0.32853800  1
  C  54  1  0.18453100  0.87326600  0.33381300  1
  C  55  1  0.16405500  0.85286700  0.33607100  1
  C  56  1  0.13622100  0.86010700  0.33421700  1
  C  57  1  0.12802000  0.88661600  0.32989400  1
  C  58  1  0.14836900  0.90609700  0.32663100  1
  C  67  1  0.36358800  0.08245800  0.82410500  1
  C  68  1  0.35298300  0.06595400  0.83656900  1
  C  69  1  0.33138900  0.04757500  0.83370500  1
  C  70  1  0.32056700  0.04589000  0.81795400  1
  C  71  1  0.33062300  0.06232000  0.80526100  1
  C  72  1  0.35259500  0.08079600  0.80818300  1
  C  75  1  0.38296300  0.10271900  0.82852200  1
  C  76  1  0.37474400  0.12916000  0.83381400  1
  C  77  1  0.39520100  0.14956700  0.83610100  1
  C  78  1  0.42304400  0.14236200  0.83423600  1
  C  79  1  0.43127000  0.11587300  0.82988600  1
  C  80  1  0.41093700  0.09638100  0.82660800  1
  C  89  1  0.36477100  0.07960100  0.43136000  1
  C  90  1  0.34778700  0.06983900  0.41885500  1
  C  91  1  0.32877000  0.04882500  0.42164400  1
  C  92  1  0.32691100  0.03768000  0.43728700  1
  C  93  1  0.34383600  0.04688600  0.44998500  1
  C  94  1  0.36329400  0.06800000  0.44713600  1
  C  97  1  0.38424200  0.09996700  0.42729100  1
  C  98  1  0.41176900  0.09350000  0.42302800  1
  C  99  1  0.43101900  0.11517900  0.42123400  1
  C  100  1  0.42172300  0.14238600  0.42253800  1
  C  101  1  0.39423100  0.14881500  0.42585400  1
  C  102  1  0.37582500  0.12736300  0.42871500  1
  C  111  1  0.19439800  0.92294100  0.93134600  1
  C  112  1  0.21134300  0.93269900  0.91882100  1
  C  113  1  0.23030500  0.95377400  0.92157500  1
  C  114  1  0.23213400  0.96499900  0.93720000  1
  C  115  1  0.21526000  0.95578300  0.94991800  1
  C  116  1  0.19585600  0.93460600  0.94710700  1
  C  119  1  0.17508500  0.90238900  0.92734600  1
  C  120  1  0.14749500  0.90858400  0.92308200  1
  C  121  1  0.12840000  0.88673200  0.92142000  1
  C  122  1  0.13790400  0.85960300  0.92280400  1
  C  123  1  0.16543900  0.85349700  0.92616300  1
  C  124  1  0.18371300  0.87508300  0.92891000  1
  C  133  1  0.35995800  0.91696000  0.18192100  1
  C  134  1  0.35041300  0.93399100  0.16940000  1
  C  135  1  0.32942000  0.95307400  0.17212900  1
  C  136  1  0.31816400  0.95504600  0.18774800  1
  C  137  1  0.32718100  0.93811600  0.20046900  1
  C  138  1  0.34817700  0.91850300  0.19766300  1
  C  141  1  0.37967600  0.89687000  0.17778500  1
  C  142  1  0.37204100  0.87024600  0.17252900  1
  C  143  1  0.39287000  0.85009300  0.17065700  1
  C  144  1  0.42053800  0.85771600  0.17284700  1
  C  145  1  0.42819100  0.88436300  0.17720800  1
  C  146  1  0.40746600  0.90359800  0.18011400  1
  C  155  1  0.19925000  0.08546000  0.68193200  1
  C  156  1  0.20877900  0.06842200  0.66940900  1
  C  157  1  0.22975400  0.04932100  0.67213500  1
  C  158  1  0.24101300  0.04733900  0.68775500  1
  C  159  1  0.23201700  0.06428100  0.70047600  1
  C  160  1  0.21103300  0.08391000  0.69767100  1
  C  163  1  0.17954900  0.10556700  0.67779400  1
  C  164  1  0.18720900  0.13217500  0.67252200  1
  C  165  1  0.16639600  0.15233500  0.67062100  1
  C  166  1  0.13872200  0.14474600  0.67282200  1
  C  167  1  0.13104400  0.11811800  0.67721100  1
  C  168  1  0.15175500  0.09887300  0.68013200  1
  C  177  1  0.85875200  0.91670400  0.93439500  1
  C  178  1  0.84341000  0.92805300  0.92160700  1
  C  179  1  0.82500400  0.94972600  0.92420900  1
  C  180  1  0.82266900  0.96032900  0.93997700  1
  C  181  1  0.83809000  0.94971000  0.95295500  1
  C  182  1  0.85601400  0.92721500  0.95037100  1
  C  185  1  0.87855200  0.89655300  0.93037100  1
  C  186  1  0.90696300  0.90284900  0.92875900  1
  C  187  1  0.92568600  0.88116200  0.92561300  1
  C  188  1  0.91572100  0.85424600  0.92421600  1
  C  189  1  0.88789000  0.84793000  0.92632200  1
  C  190  1  0.86946800  0.86927300  0.92947400  1
  C  199  1  0.70061300  0.08573000  0.43438400  1
  C  200  1  0.71594800  0.07437100  0.42159700  1
  C  201  1  0.73433400  0.05268500  0.42420400  1
  C  202  1  0.73665500  0.04207900  0.43997300  1
  C  203  1  0.72126800  0.05274300  0.45295200  1
  C  204  1  0.70334600  0.07523700  0.45036400  1
  C  207  1  0.68077400  0.10583500  0.43034600  1
  C  208  1  0.65238500  0.09945600  0.42870200  1
  C  209  1  0.63362000  0.12108600  0.42550700  1
  C  210  1  0.64351600  0.14802900  0.42411800  1
  C  211  1  0.67131700  0.15442700  0.42628200  1
  C  212  1  0.68978800  0.13313700  0.42946100  1
  C  221  1  0.86237200  0.08449400  0.68363000  1
  C  222  1  0.85178700  0.06787400  0.67119800  1
  C  223  1  0.83022800  0.04943700  0.67408800  1
  C  224  1  0.81936300  0.04791900  0.68984000  1
  C  225  1  0.82933800  0.06447900  0.70249200  1
  C  226  1  0.85131300  0.08294500  0.69954700  1
  C  229  1  0.88218400  0.10443400  0.67929400  1
  C  230  1  0.87445700  0.13083000  0.67369000  1
  C  231  1  0.89517800  0.15102700  0.67172400  1
  C  232  1  0.92274800  0.14394900  0.67472800  1
  C  233  1  0.93071800  0.11775800  0.67991200  1
  C  234  1  0.90997000  0.09819100  0.68216900  1
  C  243  1  0.69686100  0.91792900  0.18363400  1
  C  244  1  0.70746300  0.93454100  0.17120400  1
  C  245  1  0.72901600  0.95297800  0.17410300  1
  C  246  1  0.73984000  0.95453100  0.18986300  1
  C  247  1  0.72984300  0.93798000  0.20251500  1
  C  248  1  0.70789400  0.91949200  0.19955500  1
  C  251  1  0.67706400  0.89797900  0.17928900  1
  C  252  1  0.68480700  0.87160300  0.17366200  1
  C  253  1  0.66410100  0.85140900  0.17164300  1
  C  254  1  0.63652500  0.85846100  0.17466200  1
  C  255  1  0.62853600  0.88463100  0.17987400  1
  C  256  1  0.64927200  0.90420400  0.18215400  1
  C  265  1  0.69706800  0.92092200  0.57563900  1
  C  266  1  0.71300600  0.93111600  0.58852600  1
  C  267  1  0.73208200  0.95222900  0.58612800  1
  C  268  1  0.73471000  0.96338500  0.57053000  1
  C  269  1  0.71879600  0.95389200  0.55745900  1
  C  270  1  0.69972000  0.93226800  0.55983800  1
  C  273  1  0.67743200  0.90044200  0.57939000  1
  C  274  1  0.64889200  0.90618700  0.58096200  1
  C  275  1  0.63047700  0.88405600  0.58366300  1
  C  276  1  0.64092000  0.85727600  0.58481800  1
  C  277  1  0.66887700  0.85153200  0.58276800  1
  C  278  1  0.68695300  0.87328400  0.57995800  1
  C  287  1  0.86217200  0.08151100  0.07565800  1
  C  288  1  0.84623600  0.07130300  0.08854300  1
  C  289  1  0.82716600  0.05018800  0.08613900  1
  C  290  1  0.82456300  0.03902800  0.07054000  1
  C  291  1  0.84046000  0.04854800  0.05746800  1
  C  292  1  0.85952400  0.07018200  0.05985300  1
  C  295  1  0.88181600  0.10198000  0.07942000  1
  C  296  1  0.91035200  0.09621600  0.08098900  1
  C  297  1  0.92877500  0.11833700  0.08369400  1
  C  298  1  0.91834700  0.14512000  0.08485900  1
  C  299  1  0.89038900  0.15088500  0.08281400  1
  C  300  1  0.87231000  0.12914200  0.07999000  1
  C  309  1  0.70050200  0.08763700  0.82672100  1
  C  310  1  0.71008600  0.07050300  0.83919800  1
  C  311  1  0.73099700  0.05133400  0.83639700  1
  C  312  1  0.74216500  0.04945200  0.82074600  1
  C  313  1  0.73315300  0.06649000  0.80807700  1
  C  314  1  0.71223600  0.08615500  0.81096200  1
  C  317  1  0.68034900  0.10740000  0.83076500  1
  C  318  1  0.68746500  0.13404400  0.83621800  1
  C  319  1  0.66635400  0.15394100  0.83777000  1
  C  320  1  0.63899500  0.14634300  0.83453000  1
  C  321  1  0.63163000  0.11990800  0.82947200  1
  C  322  1  0.65278200  0.10067200  0.82757100  1
  C  331  1  0.85878900  0.91476200  0.32670500  1
  C  332  1  0.84921100  0.93189300  0.33918400  1
  C  333  1  0.82830800  0.95107300  0.33638500  1
  C  334  1  0.81714000  0.95296600  0.32073400  1
  C  335  1  0.82614400  0.93592700  0.30806500  1
  C  336  1  0.84705700  0.91625600  0.31094500  1
  C  339  1  0.87893200  0.89499000  0.33074800  1
  C  340  1  0.87180500  0.86835500  0.33621000  1
  C  341  1  0.89291400  0.84846700  0.33779900  1
  C  342  1  0.92027800  0.85604700  0.33454900  1
  C  343  1  0.92765100  0.88247400  0.32948500  1
  C  344  1  0.90650500  0.90171600  0.32757200  1
  C  353  1  0.70043100  0.58465900  0.57452100  1
  C  354  1  0.71730700  0.57403200  0.58680700  1
  C  355  1  0.73554100  0.55242600  0.58376500  1
  C  356  1  0.73685300  0.54172100  0.56798500  1
  C  357  1  0.72010000  0.55186600  0.55544300  1
  C  358  1  0.70167100  0.57378300  0.55856600  1
  C  361  1  0.68031900  0.60402000  0.57918900  1
  C  362  1  0.65412400  0.59591000  0.58505200  1
  C  363  1  0.63376500  0.61631000  0.58756100  1
  C  364  1  0.64078100  0.64398800  0.58514400  1
  C  365  1  0.66703200  0.65232000  0.58008300  1
  C  366  1  0.68653000  0.63184700  0.57697000  1
  C  375  1  0.85883400  0.41775300  0.07454600  1
  C  376  1  0.84195800  0.42837400  0.08683500  1
  C  377  1  0.82375000  0.45000000  0.08379200  1
  C  378  1  0.82246500  0.46073100  0.06801900  1
  C  379  1  0.83918500  0.45055600  0.05547200  1
  C  380  1  0.85760800  0.42863200  0.05859200  1
  C  383  1  0.87894800  0.39839100  0.07921400  1
  C  384  1  0.90514400  0.40650300  0.08507200  1
  C  385  1  0.92550200  0.38610200  0.08757000  1
  C  386  1  0.91849400  0.35842100  0.08515600  1
  C  387  1  0.89224000  0.35009200  0.08009800  1
  C  388  1  0.87274300  0.37056600  0.07698600  1
  C  397  1  0.69492700  0.42059800  0.82384000  1
  C  398  1  0.70633100  0.43624500  0.83644300  1
  C  399  1  0.72807400  0.45444700  0.83361300  1
  C  400  1  0.73860600  0.45645900  0.81781400  1
  C  401  1  0.72785900  0.44074900  0.80500400  1
  C  402  1  0.70537300  0.42286300  0.80782000  1
  C  405  1  0.67473900  0.40111600  0.82824200  1
  C  406  1  0.68100900  0.37292700  0.83035200  1
  C  407  1  0.65935200  0.35473800  0.83451200  1
  C  408  1  0.63250200  0.36495000  0.83631000  1
  C  409  1  0.62618100  0.39263600  0.83386100  1
  C  410  1  0.64758200  0.41052800  0.82980900  1
  C  419  1  0.86432500  0.58182200  0.32382900  1
  C  420  1  0.85290900  0.56618000  0.33642900  1
  C  421  1  0.83116800  0.54798100  0.33359300  1
  C  422  1  0.82066700  0.54594000  0.31778800  1
  C  423  1  0.83143000  0.56164200  0.30497600  1
  C  424  1  0.85389300  0.57954900  0.30780600  1
  C  427  1  0.88451300  0.60129900  0.32823500  1
  C  428  1  0.87824900  0.62948800  0.33035100  1
  C  429  1  0.89990200  0.64766900  0.33452600  1
  C  430  1  0.92675000  0.63745000  0.33632700  1
  C  431  1  0.93306900  0.60976300  0.33387100  1
  C  432  1  0.91166800  0.59188300  0.32980600  1
  C  441  1  0.86232300  0.58043000  0.93152000  1
  C  442  1  0.84503900  0.57071000  0.91915900  1
  C  443  1  0.82615800  0.54964200  0.92207600  1
  C  444  1  0.82451400  0.53858100  0.93774500  1
  C  445  1  0.84167000  0.54782600  0.95032700  1
  C  446  1  0.86116500  0.56884400  0.94731100  1
  C  449  1  0.88220000  0.60020600  0.92714300  1
  C  450  1  0.90862800  0.59278700  0.92134300  1
  C  451  1  0.92861100  0.61366200  0.91918900  1
  C  452  1  0.92103800  0.64112500  0.92187300  1
  C  453  1  0.89455300  0.64877900  0.92689000  1
  C  454  1  0.87545000  0.62782400  0.92969700  1
  C  463  1  0.69693900  0.42195500  0.43150000  1
  C  464  1  0.71422600  0.43166800  0.41913700  1
  C  465  1  0.73310800  0.45273900  0.42205500  1
  C  466  1  0.73472800  0.46381800  0.43772100  1
  C  467  1  0.71759100  0.45455900  0.45030700  1
  C  468  1  0.69809800  0.43353900  0.44729100  1
  C  471  1  0.67704100  0.40219700  0.42711900  1
  C  472  1  0.65061000  0.40964900  0.42133800  1
  C  473  1  0.63059200  0.38880000  0.41920700  1
  C  474  1  0.63813700  0.36132700  0.42189100  1
  C  475  1  0.66462400  0.35364100  0.42688400  1
  C  476  1  0.68375700  0.37457300  0.42967900  1
  C  485  1  0.86073200  0.41781800  0.68223900  1
  C  486  1  0.85058800  0.43416500  0.66956100  1
  C  487  1  0.82943200  0.45307900  0.67218600  1
  C  488  1  0.81820300  0.45522800  0.68779500  1
  C  489  1  0.82769300  0.43889500  0.70067000  1
  C  490  1  0.84935600  0.41992000  0.69806600  1
  C  493  1  0.88119500  0.39842000  0.67812100  1
  C  494  1  0.87538100  0.37012500  0.67603900  1
  C  495  1  0.89747500  0.35211300  0.67242300  1
  C  496  1  0.92425700  0.36266400  0.67094500  1
  C  497  1  0.93009700  0.39045900  0.67333600  1
  C  498  1  0.90831300  0.40811900  0.67697800  1
  C  507  1  0.69849800  0.58462000  0.18223200  1
  C  508  1  0.70863600  0.56826600  0.16955700  1
  C  509  1  0.72978400  0.54934300  0.17218400  1
  C  510  1  0.74100500  0.54718900  0.18779400  1
  C  511  1  0.73152000  0.56353100  0.20066700  1
  C  512  1  0.70987000  0.58251600  0.19806000  1
  C  515  1  0.67803800  0.60402000  0.17811100  1
  C  516  1  0.68386100  0.63231300  0.17601500  1
  C  517  1  0.66177800  0.65032100  0.17237600  1
  C  518  1  0.63499100  0.63977600  0.17090500  1
  C  519  1  0.62913900  0.61198700  0.17331400  1
  C  520  1  0.65091900  0.59432700  0.17696800  1
  C  529  1  0.36253400  0.41613700  0.43421200  1
  C  530  1  0.34674100  0.42747400  0.42162600  1
  C  531  1  0.32842100  0.44911500  0.42447600  1
  C  532  1  0.32651900  0.45960300  0.44028900  1
  C  533  1  0.34243000  0.44900500  0.45306900  1
  C  534  1  0.36043200  0.42665600  0.45021800  1
  C  537  1  0.38254200  0.39643600  0.42984000  1
  C  538  1  0.41030800  0.40382100  0.42673200  1
  C  539  1  0.42945800  0.38271600  0.42323300  1
  C  540  1  0.42057600  0.35533600  0.42325000  1
  C  541  1  0.39372600  0.34773300  0.42749400  1
  C  542  1  0.37468700  0.36873700  0.43034500  1
  C  551  1  0.19659100  0.58631500  0.93414400  1
  C  552  1  0.21238700  0.57495100  0.92156800  1
  C  553  1  0.23067700  0.55329000  0.92443700  1
  C  554  1  0.23254300  0.54281600  0.94025400  1
  C  555  1  0.21666000  0.55348000  0.95302700  1
  C  556  1  0.19866800  0.57583100  0.95015800  1
  C  559  1  0.17661600  0.60603900  0.92974500  1
  C  560  1  0.14886000  0.59867800  0.92659300  1
  C  561  1  0.12977800  0.61980400  0.92301300  1
  C  562  1  0.13871100  0.64716700  0.92297100  1
  C  563  1  0.16552800  0.65476600  0.92729300  1
  C  564  1  0.18449600  0.63373200  0.93025000  1
  C  573  1  0.36122300  0.58194600  0.18330800  1
  C  574  1  0.34972200  0.56630900  0.17072000  1
  C  575  1  0.32824900  0.54778600  0.17363600  1
  C  576  1  0.31806600  0.54555500  0.18951400  1
  C  577  1  0.32887600  0.56126600  0.20230300  1
  C  578  1  0.35110900  0.57941400  0.19939200  1
  C  581  1  0.38094400  0.60194200  0.17894800  1
  C  582  1  0.37375300  0.62991400  0.17677700  1
  C  583  1  0.39502300  0.64901100  0.17350800  1
  C  584  1  0.42236600  0.63984900  0.17269000  1
  C  585  1  0.42980100  0.61262400  0.17582200  1
  C  586  1  0.40863900  0.59371200  0.17856900  1
  C  595  1  0.19800600  0.42046300  0.68331400  1
  C  596  1  0.20952700  0.43610300  0.67073300  1
  C  597  1  0.23099200  0.45462600  0.67366200  1
  C  598  1  0.24113000  0.45688300  0.68955000  1
  C  599  1  0.23029500  0.44117400  0.70233500  1
  C  600  1  0.20809100  0.42299900  0.69940300  1
  C  603  1  0.17829700  0.40046300  0.67893800  1
  C  604  1  0.18550200  0.37250000  0.67675100  1
  C  605  1  0.16425100  0.35340300  0.67343800  1
  C  606  1  0.13690600  0.36256100  0.67261000  1
  C  607  1  0.12945200  0.38977500  0.67576100  1
  C  608  1  0.15060300  0.40868900  0.67853500  1
  C  617  1  0.19364300  0.42040700  0.07564400  1
  C  618  1  0.21006700  0.43050400  0.08832800  1
  C  619  1  0.22897500  0.45168700  0.08571700  1
  C  620  1  0.23104100  0.46290000  0.07010300  1
  C  621  1  0.21459000  0.45350200  0.05723900  1
  C  622  1  0.19553300  0.43194100  0.05985600  1
  C  625  1  0.17385200  0.40028200  0.07970100  1
  C  626  1  0.14583800  0.40695700  0.08259800  1
  C  627  1  0.12702100  0.38531600  0.08556100  1
  C  628  1  0.13653300  0.35814200  0.08538100  1
  C  629  1  0.16370300  0.35127600  0.08143400  1
  C  630  1  0.18232700  0.37277600  0.07899200  1
  C  639  1  0.36560900  0.58205000  0.57568900  1
  C  640  1  0.34919500  0.57194000  0.58837400  1
  C  641  1  0.33028600  0.55075900  0.58576000  1
  C  642  1  0.32823100  0.53954800  0.57014600  1
  C  643  1  0.34465500  0.54897400  0.55727700  1
  C  644  1  0.36371100  0.57053700  0.55989600  1
  C  647  1  0.38540700  0.60216800  0.57975000  1
  C  648  1  0.41341700  0.59548100  0.58264400  1
  C  649  1  0.43224200  0.61711500  0.58560300  1
  C  650  1  0.42274000  0.64429300  0.58542400  1
  C  651  1  0.39557500  0.65117000  0.58147200  1
  C  652  1  0.37694600  0.62967600  0.57902300  1
  C  661  1  0.20150500  0.58472400  0.32682800  1
  C  662  1  0.21187500  0.56842900  0.33947900  1
  C  663  1  0.23277500  0.54924700  0.33671300  1
  C  664  1  0.24345300  0.54679900  0.32097700  1
  C  665  1  0.23372300  0.56304800  0.30813000  1
  C  666  1  0.21241000  0.58234100  0.31089700  1
  C  669  1  0.18147300  0.60457800  0.33096200  1
  C  670  1  0.18811100  0.63272000  0.33297700  1
  C  671  1  0.16640700  0.65155000  0.33579400  1
  C  672  1  0.13921600  0.64190200  0.33650000  1
  C  673  1  0.13235000  0.61446400  0.33359700  1
  C  674  1  0.15391300  0.59589200  0.33116700  1
  C  683  1  0.35774500  0.41770200  0.82683700  1
  C  684  1  0.34737200  0.43399900  0.83948700  1
  C  685  1  0.32647600  0.45318500  0.83672200  1
  C  686  1  0.31580900  0.45563900  0.82098100  1
  C  687  1  0.32554000  0.43938700  0.80813600  1
  C  688  1  0.34684500  0.42008900  0.81090500  1
  C  691  1  0.37776700  0.39784400  0.83097600  1
  C  692  1  0.37112100  0.36970600  0.83300000  1
  C  693  1  0.39281300  0.35087300  0.83585000  1
  C  694  1  0.42000400  0.36051900  0.83655900  1
  C  695  1  0.42688300  0.38795200  0.83364400  1
  C  696  1  0.40532900  0.40652800  0.83120200  1
  C  705  1  0.17114800  0.32336200  0.07919800  1
  C  706  1  0.19530700  0.31226900  0.08589200  1
  C  707  1  0.20114200  0.28401600  0.08508100  1
  C  708  1  0.18238100  0.26644600  0.07708800  1
  C  709  1  0.15889800  0.27765100  0.06976100  1
  C  710  1  0.15357800  0.30562800  0.07064100  1
  C  712  1  0.18363400  0.23755000  0.07812600  1
  C  713  1  0.17420100  0.22564300  0.09261900  1
  C  714  1  0.17017500  0.19746100  0.09377100  1
  C  715  1  0.17555100  0.18032000  0.08048100  1
  C  716  1  0.18600400  0.19202900  0.06616900  1
  C  717  1  0.18976400  0.22054100  0.06468300  1
  C  722  1  0.22649300  0.27321000  0.09263000  1
  C  727  1  0.19947400  0.23214300  0.04911800  1
  C  731  1  0.38813600  0.67909000  0.57924100  1
  C  732  1  0.36395600  0.69017300  0.58591300  1
  C  733  1  0.35811100  0.71842600  0.58509500  1
  C  734  1  0.37688900  0.73600200  0.57712200  1
  C  735  1  0.40040100  0.72480600  0.56982200  1
  C  736  1  0.40571100  0.69682600  0.57068900  1
  C  738  1  0.37561000  0.76489800  0.57815000  1
  C  739  1  0.38495900  0.77682900  0.59265500  1
  C  740  1  0.38898400  0.80501300  0.59379600  1
  C  741  1  0.38366000  0.82213500  0.58049000  1
  C  742  1  0.37325600  0.81040300  0.56617200  1
  C  743  1  0.36951100  0.78188800  0.56469300  1
  C  748  1  0.33273000  0.72921800  0.59261400  1
  C  753  1  0.35986800  0.77026400  0.54912000  1
  C  757  1  0.95568600  0.88907200  0.32638500  1
  C  758  1  0.96751000  0.91328500  0.33247200  1
  C  759  1  0.99598400  0.91834400  0.33150300  1
  C  760  1  0.01313500  0.89860200  0.32405400  1
  C  761  1  0.00124800  0.87511200  0.31719100  1
  C  762  1  0.97299700  0.87057100  0.31822600  1
  C  764  1  0.04216900  0.89947900  0.32507900  1
  C  765  1  0.05382700  0.89174200  0.34000700  1
  C  766  1  0.08214300  0.88840800  0.34165300  1
  C  767  1  0.09973600  0.89276100  0.32841700  1
  C  768  1  0.08823800  0.90100900  0.31355200  1
  C  769  1  0.05962100  0.90415400  0.31159200  1
  C  774  1  0.00740200  0.94391000  0.33837600  1
  C  779  1  0.04945000  0.91186600  0.29530000  1
  C  783  1  0.60360300  0.11330600  0.82635900  1
  C  784  1  0.59175300  0.08912600  0.83247400  1
  C  785  1  0.56328000  0.08407300  0.83149000  1
  C  786  1  0.54615700  0.10378700  0.82399600  1
  C  787  1  0.55806400  0.12724900  0.81711000  1
  C  788  1  0.58631000  0.13179300  0.81817500  1
  C  790  1  0.51712100  0.10297900  0.82503500  1
  C  791  1  0.50549300  0.11081800  0.83995400  1
  C  792  1  0.47718200  0.11416500  0.84161200  1
  C  793  1  0.45956300  0.10976300  0.82839300  1
  C  794  1  0.47103500  0.10144300  0.81353500  1
  C  795  1  0.49964400  0.09825200  0.81156600  1
  C  800  1  0.55183500  0.05854300  0.83839300  1
  C  805  1  0.50978200  0.09043300  0.79528500  1
  C  809  1  0.38707200  0.31958300  0.42958900  1
  C  810  1  0.36287500  0.30804600  0.42321000  1
  C  811  1  0.35780400  0.27963300  0.42385000  1
  C  812  1  0.37741600  0.26233700  0.43132500  1
  C  813  1  0.40095700  0.27394900  0.43835700  1
  C  814  1  0.40549400  0.30207500  0.43767500  1
  C  816  1  0.37684800  0.23345200  0.43003200  1
  C  817  1  0.38582700  0.22216100  0.41526500  1
  C  818  1  0.39046100  0.19411600  0.41376500  1
  C  819  1  0.38609100  0.17651400  0.42696600  1
  C  820  1  0.37615100  0.18757800  0.44157800  1
  C  821  1  0.37184000  0.21595200  0.44341800  1
  C  826  1  0.33234800  0.26837900  0.41666600  1
  C  831  1  0.36273900  0.22690500  0.45927300  1
  C  835  1  0.17221700  0.68292900  0.92937400  1
  C  836  1  0.19677900  0.69428600  0.92337800  1
  C  837  1  0.20209200  0.72264800  0.92414300  1
  C  838  1  0.18229700  0.74011100  0.93131300  1
  C  839  1  0.15838200  0.72866800  0.93800000  1
  C  840  1  0.15363900  0.70058300  0.93722400  1
  C  842  1  0.18339600  0.76902900  0.93034700  1
  C  843  1  0.17664700  0.78073900  0.91526900  1
  C  844  1  0.17185700  0.80877100  0.91380600  1
  C  845  1  0.17384200  0.82594700  0.92738200  1
  C  846  1  0.18137500  0.81453300  0.94238000  1
  C  847  1  0.18591300  0.78619500  0.94414400  1
  C  852  1  0.22813400  0.73361500  0.91755200  1
  C  857  1  0.19236900  0.77593200  0.96060500  1
  C  861  1  0.60029100  0.89059200  0.18275600  1
  C  862  1  0.58810000  0.91465600  0.17671800  1
  C  863  1  0.55948400  0.91902400  0.17739800  1
  C  864  1  0.54256700  0.89872000  0.18449800  1
  C  865  1  0.55478900  0.87538600  0.19133800  1
  C  866  1  0.58316600  0.87154000  0.19060200  1
  C  868  1  0.51355700  0.89891500  0.18314400  1
  C  869  1  0.50257400  0.89125600  0.16802200  1
  C  870  1  0.47440200  0.88728700  0.16602200  1
  C  871  1  0.45629400  0.89094400  0.17908500  1
  C  872  1  0.46710200  0.89906400  0.19415200  1
  C  873  1  0.49556600  0.90281000  0.19647000  1
  C  878  1  0.54768100  0.94446600  0.17059100  1
  C  883  1  0.50501300  0.91031400  0.21294800  1
  C  887  1  0.95895300  0.11177500  0.68280200  1
  C  888  1  0.97116100  0.08775800  0.67671000  1
  C  889  1  0.99977600  0.08338900  0.67739800  1
  C  890  1  0.01667500  0.10364300  0.68456200  1
  C  891  1  0.00444200  0.12693300  0.69144900  1
  C  892  1  0.97606800  0.13079100  0.69068800  1
  C  894  1  0.04568300  0.10351600  0.68318600  1
  C  895  1  0.05662500  0.11132000  0.66807900  1
  C  896  1  0.08478900  0.11530900  0.66606400  1
  C  897  1  0.10293200  0.11157000  0.67910200  1
  C  898  1  0.09216200  0.10333600  0.69415700  1
  C  899  1  0.06370700  0.09953500  0.69648800  1
  C  904  1  0.01160000  0.05800200  0.67053400  1
  C  909  1  0.05430400  0.09188000  0.71294900  1
  C  913  1  0.88760200  0.67685200  0.92910100  1
  C  914  1  0.86288900  0.68764000  0.92291700  1
  C  915  1  0.85696600  0.71586800  0.92341000  1
  C  916  1  0.87638800  0.73386800  0.93042700  1
  C  917  1  0.90058800  0.72310600  0.93718100  1
  C  918  1  0.90599200  0.69508000  0.93661100  1
  C  920  1  0.87413600  0.76270800  0.92947500  1
  C  921  1  0.88140200  0.77492500  0.91462500  1
  C  922  1  0.88431900  0.80324400  0.91330500  1
  C  923  1  0.87979000  0.82018800  0.92677600  1
  C  924  1  0.87169900  0.80813800  0.94150900  1
  C  925  1  0.86899000  0.77955200  0.94314000  1
  C  930  1  0.83079200  0.72613200  0.91659800  1
  C  935  1  0.86169400  0.76876900  0.95936200  1
  C  939  1  0.67154800  0.32555700  0.42908900  1
  C  940  1  0.69625700  0.31475500  0.42290900  1
  C  941  1  0.70214100  0.28651700  0.42337900  1
  C  942  1  0.68270500  0.26852500  0.43039200  1
  C  943  1  0.65851900  0.27930500  0.43715100  1
  C  944  1  0.65315000  0.30734000  0.43660400  1
  C  946  1  0.68494800  0.23968500  0.42943800  1
  C  947  1  0.67769900  0.22746400  0.41458700  1
  C  948  1  0.67480400  0.19913900  0.41326800  1
  C  949  1  0.67935600  0.18218500  0.42673400  1
  C  950  1  0.68745100  0.19425400  0.44146300  1
  C  951  1  0.69013400  0.22284300  0.44309800  1
  C  956  1  0.72829900  0.27623600  0.41655300  1
  C  961  1  0.69743600  0.23362700  0.45931900  1
  C  965  1  0.67331700  0.68060000  0.57811100  1
  C  966  1  0.69785600  0.69179300  0.58428000  1
  C  967  1  0.70304600  0.72017800  0.58409000  1
  C  968  1  0.68305600  0.73790700  0.57739400  1
  C  969  1  0.65905600  0.72676100  0.57061500  1
  C  970  1  0.65438600  0.69859600  0.57087500  1
  C  972  1  0.68463600  0.76676200  0.57862400  1
  C  973  1  0.67733000  0.77836600  0.59364300  1
  C  974  1  0.67367900  0.80656100  0.59527100  1
  C  975  1  0.67750900  0.82398900  0.58194300  1
  C  976  1  0.68554900  0.81256900  0.56702800  1
  C  977  1  0.68897700  0.78411900  0.56508900  1
  C  982  1  0.72905900  0.73087800  0.59088200  1
  C  987  1  0.69617700  0.77399500  0.54870300  1
  C  991  1  0.88595200  0.32181300  0.07812500  1
  C  992  1  0.86142400  0.31061600  0.08430800  1
  C  993  1  0.85622700  0.28223300  0.08410800  1
  C  994  1  0.87620000  0.26450800  0.07738800  1
  C  995  1  0.90019200  0.27565600  0.07060200  1
  C  996  1  0.90487700  0.30382100  0.07088100  1
  C  998  1  0.87465100  0.23565500  0.07863500  1
  C  999  1  0.88200800  0.22407800  0.09365300  1
  C  1000  1  0.88564100  0.19588500  0.09530100  1
  C  1001  1  0.88178400  0.17843600  0.08198900  1
  C  1002  1  0.87374400  0.18982900  0.06706500  1
  C  1003  1  0.87029300  0.21827400  0.06511200  1
  C  1008  1  0.83022400  0.27152700  0.09091100  1
  C  1013  1  0.86305300  0.22836800  0.04872600  1
  C  1017  1  0.45493900  0.39577400  0.83226900  1
  C  1018  1  0.46545100  0.41920400  0.84002400  1
  C  1019  1  0.49376200  0.42543100  0.83986700  1
  C  1020  1  0.51196600  0.40784200  0.83146100  1
  C  1021  1  0.50136800  0.38506400  0.82317300  1
  C  1022  1  0.47333700  0.37933700  0.82342500  1
  C  1024  1  0.54092300  0.40969800  0.83260000  1
  C  1025  1  0.55318300  0.39887200  0.84664700  1
  C  1026  1  0.58150700  0.39472200  0.84742900  1
  C  1027  1  0.59843200  0.40133600  0.83420500  1
  C  1028  1  0.58633400  0.41338800  0.82044300  1
  C  1029  1  0.55771700  0.41738400  0.81932700  1
  C  1034  1  0.50396100  0.44997800  0.84847100  1
  C  1039  1  0.54578300  0.42874200  0.80424000  1
  C  1043  1  0.10429800  0.60662700  0.33222800  1
  C  1044  1  0.09380300  0.58318700  0.33998200  1
  C  1045  1  0.06549000  0.57696800  0.33984800  1
  C  1046  1  0.04727300  0.59454700  0.33144400  1
  C  1047  1  0.05785900  0.61731900  0.32314600  1
  C  1048  1  0.08589100  0.62303900  0.32337500  1
  C  1050  1  0.01831700  0.59268500  0.33259300  1
  C  1051  1  0.00606700  0.60347700  0.34665200  1
  C  1052  1  0.97774400  0.60764400  0.34743800  1
  C  1053  1  0.96082300  0.60106900  0.33420400  1
  C  1054  1  0.97289900  0.58899500  0.32044300  1
  C  1055  1  0.00151600  0.58499200  0.31932400  1
  C  1060  1  0.05530500  0.55243400  0.34846900  1
  C  1065  1  0.01344000  0.57363300  0.30423300  1
  C  1069  1  0.10121400  0.39700200  0.67695700  1
  C  1070  1  0.09041800  0.42043300  0.66933900  1
  C  1071  1  0.06196600  0.42599100  0.66922400  1
  C  1072  1  0.04391200  0.40770600  0.67721200  1
  C  1073  1  0.05476500  0.38497000  0.68541900  1
  C  1074  1  0.08292600  0.37991500  0.68544400  1
  C  1076  1  0.01496700  0.40898400  0.67577200  1
  C  1077  1  0.00340000  0.39815700  0.66151600  1
  C  1078  1  0.97519600  0.39344400  0.66037300  1
  C  1079  1  0.95771500  0.39952300  0.67343100  1
  C  1080  1  0.96909900  0.41149100  0.68742500  1
  C  1081  1  0.99758600  0.41601100  0.68890800  1
  C  1086  1  0.05146800  0.45054500  0.66075700  1
  C  1091  1  0.00879200  0.42723400  0.70422500  1
  C  1095  1  0.45803200  0.60537500  0.17702100  1
  C  1096  1  0.46883200  0.58198500  0.16936100  1
  C  1097  1  0.49728200  0.57641900  0.16925000  1
  C  1098  1  0.51532900  0.59464500  0.17728900  1
  C  1099  1  0.50447600  0.61735100  0.18552500  1
  C  1100  1  0.47631600  0.62242500  0.18553600  1
  C  1102  1  0.54427300  0.59342800  0.17582200  1
  C  1103  1  0.55579000  0.60433100  0.16157200  1
  C  1104  1  0.58398900  0.60904900  0.16039900  1
  C  1105  1  0.60151000  0.60294700  0.17343100  1
  C  1106  1  0.59017100  0.59095900  0.18743200  1
  C  1107  1  0.56169700  0.58638800  0.18893500  1
  C  1112  1  0.50778400  0.55190700  0.16074200  1
  C  1117  1  0.55054800  0.57508800  0.20424600  1
  C  1121  1  0.10288600  0.11333300  0.08683800  1
  C  1122  1  0.08898400  0.09684500  0.07548000  1
  C  1123  1  0.06019100  0.09414500  0.07550000  1
  C  1124  1  0.04473700  0.10972600  0.08673400  1
  C  1125  1  0.05843100  0.12578300  0.09832700  1
  C  1126  1  0.08708000  0.12725800  0.09849700  1
  C  1128  1  0.01585000  0.11202700  0.08565600  1
  C  1129  1  0.99944100  0.09766600  0.09681100  1
  C  1130  1  0.97080300  0.09973600  0.09628800  1
  C  1131  1  0.95782500  0.11548800  0.08427400  1
  C  1132  1  0.97439300  0.13009100  0.07327800  1
  C  1133  1  0.00324400  0.12918100  0.07397100  1
  C  1138  1  0.04687500  0.07497900  0.06399700  1
  C  1143  1  0.01942600  0.14707900  0.06301800  1
  C  1147  1  0.45636500  0.88908200  0.58684100  1
  C  1148  1  0.47027300  0.90556600  0.57548300  1
  C  1149  1  0.49906600  0.90825000  0.57550100  1
  C  1150  1  0.51451800  0.89265400  0.58673000  1
  C  1151  1  0.50081700  0.87659300  0.59831700  1
  C  1152  1  0.47216400  0.87516000  0.59850600  1
  C  1154  1  0.54340300  0.89034400  0.58564900  1
  C  1155  1  0.55981500  0.90470900  0.59680000  1
  C  1156  1  0.58845500  0.90263300  0.59627500  1
  C  1157  1  0.60142700  0.88689400  0.58425200  1
  C  1158  1  0.58485300  0.87229300  0.57325900  1
  C  1159  1  0.55600300  0.87319900  0.57395800  1
  C  1164  1  0.51238900  0.92741400  0.56399900  1
  C  1169  1  0.53981700  0.85530200  0.56300600  1
  C  1173  1  0.17009700  0.82456100  0.33833200  1
  C  1174  1  0.18802300  0.81087600  0.32765100  1
  C  1175  1  0.19178300  0.78233800  0.32820200  1
  C  1176  1  0.17591300  0.76687800  0.33928800  1
  C  1177  1  0.15862400  0.78040300  0.35032600  1
  C  1178  1  0.15608700  0.80886300  0.35000000  1
  C  1180  1  0.17375400  0.73812100  0.33807300  1
  C  1181  1  0.18755900  0.72158800  0.34940300  1
  C  1182  1  0.18532300  0.69306900  0.34875000  1
  C  1183  1  0.16991600  0.68039900  0.33646200  1
  C  1184  1  0.15602600  0.69709400  0.32522500  1
  C  1185  1  0.15708500  0.72579700  0.32602500  1
  C  1190  1  0.21206500  0.76925100  0.31726500  1
  C  1195  1  0.13980500  0.74208500  0.31476900  1
  C  1199  1  0.38914100  0.17787100  0.83835500  1
  C  1200  1  0.37122600  0.19155400  0.82766700  1
  C  1201  1  0.36744000  0.22008700  0.82822700  1
  C  1202  1  0.38326500  0.23554400  0.83933300  1
  C  1203  1  0.40054200  0.22202500  0.85038400  1
  C  1204  1  0.40312600  0.19357100  0.85003400  1
  C  1206  1  0.38545000  0.26430300  0.83812300  1
  C  1207  1  0.37163400  0.28083700  0.84944600  1
  C  1208  1  0.37387300  0.30935600  0.84879300  1
  C  1209  1  0.38930100  0.32202500  0.83651300  1
  C  1210  1  0.40321600  0.30532500  0.82529000  1
  C  1211  1  0.40214600  0.27662300  0.82608800  1
  C  1216  1  0.34717600  0.23317700  0.81727900  1
  C  1221  1  0.41944000  0.26033000  0.81484100  1
  C  1225  1  0.45995300  0.11111500  0.41999400  1
  C  1226  1  0.47391500  0.09477200  0.43139800  1
  C  1227  1  0.50277400  0.09296000  0.43174300  1
  C  1228  1  0.51815200  0.10917800  0.42079300  1
  C  1229  1  0.50440800  0.12501500  0.40911700  1
  C  1230  1  0.47574200  0.12569700  0.40861400  1
  C  1232  1  0.54689900  0.11236800  0.42227700  1
  C  1233  1  0.56417700  0.09831100  0.41145200  1
  C  1234  1  0.59271100  0.10118400  0.41240400  1
  C  1235  1  0.60469800  0.11752800  0.42449900  1
  C  1236  1  0.58727400  0.13184300  0.43515300  1
  C  1237  1  0.55849900  0.13002200  0.43406500  1
  C  1242  1  0.51626500  0.07416900  0.44339000  1
  C  1247  1  0.54132300  0.14740800  0.44477200  1
  C  1251  1  0.09943100  0.89059600  0.92022800  1
  C  1252  1  0.08547100  0.90705600  0.93157600  1
  C  1253  1  0.05661400  0.90886300  0.93193000  1
  C  1254  1  0.04122600  0.89250100  0.92106200  1
  C  1255  1  0.05496300  0.87647100  0.90947400  1
  C  1256  1  0.08363200  0.87582400  0.90894200  1
  C  1258  1  0.01245800  0.88945900  0.92251400  1
  C  1259  1  0.99529600  0.90352100  0.91162600  1
  C  1260  1  0.96674400  0.90080400  0.91254100  1
  C  1261  1  0.95462400  0.88462300  0.92466600  1
  C  1262  1  0.97192500  0.87032300  0.93539700  1
  C  1263  1  0.00071600  0.87199400  0.93435100  1
  C  1268  1  0.04313800  0.92781700  0.94349000  1
  C  1273  1  0.01776100  0.85465100  0.94515400  1
  C  1277  1  0.38729000  0.82166700  0.16856200  1
  C  1278  1  0.36939700  0.80797000  0.17925600  1
  C  1279  1  0.36634300  0.77933400  0.17905400  1
  C  1280  1  0.38278900  0.76386200  0.16827300  1
  C  1281  1  0.39998200  0.77738700  0.15718200  1
  C  1282  1  0.40189600  0.80589800  0.15718800  1
  C  1284  1  0.38567400  0.73523100  0.16991100  1
  C  1285  1  0.37216500  0.71789500  0.15888800  1
  C  1286  1  0.37506200  0.68947300  0.15998500  1
  C  1287  1  0.39090900  0.67772700  0.17240000  1
  C  1288  1  0.40451000  0.69521600  0.18332600  1
  C  1289  1  0.40270100  0.72384100  0.18210800  1
  C  1294  1  0.34629600  0.76614300  0.19009500  1
  C  1299  1  0.41950000  0.74103700  0.19313800  1
  C  1303  1  0.17199300  0.18075900  0.66853100  1
  C  1304  1  0.18987300  0.19445800  0.67923100  1
  C  1305  1  0.19295100  0.22308900  0.67901800  1
  C  1306  1  0.17655000  0.23855500  0.66821200  1
  C  1307  1  0.15937700  0.22503300  0.65710800  1
  C  1308  1  0.15741500  0.19652400  0.65714200  1
  C  1310  1  0.17363100  0.26718600  0.66984500  1
  C  1311  1  0.18715600  0.28452900  0.65883100  1
  C  1312  1  0.18425000  0.31294800  0.65992900  1
  C  1313  1  0.16837200  0.32468800  0.67233200  1
  C  1314  1  0.15474400  0.30719300  0.68324200  1
  C  1315  1  0.15657100  0.27856800  0.68202700  1
  C  1320  1  0.21297400  0.23628600  0.69007200  1
  C  1325  1  0.13975500  0.26136400  0.69304300  1
  C  1329  1  0.88955800  0.17925900  0.66895400  1
  C  1330  1  0.87215300  0.19371800  0.67956200  1
  C  1331  1  0.86973100  0.22239900  0.67897700  1
  C  1332  1  0.88620300  0.23708000  0.66782200  1
  C  1333  1  0.90278300  0.22274900  0.65676100  1
  C  1334  1  0.90419000  0.19421600  0.65721400  1
  C  1336  1  0.88965400  0.26571700  0.66898300  1
  C  1337  1  0.87547100  0.28279500  0.65812200  1
  C  1338  1  0.87819200  0.31123900  0.65905600  1
  C  1339  1  0.89452400  0.32328200  0.67115500  1
  C  1340  1  0.90909000  0.30605600  0.68177900  1
  C  1341  1  0.90735700  0.27739200  0.68074100  1
  C  1346  1  0.85046900  0.23648200  0.69011600  1
  C  1351  1  0.92463300  0.26040000  0.69161700  1
  C  1355  1  0.66971900  0.82317500  0.16888100  1
  C  1356  1  0.68711200  0.80872500  0.17950200  1
  C  1357  1  0.68950800  0.78004100  0.17893600  1
  C  1358  1  0.67304700  0.76535400  0.16777600  1
  C  1359  1  0.65649000  0.77968400  0.15670200  1
  C  1360  1  0.65513500  0.80822000  0.15712100  1
  C  1362  1  0.66959400  0.73671900  0.16894000  1
  C  1363  1  0.68378800  0.71963900  0.15808600  1
  C  1364  1  0.68105800  0.69119500  0.15901600  1
  C  1365  1  0.66473000  0.67915400  0.17111600  1
  C  1366  1  0.65015000  0.69638000  0.18173400  1
  C  1367  1  0.65187700  0.72504600  0.18069400  1
  C  1372  1  0.70873800  0.76596000  0.19009500  1
  C  1377  1  0.63458200  0.74203800  0.19155500  1
  C  1381  1  0.67140900  0.18232800  0.84031800  1
  C  1382  1  0.68861600  0.19681900  0.82961100  1
  C  1383  1  0.69021500  0.22557600  0.82979600  1
  C  1384  1  0.67323100  0.24023000  0.84069600  1
  C  1385  1  0.65691700  0.22589100  0.85188900  1
  C  1386  1  0.65625500  0.19732200  0.85180500  1
  C  1388  1  0.66908000  0.26872300  0.83915100  1
  C  1389  1  0.68315000  0.28655600  0.84962700  1
  C  1390  1  0.67979400  0.31488400  0.84828700  1
  C  1391  1  0.66286400  0.32604000  0.83617700  1
  C  1392  1  0.64841400  0.30807800  0.82594100  1
  C  1393  1  0.65087400  0.27951100  0.82736000  1
  C  1398  1  0.70906500  0.23975600  0.81845800  1
  C  1403  1  0.63392600  0.26167100  0.81679000  1
  C  1407  1  0.88785800  0.82007200  0.34032000  1
  C  1408  1  0.87067500  0.80558400  0.32960100  1
  C  1409  1  0.86905300  0.77682900  0.32979000  1
  C  1410  1  0.88599400  0.76217700  0.34071200  1
  C  1411  1  0.90228000  0.77650600  0.35192400  1
  C  1412  1  0.90298500  0.80507400  0.35181900  1
  C  1414  1  0.89017100  0.73368400  0.33917100  1
  C  1415  1  0.87609000  0.71584700  0.34963900  1
  C  1416  1  0.87945000  0.68752000  0.34829700  1
  C  1417  1  0.89639400  0.67636800  0.33619300  1
  C  1418  1  0.91085900  0.69433300  0.32596600  1
  C  1419  1  0.90839300  0.72290300  0.32738700  1
  C  1424  1  0.85022200  0.76265100  0.31844200  1
  C  1429  1  0.92535500  0.74074400  0.31682800  1
  C  1433  1  0.60547800  0.61024700  0.59030700  1
  C  1434  1  0.59136900  0.59226600  0.57987100  1
  C  1435  1  0.56269600  0.58889300  0.58059400  1
  C  1436  1  0.54752400  0.60522300  0.59157900  1
  C  1437  1  0.56147600  0.62240700  0.60247700  1
  C  1438  1  0.59007700  0.62454700  0.60199800  1
  C  1440  1  0.51881000  0.60845400  0.59002800  1
  C  1441  1  0.50126000  0.59539100  0.60113600  1
  C  1442  1  0.47274100  0.59823600  0.59986000  1
  C  1443  1  0.46109700  0.61345000  0.58714200  1
  C  1444  1  0.47883700  0.62672300  0.57619500  1
  C  1445  1  0.50754700  0.62510100  0.57762700  1
  C  1450  1  0.54912200  0.56876100  0.56979300  1
  C  1455  1  0.52493100  0.64163800  0.56655000  1
  C  1459  1  0.95378600  0.39216600  0.09032600  1
  C  1460  1  0.96788600  0.41013800  0.07987900  1
  C  1461  1  0.99656000  0.41351200  0.08059300  1
  C  1462  1  0.01174100  0.39717700  0.09157200  1
  C  1463  1  0.99779700  0.37998700  0.10246900  1
  C  1464  1  0.96918900  0.37789000  0.10202600  1
  C  1466  1  0.04045500  0.39394900  0.09001200  1
  C  1467  1  0.05801000  0.40702200  0.10111200  1
  C  1468  1  0.08653000  0.40417900  0.09983100  1
  C  1469  1  0.09816600  0.38897300  0.08710800  1
  C  1470  1  0.08042000  0.37569300  0.07616700  1
  C  1471  1  0.05171200  0.37730400  0.07760700  1
  C  1476  1  0.01012600  0.43363800  0.06978700  1
  C  1481  1  0.03432100  0.36076400  0.06653700  1
  C  1485  1  0.95704300  0.60824100  0.91653400  1
  C  1486  1  0.97137500  0.59046300  0.92698500  1
  C  1487  1  0.00015600  0.58795700  0.92652200  1
  C  1488  1  0.01511400  0.60484200  0.91572800  1
  C  1489  1  0.00095700  0.62175900  0.90478100  1
  C  1490  1  0.97229900  0.62310900  0.90503000  1
  C  1492  1  0.04367000  0.60889400  0.91757500  1
  C  1493  1  0.06193000  0.59608500  0.90676600  1
  C  1494  1  0.09031600  0.59968700  0.90836800  1
  C  1495  1  0.10109400  0.61547700  0.92110400  1
  C  1496  1  0.08265600  0.62848900  0.93174800  1
  C  1497  1  0.05405700  0.62602900  0.93001000  1
  C  1502  1  0.01405700  0.56823800  0.93744300  1
  C  1507  1  0.03585100  0.64210800  0.94085700  1
  C  1511  1  0.60215400  0.39426600  0.41659100  1
  C  1512  1  0.58788100  0.41211200  0.42702800  1
  C  1513  1  0.55910400  0.41467800  0.42658500  1
  C  1514  1  0.54409300  0.39778700  0.41582500  1
  C  1515  1  0.55818300  0.38081500  0.40487600  1
  C  1516  1  0.58683700  0.37938600  0.40511800  1
  C  1518  1  0.51554300  0.39372500  0.41771800  1
  C  1519  1  0.49723700  0.40645200  0.40690300  1
  C  1520  1  0.46886100  0.40283000  0.40854100  1
  C  1521  1  0.45813200  0.38709500  0.42131500  1
  C  1522  1  0.47661400  0.37416000  0.43196600  1
  C  1523  1  0.50520700  0.37664900  0.43019700  1
  C  1528  1  0.54526600  0.43446900  0.43748600  1
  C  1533  1  0.52346000  0.36064400  0.44105400  1
  C  1537  1  0.21792000  0.96906700  0.96507600  1
  C  1538  1  0.22909000  0.95533100  0.97852100  1
  C  1539  1  0.23034000  0.96777100  0.99392400  1
  C  1540  1  0.22026600  0.99478400  0.99571400  1
  C  1541  1  0.20973100  0.00872600  0.98215700  1
  C  1542  1  0.20854600  0.99600900  0.96700300  1
  C  1544  1  0.21917300  0.00811700  0.01091700  1
  C  1545  1  0.24244700  0.02264300  0.01617500  1
  C  1546  1  0.24225100  0.03660800  0.03097300  1
  C  1547  1  0.21867400  0.03653300  0.04075800  1
  C  1548  1  0.19553900  0.02168000  0.03560600  1
  C  1549  1  0.19529700  0.00753400  0.02072800  1
  C  1554  1  0.24160400  0.95229900  0.00785900  1
  C  1559  1  0.17025500  0.99252500  0.01573200  1
  C  1563  1  0.34122500  0.03359500  0.46514500  1
  C  1564  1  0.33007800  0.04731100  0.47860300  1
  C  1565  1  0.32887000  0.03485200  0.49400400  1
  C  1566  1  0.33894500  0.00783500  0.49577400  1
  C  1567  1  0.34945200  0.99391300  0.48220200  1
  C  1568  1  0.35058200  0.00664300  0.46705000  1
  C  1570  1  0.34005800  0.99447300  0.51096800  1
  C  1571  1  0.31678500  0.97994500  0.51623000  1
  C  1572  1  0.31699800  0.96595400  0.53102000  1
  C  1573  1  0.34059500  0.96598400  0.54078800  1
  C  1574  1  0.36372700  0.98084000  0.53563300  1
  C  1575  1  0.36395000  0.99502000  0.52076600  1
  C  1580  1  0.31764100  0.05030700  0.50795500  1
  C  1585  1  0.38899000  0.01003000  0.51576800  1
  C  1589  1  0.31346500  0.94054200  0.21552300  1
  C  1590  1  0.32685800  0.95155000  0.22913800  1
  C  1591  1  0.31392300  0.95263000  0.24442100  1
  C  1592  1  0.28678300  0.94251000  0.24591300  1
  C  1593  1  0.27320600  0.93208200  0.23219000  1
  C  1594  1  0.28639600  0.93109500  0.21715800  1
  C  1596  1  0.27292200  0.94133400  0.26096500  1
  C  1597  1  0.25799300  0.96441100  0.26604900  1
  C  1598  1  0.24350400  0.96412600  0.28068900  1
  C  1599  1  0.24341800  0.94064800  0.29048000  1
  C  1600  1  0.25867200  0.91771500  0.28550300  1
  C  1601  1  0.27334300  0.91755800  0.27078300  1
  C  1606  1  0.32901100  0.96380300  0.25853800  1
  C  1611  1  0.28872300  0.89270900  0.26595600  1
  C  1615  1  0.24576100  0.06186900  0.71552000  1
  C  1616  1  0.23240200  0.05085000  0.72914500  1
  C  1617  1  0.24536700  0.04977500  0.74441700  1
  C  1618  1  0.27251200  0.05989600  0.74589000  1
  C  1619  1  0.28605700  0.07032600  0.73215700  1
  C  1620  1  0.27282600  0.07132900  0.71713700  1
  C  1622  1  0.28640300  0.06107600  0.76093100  1
  C  1623  1  0.30135200  0.03800400  0.76600100  1
  C  1624  1  0.31586800  0.03828700  0.78063200  1
  C  1625  1  0.31595400  0.06175800  0.79043000  1
  C  1626  1  0.30068800  0.08469000  0.78546400  1
  C  1627  1  0.28599000  0.08484700  0.77075400  1
  C  1632  1  0.23031600  0.03859300  0.75854500  1
  C  1637  1  0.27058900  0.10969100  0.76594000  1
  C  1641  1  0.83759800  0.03468300  0.04250100  1
  C  1642  1  0.82572500  0.04758000  0.02897400  1
  C  1643  1  0.82443400  0.03449400  0.01375700  1
  C  1644  1  0.83502300  0.00762200  0.01227200  1
  C  1645  1  0.84612800  0.99445800  0.02594100  1
  C  1646  1  0.84746600  0.00785400  0.04087700  1
  C  1648  1  0.83631100  0.99375000  0.99724200  1
  C  1649  1  0.81304200  0.97921200  0.99197700  1
  C  1650  1  0.81345700  0.96474700  0.97734900  1
  C  1651  1  0.83728300  0.96425400  0.96778700  1
  C  1652  1  0.86044200  0.97904500  0.97295700  1
  C  1653  1  0.86042300  0.99378700  0.98762700  1
  C  1658  1  0.81272700  0.04922500  0.99967000  1
  C  1663  1  0.88540200  0.00897000  0.99255600  1
  C  1667  1  0.72167300  0.96776300  0.54249300  1
  C  1668  1  0.73355100  0.95486500  0.52896900  1
  C  1669  1  0.73485500  0.96795200  0.51375300  1
  C  1670  1  0.72428200  0.99483100  0.51226900  1
  C  1671  1  0.71317600  0.00799700  0.52593700  1
  C  1672  1  0.71184300  0.99460700  0.54087600  1
  C  1674  1  0.72300700  0.00870400  0.49724200  1
  C  1675  1  0.74628200  0.02323300  0.49198000  1
  C  1676  1  0.74588500  0.03769200  0.47734900  1
  C  1677  1  0.72205900  0.03820200  0.46778600  1
  C  1678  1  0.69889400  0.02341900  0.47295200  1
  C  1679  1  0.69889800  0.00867700  0.48762200  1
  C  1684  1  0.74655800  0.95321800  0.49966600  1
  C  1689  1  0.67391100  0.99350200  0.49254400  1
  C  1693  1  0.74657600  0.06392100  0.79293600  1
  C  1694  1  0.73283600  0.05295300  0.77942700  1
  C  1695  1  0.74539900  0.05185600  0.76403700  1
  C  1696  1  0.77252100  0.06192200  0.76231600  1
  C  1697  1  0.78644900  0.07229400  0.77593100  1
  C  1698  1  0.77362700  0.07329300  0.79107600  1
  C  1700  1  0.78600200  0.06310100  0.74713900  1
  C  1701  1  0.80090800  0.04007400  0.74195600  1
  C  1702  1  0.81506900  0.04038000  0.72720100  1
  C  1703  1  0.81481500  0.06382000  0.71737800  1
  C  1704  1  0.79955300  0.08669100  0.72245000  1
  C  1705  1  0.78523700  0.08683600  0.73729200  1
  C  1710  1  0.72995100  0.04071500  0.75004800  1
  C  1715  1  0.76991400  0.11165500  0.74223400  1
  C  1719  1  0.81270500  0.93849100  0.29292800  1
  C  1720  1  0.82642200  0.94947200  0.27941700  1
  C  1721  1  0.81383900  0.95058100  0.26403400  1
  C  1722  1  0.78671500  0.94051800  0.26232300  1
  C  1723  1  0.77280300  0.93013700  0.27594200  1
  C  1724  1  0.78565400  0.92911100  0.29107900  1
  C  1726  1  0.77321400  0.93933900  0.24715200  1
  C  1727  1  0.75829300  0.96236400  0.24197800  1
  C  1728  1  0.74411800  0.96206100  0.22723000  1
  C  1729  1  0.74437600  0.93862900  0.21739900  1
  C  1730  1  0.75964400  0.91575700  0.22246200  1
  C  1731  1  0.77397600  0.91561100  0.23730000  1
  C  1736  1  0.82926400  0.96173900  0.25004000  1
  C  1741  1  0.78931300  0.89079400  0.24223000  1
  C  1745  1  0.71971800  0.46803300  0.46543900  1
  C  1746  1  0.73065400  0.45457100  0.47904700  1
  C  1747  1  0.73170000  0.46735100  0.49436200  1
  C  1748  1  0.72159100  0.49439600  0.49590500  1
  C  1749  1  0.71116300  0.50801100  0.48220500  1
  C  1750  1  0.71022100  0.49497800  0.46713900  1
  C  1752  1  0.72059200  0.50818800  0.51097000  1
  C  1753  1  0.74386300  0.52297200  0.51597600  1
  C  1754  1  0.74380800  0.53733400  0.53064100  1
  C  1755  1  0.72037500  0.53741700  0.54055000  1
  C  1756  1  0.69723900  0.52232300  0.53564200  1
  C  1757  1  0.69684500  0.50779700  0.52089200  1
  C  1762  1  0.74289800  0.45223000  0.50845000  1
  C  1767  1  0.67179500  0.49258300  0.51614300  1
  C  1771  1  0.83954300  0.53435400  0.96546100  1
  C  1772  1  0.82860200  0.54781800  0.97906500  1
  C  1773  1  0.82755800  0.53504200  0.99438100  1
  C  1774  1  0.83767300  0.50800100  0.99592800  1
  C  1775  1  0.84810300  0.49438200  0.98222800  1
  C  1776  1  0.84902500  0.50740200  0.96715800  1
  C  1778  1  0.83867700  0.49421500  0.01099400  1
  C  1779  1  0.81541000  0.47942900  0.01600300  1
  C  1780  1  0.81546700  0.46508000  0.03067200  1
  C  1781  1  0.83890300  0.46499600  0.04057700  1
  C  1782  1  0.86203500  0.48009400  0.03566700  1
  C  1783  1  0.86242300  0.49461600  0.02091500  1
  C  1788  1  0.81635800  0.55016500  0.00846800  1
  C  1793  1  0.88747200  0.50983400  0.01616300  1
  C  1797  1  0.81374700  0.44126000  0.71565000  1
  C  1798  1  0.82661000  0.45282300  0.72928200  1
  C  1799  1  0.81333400  0.45390300  0.74446000  1
  C  1800  1  0.78632200  0.44338200  0.74579900  1
  C  1801  1  0.77322000  0.43252100  0.73203800  1
  C  1802  1  0.78678800  0.43142600  0.71713400  1
  C  1804  1  0.77216800  0.44212200  0.76074900  1
  C  1805  1  0.75752900  0.46532800  0.76592100  1
  C  1806  1  0.74289400  0.46500400  0.78050900  1
  C  1807  1  0.74230400  0.44132100  0.79011500  1
  C  1808  1  0.75715500  0.41820700  0.78502100  1
  C  1809  1  0.77207200  0.41813700  0.77039200  1
  C  1814  1  0.82798500  0.46539500  0.75864800  1
  C  1819  1  0.78733600  0.39322700  0.76554300  1
  C  1823  1  0.74547700  0.56117200  0.21564600  1
  C  1824  1  0.73262000  0.54961100  0.22928000  1
  C  1825  1  0.74591000  0.54851800  0.24445500  1
  C  1826  1  0.77292800  0.55902700  0.24578600  1
  C  1827  1  0.78602200  0.56988800  0.23202100  1
  C  1828  1  0.77243300  0.57100300  0.21712300  1
  C  1830  1  0.78709300  0.56028700  0.26073200  1
  C  1831  1  0.80173900  0.53708100  0.26589600  1
  C  1832  1  0.81638600  0.53740100  0.28047900  1
  C  1833  1  0.81697500  0.56107900  0.29009200  1
  C  1834  1  0.80211500  0.58419100  0.28500500  1
  C  1835  1  0.78718900  0.58426600  0.27038000  1
  C  1840  1  0.73127100  0.53702000  0.25864300  1
  C  1845  1  0.77191900  0.60917500  0.26553900  1
  C  1849  1  0.34237100  0.53502800  0.54230200  1
  C  1850  1  0.33107100  0.54789400  0.52859700  1
  C  1851  1  0.33003900  0.53461700  0.51343200  1
  C  1852  1  0.34036700  0.50761200  0.51217100  1
  C  1853  1  0.35103200  0.49453700  0.52599000  1
  C  1854  1  0.35207400  0.50810400  0.54088200  1
  C  1856  1  0.34152500  0.49339100  0.49725700  1
  C  1857  1  0.31811900  0.47892400  0.49214300  1
  C  1858  1  0.31829900  0.46426400  0.47758300  1
  C  1859  1  0.34201300  0.46351100  0.46792700  1
  C  1860  1  0.36532100  0.47821200  0.47296100  1
  C  1861  1  0.36555800  0.49311000  0.48757600  1
  C  1866  1  0.31876900  0.54924700  0.49918200  1
  C  1871  1  0.39069600  0.50813700  0.49238200  1
  C  1875  1  0.21685800  0.46747100  0.04227000  1
  C  1876  1  0.22815200  0.45462400  0.02855600  1
  C  1877  1  0.22914500  0.46791200  0.01339300  1
  C  1878  1  0.21880900  0.49491700  0.01214800  1
  C  1879  1  0.20816600  0.50797600  0.02597800  1
  C  1880  1  0.20716700  0.49440100  0.04086800  1
  C  1882  1  0.21761800  0.50914800  0.99723600  1
  C  1883  1  0.24101500  0.52360900  0.99210500  1
  C  1884  1  0.24081700  0.53825600  0.97754200  1
  C  1885  1  0.21708200  0.53901700  0.96790100  1
  C  1886  1  0.19378100  0.52432600  0.97295400  1
  C  1887  1  0.19356700  0.50943300  0.98757200  1
  C  1892  1  0.24038200  0.45329500  0.99913100  1
  C  1897  1  0.16843800  0.49440900  0.99239400  1
  C  1901  1  0.24705500  0.56028300  0.29297600  1
  C  1902  1  0.23345000  0.54881100  0.27956800  1
  C  1903  1  0.24595700  0.54767000  0.26416400  1
  C  1904  1  0.27295500  0.55802600  0.26236000  1
  C  1905  1  0.28681500  0.56875500  0.27589900  1
  C  1906  1  0.27399900  0.56991700  0.29103400  1
  C  1908  1  0.28629600  0.55936300  0.24715200  1
  C  1909  1  0.30075900  0.53623300  0.24169400  1
  C  1910  1  0.31472200  0.53669100  0.22687800  1
  C  1911  1  0.31476700  0.56041900  0.21730400  1
  C  1912  1  0.30001600  0.58342700  0.22266700  1
  C  1913  1  0.28581400  0.58337900  0.23754100  1
  C  1918  1  0.23052000  0.53633000  0.25022700  1
  C  1923  1  0.27076900  0.60824300  0.24270600  1
  C  1927  1  0.31219400  0.44214100  0.79298400  1
  C  1928  1  0.32578300  0.45361600  0.77957200  1
  C  1929  1  0.31325700  0.45476400  0.76417300  1
  C  1930  1  0.28625700  0.44441000  0.76238000  1
  C  1931  1  0.27241100  0.43367700  0.77592200  1
  C  1932  1  0.28525200  0.43249500  0.79105000  1
  C  1934  1  0.27290200  0.44306900  0.74717600  1
  C  1935  1  0.25841800  0.46619100  0.74172800  1
  C  1936  1  0.24444200  0.46573100  0.72691500  1
  C  1937  1  0.24440500  0.44201000  0.71733700  1
  C  1938  1  0.25917200  0.41900800  0.72269100  1
  C  1939  1  0.27338800  0.41905500  0.73756100  1
  C  1944  1  0.32867400  0.46611600  0.75023200  1
  C  1949  1  0.28845000  0.39419900  0.74271600  1
  C  1953  1  0.24773500  0.03895400  0.09702100  1
  C  1954  1  0.23405400  0.03020800  0.11114000  1
  C  1955  1  0.24799400  0.01688200  0.12385100  1
  C  1956  1  0.27665100  0.01260000  0.12239400  1
  C  1957  1  0.29041700  0.02128800  0.10832700  1
  C  1958  1  0.27610900  0.03418100  0.09577400  1
  C  1960  1  0.29189000  0.99888700  0.13450500  1
  C  1961  1  0.29418300  0.97029400  0.13337900  1
  C  1962  1  0.30731800  0.95533500  0.14554800  1
  C  1963  1  0.31826200  0.96856500  0.15922100  1
  C  1964  1  0.31633800  0.99722400  0.16019700  1
  C  1965  1  0.30350900  0.01273400  0.14794100  1
  C  1970  1  0.23236500  0.00727200  0.13818600  1
  C  1975  1  0.30234700  0.04290600  0.14938100  1
  C  1979  1  0.31151800  0.96347100  0.59704800  1
  C  1980  1  0.32517800  0.97220900  0.61117600  1
  C  1981  1  0.31121800  0.98551900  0.62388400  1
  C  1982  1  0.28256100  0.98978800  0.62241900  1
  C  1983  1  0.26881600  0.98110500  0.60834400  1
  C  1984  1  0.28314200  0.96823500  0.59579100  1
  C  1986  1  0.26730400  0.00349900  0.63452300  1
  C  1987  1  0.26498700  0.03208800  0.63338600  1
  C  1988  1  0.25183100  0.04704900  0.64554600  1
  C  1989  1  0.24090900  0.03382600  0.65922900  1
  C  1990  1  0.24284200  0.00516700  0.66020900  1
  C  1991  1  0.25568100  0.98965600  0.64795800  1
  C  1996  1  0.32682900  0.99513200  0.63822700  1
  C  2001  1  0.25685700  0.95948400  0.64940500  1
  C  2005  1  0.24031000  0.96936800  0.34671700  1
  C  2006  1  0.24924500  0.95545100  0.36070400  1
  C  2007  1  0.26296600  0.96902700  0.37340300  1
  C  2008  1  0.26745700  0.99755800  0.37208200  1
  C  2009  1  0.25853300  0.01157100  0.35816300  1
  C  2010  1  0.24525700  0.99762100  0.34561200  1
  C  2012  1  0.28163200  0.01241400  0.38417200  1
  C  2013  1  0.31033100  0.01445600  0.38283900  1
  C  2014  1  0.32574400  0.02718600  0.39497100  1
  C  2015  1  0.31286900  0.03791300  0.40882600  1
  C  2016  1  0.28410000  0.03624700  0.41000800  1
  C  2017  1  0.26813900  0.02384600  0.39779300  1
  C  2022  1  0.27280600  0.95314100  0.38757200  1
  C  2027  1  0.23787300  0.02294900  0.39945800  1
  C  2031  1  0.31894500  0.03308100  0.84666400  1
  C  2032  1  0.30996800  0.04701200  0.86063700  1
  C  2033  1  0.29621100  0.03345000  0.87332900  1
  C  2034  1  0.29171900  0.00491800  0.87201200  1
  C  2035  1  0.30068000  0.99089100  0.85810600  1
  C  2036  1  0.31399200  0.00482800  0.84556200  1
  C  2038  1  0.27751300  0.99007300  0.88409500  1
  C  2039  1  0.24881400  0.98804200  0.88274900  1
  C  2040  1  0.23337600  0.97533700  0.89488000  1
  C  2041  1  0.24622500  0.96463700  0.90875100  1
  C  2042  1  0.27499200  0.96629400  0.90994800  1
  C  2043  1  0.29097900  0.97866200  0.89773200  1
  C  2048  1  0.28634900  0.04934600  0.88748600  1
  C  2053  1  0.32124300  0.97955000  0.89941600  1
  C  2057  1  0.81073900  0.96219500  0.91113100  1
  C  2058  1  0.82485500  0.97098800  0.89717100  1
  C  2059  1  0.81141400  0.98483700  0.88445000  1
  C  2060  1  0.78280200  0.98961900  0.88569600  1
  C  2061  1  0.76858400  0.98076100  0.89956700  1
  C  2062  1  0.78238900  0.96735000  0.91212800  1
  C  2064  1  0.76801200  0.00394800  0.87360500  1
  C  2065  1  0.76599800  0.03253300  0.87502100  1
  C  2066  1  0.75302200  0.04801700  0.86300900  1
  C  2067  1  0.74195500  0.03535200  0.84918100  1
  C  2068  1  0.74360700  0.00670000  0.84791500  1
  C  2069  1  0.75624400  0.99067100  0.86001200  1
  C  2074  1  0.82751700  0.99453400  0.87032200  1
  C  2079  1  0.75702400  0.96053400  0.85825500  1
  C  2083  1  0.74859900  0.04021100  0.41112900  1
  C  2084  1  0.73447900  0.03142900  0.39716800  1
  C  2085  1  0.74791200  0.01756100  0.38445100  1
  C  2086  1  0.77652400  0.01278400  0.38569300  1
  C  2087  1  0.79075000  0.02164700  0.39956000  1
  C  2088  1  0.77694700  0.03505500  0.41212400  1
  C  2090  1  0.79131200  0.99845700  0.37360100  1
  C  2091  1  0.79334600  0.96987500  0.37502300  1
  C  2092  1  0.80633000  0.95439300  0.36301200  1
  C  2093  1  0.81735700  0.96705500  0.34917200  1
  C  2094  1  0.81569400  0.99570600  0.34790400  1
  C  2095  1  0.80306500  0.01173500  0.36000400  1
  C  2100  1  0.73180000  0.00784900  0.37033000  1
  C  2105  1  0.80226900  0.04187000  0.35824200  1
  C  2109  1  0.81801700  0.03447300  0.66121200  1
  C  2110  1  0.80919700  0.04786200  0.64701900  1
  C  2111  1  0.79565500  0.03380600  0.63442400  1
  C  2112  1  0.79117300  0.00531100  0.63605700  1
  C  2113  1  0.79999100  0.99182500  0.65018000  1
  C  2114  1  0.81309900  0.00624300  0.66261500  1
  C  2116  1  0.77748800  0.98990200  0.62398100  1
  C  2117  1  0.74875600  0.98760600  0.62495600  1
  C  2118  1  0.73389000  0.97434200  0.61276800  1
  C  2119  1  0.74734800  0.96331600  0.59919000  1
  C  2120  1  0.77615200  0.96517000  0.59840100  1
  C  2121  1  0.79155700  0.97809700  0.61067600  1
  C  2126  1  0.78601000  0.04915900  0.62000700  1
  C  2131  1  0.82187000  0.97921400  0.60936900  1
  C  2135  1  0.74125200  0.96793200  0.16123100  1
  C  2136  1  0.75008800  0.95453300  0.14704300  1
  C  2137  1  0.76363600  0.96858300  0.13444700  1
  C  2138  1  0.76810200  0.99708200  0.13607100  1
  C  2139  1  0.75927000  0.01057800  0.15018800  1
  C  2140  1  0.74616100  0.99616600  0.16262500  1
  C  2142  1  0.78178100  0.01248500  0.12399100  1
  C  2143  1  0.81051300  0.01478400  0.12496200  1
  C  2144  1  0.82537200  0.02805300  0.11277400  1
  C  2145  1  0.81191000  0.03907700  0.09919800  1
  C  2146  1  0.78310900  0.03720500  0.09840600  1
  C  2147  1  0.76771000  0.02427600  0.11068300  1
  C  2152  1  0.77328900  0.95322000  0.12003600  1
  C  2157  1  0.73739600  0.02314800  0.10937600  1
  C  2161  1  0.75008800  0.53983100  0.59663700  1
  C  2162  1  0.73609300  0.53095200  0.61061900  1
  C  2163  1  0.74971000  0.51737800  0.62334800  1
  C  2164  1  0.77835000  0.51291700  0.62202500  1
  C  2165  1  0.79242900  0.52166200  0.60807700  1
  C  2166  1  0.77843200  0.53483300  0.59550300  1
  C  2168  1  0.79325200  0.49907900  0.63421700  1
  C  2169  1  0.79519500  0.47045600  0.63314800  1
  C  2170  1  0.80778500  0.45538700  0.64546700  1
  C  2171  1  0.81846400  0.46855600  0.65923000  1
  C  2172  1  0.81690700  0.49723900  0.66014800  1
  C  2173  1  0.80462800  0.51285200  0.64775000  1
  C  2178  1  0.73376800  0.50775900  0.63756300  1
  C  2183  1  0.80378100  0.54304200  0.64914600  1
  C  2187  1  0.80918000  0.46257900  0.09666300  1
  C  2188  1  0.82316100  0.47144900  0.11065300  1
  C  2189  1  0.80953200  0.48502700  0.12337400  1
  C  2190  1  0.78089200  0.48948600  0.12204300  1
  C  2191  1  0.76682900  0.48074100  0.10809000  1
  C  2192  1  0.78084100  0.46757900  0.09551700  1
  C  2194  1  0.76597700  0.50332600  0.13422700  1
  C  2195  1  0.76401600  0.53194700  0.13314700  1
  C  2196  1  0.75140800  0.54702100  0.14545700  1
  C  2197  1  0.74074900  0.53386000  0.15923100  1
  C  2198  1  0.74230800  0.50517600  0.16015300  1
  C  2199  1  0.75459300  0.48955900  0.14775900  1
  C  2204  1  0.82546000  0.49465700  0.13759300  1
  C  2209  1  0.75544900  0.45936900  0.14916100  1
  C  2213  1  0.74050600  0.46883000  0.84660200  1
  C  2214  1  0.74932400  0.45488000  0.86060100  1
  C  2215  1  0.76255900  0.46851900  0.87345200  1
  C  2216  1  0.76662100  0.49712700  0.87226400  1
  C  2217  1  0.75785800  0.51116100  0.85831800  1
  C  2218  1  0.74506800  0.49715600  0.84562000  1
  C  2220  1  0.78030300  0.51207700  0.88449200  1
  C  2221  1  0.80898400  0.51453900  0.88333700  1
  C  2222  1  0.82394400  0.52758800  0.89553400  1
  C  2223  1  0.81062300  0.53825600  0.90925900  1
  C  2224  1  0.78187900  0.53608800  0.91029100  1
  C  2225  1  0.76635900  0.52334500  0.89800200  1
  C  2230  1  0.77227200  0.45265400  0.88765700  1
  C  2235  1  0.73608100  0.52195900  0.89946700  1
  C  2239  1  0.81872000  0.53359700  0.34657800  1
  C  2240  1  0.80989100  0.54754800  0.36057500  1
  C  2241  1  0.79666600  0.53390700  0.37342900  1
  C  2242  1  0.79262100  0.50529600  0.37224500  1
  C  2243  1  0.80138600  0.49126200  0.35830100  1
  C  2244  1  0.81416800  0.50527000  0.34559900  1
  C  2246  1  0.77894300  0.49034300  0.38447300  1
  C  2247  1  0.75026200  0.48787600  0.38332200  1
  C  2248  1  0.73530600  0.47481500  0.39551600  1
  C  2249  1  0.74863100  0.46414200  0.40923900  1
  C  2250  1  0.77737600  0.46632100  0.41027000  1
  C  2251  1  0.79289100  0.47907700  0.39798200  1
  C  2256  1  0.78695600  0.54977000  0.38763500  1
  C  2261  1  0.82316700  0.48047300  0.39944600  1
  C  2265  1  0.31394300  0.46173600  0.41154700  1
  C  2266  1  0.32785700  0.47062700  0.39753700  1
  C  2267  1  0.31420100  0.48441900  0.38488300  1
  C  2268  1  0.28559100  0.48907900  0.38627400  1
  C  2269  1  0.27158800  0.48020600  0.40021800  1
  C  2270  1  0.28560800  0.46683400  0.41271000  1
  C  2272  1  0.27055200  0.50306000  0.37416300  1
  C  2273  1  0.26847400  0.53167000  0.37532900  1
  C  2274  1  0.25530300  0.54679300  0.36323000  1
  C  2275  1  0.24410800  0.53371700  0.34957400  1
  C  2276  1  0.24582100  0.50504000  0.34857100  1
  C  2277  1  0.25867800  0.48937600  0.36074700  1
  C  2282  1  0.33006100  0.49409300  0.37065400  1
  C  2287  1  0.25959700  0.45920200  0.35924100  1
  C  2291  1  0.24518500  0.54066500  0.91152100  1
  C  2292  1  0.23130400  0.53178600  0.89749700  1
  C  2293  1  0.24498500  0.51798100  0.88485800  1
  C  2294  1  0.27359200  0.51332200  0.88626900  1
  C  2295  1  0.28756700  0.52219700  0.90022200  1
  C  2296  1  0.27351900  0.53556100  0.91270600  1
  C  2298  1  0.28866000  0.49935200  0.87416500  1
  C  2299  1  0.29075800  0.47074300  0.87533400  1
  C  2300  1  0.30395700  0.45562900  0.86324200  1
  C  2301  1  0.31513400  0.46870800  0.84958200  1
  C  2302  1  0.31341600  0.49738600  0.84858200  1
  C  2303  1  0.30054500  0.51304100  0.86075500  1
  C  2308  1  0.22915300  0.50829400  0.87062100  1
  C  2313  1  0.29961500  0.54321500  0.85925200  1
  C  2317  1  0.31563500  0.53324500  0.16073200  1
  C  2318  1  0.30648600  0.54700200  0.14673800  1
  C  2319  1  0.29282400  0.53322500  0.13408000  1
  C  2320  1  0.28859300  0.50465500  0.13544400  1
  C  2321  1  0.29773100  0.49080700  0.14936900  1
  C  2322  1  0.31095600  0.50494000  0.16186800  1
  C  2324  1  0.27480400  0.48949000  0.12331500  1
  C  2325  1  0.24611700  0.48696400  0.12448100  1
  C  2326  1  0.23113500  0.47371400  0.11234700  1
  C  2327  1  0.24442700  0.46291600  0.09864900  1
  C  2328  1  0.27318600  0.46506100  0.09764300  1
  C  2329  1  0.28871700  0.47798600  0.10986400  1
  C  2334  1  0.28285200  0.54891300  0.11987100  1
  C  2339  1  0.31899200  0.47937600  0.10835800  1
  C  2343  1  0.24363200  0.46916400  0.66076700  1
  C  2344  1  0.25280800  0.45540500  0.64677900  1
  C  2345  1  0.26647000  0.46918200  0.63412100  1
  C  2346  1  0.27068500  0.49775400  0.63548100  1
  C  2347  1  0.26153400  0.51160500  0.64940300  1
  C  2348  1  0.24830300  0.49746900  0.66190000  1
  C  2350  1  0.28447400  0.51291900  0.62335300  1
  C  2351  1  0.31316100  0.51544500  0.62451500  1
  C  2352  1  0.32813900  0.52870500  0.61238400  1
  C  2353  1  0.31484200  0.53951300  0.59868900  1
  C  2354  1  0.28608400  0.53735600  0.59768400  1
  C  2355  1  0.27055600  0.52442300  0.60990100  1
  C  2360  1  0.27644900  0.45349400  0.61991300  1
  C  2365  1  0.24028200  0.52302500  0.60839600  1
  N  17  1  0.18456100  0.08383600  0.04644900  1
  N  18  1  0.14425700  0.07009400  0.08564100  1
  N  39  1  0.37470700  0.91866500  0.54645800  1
  N  40  1  0.41501700  0.93234300  0.58564600  1
  N  61  1  0.19634700  0.90600100  0.29602500  1
  N  62  1  0.21138800  0.86774100  0.33695000  1
  N  83  1  0.36301600  0.09642300  0.79600000  1
  N  84  1  0.34788100  0.13465000  0.83694800  1
  N  105  1  0.38057300  0.07650000  0.45908600  1
  N  106  1  0.41931400  0.06710900  0.42036900  1
  N  127  1  0.17861400  0.92611000  0.95907400  1
  N  128  1  0.13975600  0.93488300  0.92029500  1
  N  149  1  0.35630100  0.90106000  0.20959200  1
  N  150  1  0.34538200  0.86434200  0.16908500  1
  N  171  1  0.20293300  0.10136400  0.70960000  1
  N  172  1  0.21387300  0.13804200  0.66907800  1
  N  193  1  0.87014000  0.91588800  0.96291600  1
  N  194  1  0.91602800  0.92894400  0.93077000  1
  N  215  1  0.68921800  0.08657600  0.46290600  1
  N  216  1  0.64338800  0.07334100  0.43073200  1
  N  237  1  0.86163900  0.09867800  0.71171600  1
  N  238  1  0.84783400  0.13656200  0.67004500  1
  N  259  1  0.69755600  0.90375700  0.21172100  1
  N  260  1  0.71143900  0.86589700  0.17002600  1
  N  281  1  0.68381000  0.92305100  0.54742300  1
  N  282  1  0.63947500  0.93221700  0.57927500  1
  N  303  1  0.87543400  0.07941100  0.04744200  1
  N  304  1  0.91975500  0.07018300  0.07929200  1
  N  325  1  0.70415700  0.10369400  0.79906700  1
  N  326  1  0.71387800  0.14026800  0.84008100  1
  N  347  1  0.85512300  0.89871200  0.29905000  1
  N  348  1  0.84538600  0.86214600  0.34006200  1
  N  369  1  0.68565500  0.58422700  0.54655100  1
  N  370  1  0.64882400  0.56922700  0.58852100  1
  N  391  1  0.87361700  0.41818200  0.04657700  1
  N  392  1  0.91044200  0.43318700  0.08854600  1
  N  413  1  0.69393600  0.40837500  0.79547200  1
  N  414  1  0.70699700  0.36357000  0.82794800  1
  N  435  1  0.86534300  0.59403800  0.29546200  1
  N  436  1  0.85226300  0.63885000  0.32793600  1
  N  457  1  0.87887600  0.57715100  0.95908100  1
  N  458  1  0.91447300  0.56631900  0.91763200  1
  N  479  1  0.68038400  0.42523200  0.45906000  1
  N  480  1  0.64480100  0.43612100  0.41761400  1
  N  501  1  0.85860300  0.40362600  0.71026800  1
  N  502  1  0.84937400  0.36054600  0.67801600  1
  N  523  1  0.70063300  0.59882200  0.21026000  1
  N  524  1  0.70986800  0.64188600  0.17800000  1
  N  545  1  0.37527900  0.41551200  0.46252800  1
  N  546  1  0.41844700  0.43039000  0.42767300  1
  N  567  1  0.18381600  0.58700900  0.96245500  1
  N  568  1  0.14067100  0.57212900  0.92757300  1
  N  589  1  0.36259300  0.59391800  0.21172700  1
  N  590  1  0.34724200  0.63825300  0.17834700  1
  N  611  1  0.19659100  0.40848500  0.71172900  1
  N  612  1  0.21201200  0.36416600  0.67834400  1
  N  633  1  0.17886800  0.42303600  0.04771200  1
  N  634  1  0.13721600  0.43339000  0.08192700  1
  N  655  1  0.38036800  0.57945500  0.54775200  1
  N  656  1  0.42202900  0.56904400  0.58197000  1
  N  677  1  0.20309800  0.59868400  0.29872700  1
  N  678  1  0.21453500  0.64141800  0.33163400  1
  N  699  1  0.35615600  0.40374200  0.79873600  1
  N  700  1  0.34470000  0.36101200  0.83164000  1
