# generated using pymatgen
data_H6C11(NO)3
_symmetry_space_group_name_H-M   'P 1'
_cell_length_a   27.41860000
_cell_length_b   49.11740000
_cell_length_c   49.11740000
_cell_angle_alpha   90.00000000
_cell_angle_beta   90.00000000
_cell_angle_gamma   90.00000000
_symmetry_Int_Tables_number   1
_chemical_formula_structural   H6C11(NO)3
_chemical_formula_sum   'H384 C704 N192 O192'
_cell_volume   66147.89298070
_cell_formula_units_Z   64
loop_
 _symmetry_equiv_pos_site_id
 _symmetry_equiv_pos_as_xyz
  1  'x, y, z'
loop_
 _atom_site_type_symbol
 _atom_site_label
 _atom_site_symmetry_multiplicity
 _atom_site_fract_x
 _atom_site_fract_y
 _atom_site_fract_z
 _atom_site_occupancy
  H  7  1  0.06469900  0.10325600  0.32159700  1
  H  16  1  0.16271100  0.13717900  0.28050200  1
  H  19  1  0.23441100  0.11684500  0.34437900  1
  H  20  1  0.17565000  0.05472600  0.33370700  1
  H  21  1  0.08558900  0.14679500  0.40931400  1
  H  22  1  0.15289900  0.05705500  0.22111500  1
  H  29  1  0.06467400  0.89847900  0.82407300  1
  H  38  1  0.16278800  0.86455000  0.86524800  1
  H  41  1  0.23444900  0.88485800  0.80146000  1
  H  42  1  0.17549900  0.94697900  0.81201000  1
  H  43  1  0.08584800  0.85502600  0.73633400  1
  H  44  1  0.15301400  0.94469900  0.92462600  1
  H  51  1  0.06468200  0.75208000  0.17522600  1
  H  60  1  0.16274200  0.79320200  0.20915600  1
  H  63  1  0.23442400  0.72938600  0.18884500  1
  H  64  1  0.17558500  0.74000500  0.12670300  1
  H  65  1  0.08566400  0.66437800  0.21878400  1
  H  66  1  0.15293000  0.85260500  0.12903700  1
  H  73  1  0.06467700  0.24968200  0.97047800  1
  H  82  1  0.16272100  0.20848800  0.93652200  1
  H  85  1  0.23447200  0.27224200  0.95683500  1
  H  86  1  0.17555500  0.26169000  0.01897300  1
  H  87  1  0.08590300  0.33742000  0.92703300  1
  H  88  1  0.15294600  0.14908400  0.01665200  1
  H  95  1  0.86902100  0.89847700  0.32160300  1
  H  104  1  0.77101100  0.86455000  0.28050600  1
  H  107  1  0.69930800  0.88488300  0.34437900  1
  H  108  1  0.75807100  0.94700300  0.33370900  1
  H  109  1  0.84812600  0.85493800  0.40932000  1
  H  110  1  0.78081800  0.94467400  0.22111700  1
  H  117  1  0.86903900  0.10325400  0.82407900  1
  H  126  1  0.77092300  0.13718200  0.86525400  1
  H  129  1  0.69926400  0.11687200  0.80146400  1
  H  130  1  0.75821700  0.05475300  0.81201600  1
  H  131  1  0.84786400  0.14670500  0.73634100  1
  H  132  1  0.78070900  0.05703500  0.92463400  1
  H  139  1  0.86903600  0.24964900  0.17522100  1
  H  148  1  0.77096700  0.20852900  0.20915200  1
  H  151  1  0.69929300  0.27234600  0.18883900  1
  H  152  1  0.75814400  0.26172400  0.12669500  1
  H  153  1  0.84805400  0.33735100  0.21878200  1
  H  154  1  0.78078200  0.14912400  0.12903500  1
  H  161  1  0.86904700  0.75205400  0.97047600  1
  H  170  1  0.77100000  0.79324500  0.93652600  1
  H  173  1  0.69925300  0.72948600  0.95684100  1
  H  174  1  0.75816500  0.74004200  0.01897500  1
  H  175  1  0.84783100  0.66431700  0.92702900  1
  H  176  1  0.78077100  0.85264800  0.01665500  1
  H  183  1  0.87111800  0.89841800  0.82331800  1
  H  192  1  0.77135700  0.86580200  0.86442800  1
  H  195  1  0.70193000  0.88696800  0.79995300  1
  H  196  1  0.76287000  0.94853600  0.81129600  1
  H  197  1  0.85340800  0.82066100  0.75995900  1
  H  198  1  0.78333500  0.94735300  0.92339000  1
  H  205  1  0.87104200  0.10333800  0.32235900  1
  H  214  1  0.77130300  0.13592900  0.28124500  1
  H  217  1  0.70183100  0.11476300  0.34571300  1
  H  218  1  0.76274300  0.05320300  0.33438900  1
  H  219  1  0.85325100  0.18109900  0.38569900  1
  H  220  1  0.78330900  0.05436300  0.22230200  1
  H  227  1  0.87118000  0.25040400  0.97040400  1
  H  236  1  0.77141200  0.20928900  0.93777400  1
  H  239  1  0.70196300  0.27372000  0.95892000  1
  H  240  1  0.76287800  0.26240800  0.02050900  1
  H  241  1  0.85344800  0.31375700  0.89265000  1
  H  242  1  0.78336700  0.15031300  0.01931800  1
  H  249  1  0.87110400  0.75132300  0.17529600  1
  H  258  1  0.77142700  0.79244500  0.20790000  1
  H  261  1  0.70187100  0.72799700  0.18672300  1
  H  262  1  0.76276800  0.73932700  0.12515800  1
  H  263  1  0.85330900  0.68800300  0.25306300  1
  H  264  1  0.78340800  0.85140600  0.12634000  1
  H  271  1  0.06259600  0.10331500  0.82332000  1
  H  280  1  0.16235900  0.13593000  0.86442800  1
  H  283  1  0.23178100  0.11476600  0.79994900  1
  H  284  1  0.17084500  0.05319600  0.81129200  1
  H  285  1  0.08030100  0.18107200  0.75996100  1
  H  286  1  0.15038400  0.05437800  0.92338600  1
  H  293  1  0.06267400  0.89839700  0.32236900  1
  H  302  1  0.16238800  0.86580200  0.28125500  1
  H  305  1  0.23188900  0.88697000  0.34571900  1
  H  306  1  0.17099300  0.94853200  0.33439100  1
  H  307  1  0.08046800  0.82063700  0.38570900  1
  H  308  1  0.15037800  0.94736400  0.22230800  1
  H  315  1  0.06254600  0.75134300  0.97039800  1
  H  324  1  0.16232400  0.79246500  0.93777800  1
  H  327  1  0.23176000  0.72802600  0.95892000  1
  H  328  1  0.17084100  0.73932500  0.02050100  1
  H  329  1  0.08028000  0.68799100  0.89264600  1
  H  330  1  0.15037100  0.85142400  0.01932800  1
  H  337  1  0.06261600  0.25040600  0.17529400  1
  H  346  1  0.16229200  0.20928400  0.20789800  1
  H  349  1  0.23184600  0.27373200  0.18672200  1
  H  350  1  0.17095100  0.26240400  0.12515700  1
  H  351  1  0.08040700  0.31372600  0.25306100  1
  H  352  1  0.15030900  0.15032400  0.12633800  1
  H  359  1  0.56348000  0.60329000  0.82207600  1
  H  368  1  0.66112500  0.63719000  0.78081200  1
  H  371  1  0.73344100  0.61559900  0.84504300  1
  H  372  1  0.67456900  0.55463500  0.83368300  1
  H  373  1  0.57681700  0.64510200  0.90918200  1
  H  374  1  0.65141300  0.55727600  0.72107300  1
  H  381  1  0.56346200  0.39843300  0.32360700  1
  H  390  1  0.66122700  0.36453700  0.36493400  1
  H  393  1  0.73346300  0.38610000  0.30075900  1
  H  394  1  0.67442300  0.44706400  0.31201800  1
  H  395  1  0.57697400  0.35664400  0.23650100  1
  H  396  1  0.65155900  0.44448000  0.42465600  1
  H  403  1  0.56347600  0.25160400  0.67525600  1
  H  412  1  0.66117600  0.29288600  0.70916500  1
  H  415  1  0.73345600  0.22870100  0.68759800  1
  H  416  1  0.67451800  0.24001900  0.62660900  1
  H  417  1  0.57686900  0.16450700  0.71708300  1
  H  418  1  0.65147100  0.35263700  0.62925800  1
  H  425  1  0.56345400  0.75013600  0.47042800  1
  H  434  1  0.66115500  0.70879000  0.43651600  1
  H  437  1  0.73347400  0.77294100  0.45808700  1
  H  438  1  0.67447000  0.76167800  0.51905900  1
  H  439  1  0.57702200  0.83724800  0.42866100  1
  H  440  1  0.65148200  0.64905200  0.51644300  1
  H  447  1  0.37024200  0.39844400  0.82207200  1
  H  456  1  0.27259200  0.36454500  0.78080700  1
  H  459  1  0.20028100  0.38613400  0.84504100  1
  H  460  1  0.25915500  0.44710100  0.83368100  1
  H  461  1  0.35690700  0.35663000  0.90917800  1
  H  462  1  0.28230700  0.44446000  0.72106900  1
  H  469  1  0.37025700  0.60329600  0.32360700  1
  H  478  1  0.27249000  0.63719000  0.36493600  1
  H  481  1  0.20025700  0.61562800  0.30076100  1
  H  482  1  0.25929700  0.55466500  0.31202000  1
  H  483  1  0.35674300  0.64508600  0.23650300  1
  H  484  1  0.28216100  0.55724900  0.42465600  1
  H  491  1  0.37023800  0.75012400  0.67525600  1
  H  500  1  0.27252700  0.70884500  0.70916700  1
  H  503  1  0.20025600  0.77302800  0.68759600  1
  H  504  1  0.25920300  0.76170800  0.62660700  1
  H  505  1  0.35684300  0.83722100  0.71708100  1
  H  506  1  0.28223800  0.64908600  0.62926200  1
  H  513  1  0.37026400  0.25159300  0.47042800  1
  H  522  1  0.27256100  0.29293700  0.43651600  1
  H  525  1  0.20024300  0.22878700  0.45808700  1
  H  526  1  0.25924900  0.24005000  0.51905900  1
  H  527  1  0.35669900  0.16448100  0.42865700  1
  H  528  1  0.28223600  0.35267800  0.51644100  1
  H  535  1  0.37168300  0.39862700  0.32275100  1
  H  544  1  0.27238200  0.36586700  0.36403200  1
  H  547  1  0.20230200  0.38787100  0.29801500  1
  H  548  1  0.26332500  0.44879000  0.31134000  1
  H  549  1  0.34862600  0.32138100  0.25866800  1
  H  550  1  0.28485800  0.44719200  0.42338800  1
  H  557  1  0.37162800  0.60310700  0.82296400  1
  H  566  1  0.27234400  0.63586700  0.78167700  1
  H  569  1  0.20222300  0.61386200  0.84766600  1
  H  570  1  0.26323600  0.55293100  0.83434500  1
  H  571  1  0.34851100  0.68035600  0.88703100  1
  H  572  1  0.28484700  0.55454300  0.72230900  1
  H  579  1  0.37173000  0.75095400  0.47061400  1
  H  588  1  0.27240900  0.70966600  0.43784300  1
  H  591  1  0.20232600  0.77564400  0.45982500  1
  H  592  1  0.26333100  0.76235600  0.52076100  1
  H  593  1  0.34866400  0.81503800  0.39337400  1
  H  594  1  0.28485500  0.65030400  0.51916300  1
  H  601  1  0.37168600  0.25073000  0.67507100  1
  H  610  1  0.27248000  0.29203700  0.70783500  1
  H  613  1  0.20226000  0.22605200  0.68583300  1
  H  614  1  0.26324000  0.23936300  0.62490100  1
  H  615  1  0.34855300  0.18667900  0.75232300  1
  H  616  1  0.28495000  0.35139500  0.62650200  1
  H  623  1  0.56203600  0.60310200  0.32275100  1
  H  632  1  0.66133700  0.63586300  0.36403400  1
  H  635  1  0.73141700  0.61385800  0.29801500  1
  H  636  1  0.67039300  0.55293700  0.31134200  1
  H  637  1  0.58509300  0.68034600  0.25866800  1
  H  638  1  0.64886000  0.55453700  0.42338800  1
  H  645  1  0.56209400  0.39862100  0.82295100  1
  H  654  1  0.66136200  0.36586700  0.78166100  1
  H  657  1  0.73149700  0.38787100  0.84765600  1
  H  658  1  0.67049500  0.44879700  0.83434300  1
  H  659  1  0.58521300  0.32137700  0.88702500  1
  H  660  1  0.64886000  0.44719600  0.72230700  1
  H  667  1  0.56198800  0.25077300  0.47061400  1
  H  676  1  0.66131100  0.29206400  0.43784300  1
  H  679  1  0.73139200  0.22608500  0.45982100  1
  H  680  1  0.67038900  0.23937200  0.52075900  1
  H  681  1  0.58505300  0.18669400  0.39337000  1
  H  682  1  0.64886400  0.35142200  0.51916300  1
  H  689  1  0.56202800  0.75100100  0.67506900  1
  H  698  1  0.66123800  0.70969800  0.70783500  1
  H  701  1  0.73145400  0.77568100  0.68583300  1
  H  702  1  0.67047700  0.76236800  0.62490100  1
  H  703  1  0.58515900  0.81505200  0.75232300  1
  H  704  1  0.64876900  0.65033600  0.62650400  1
  H  711  1  0.08900200  0.98067400  0.29092400  1
  H  715  1  0.26257200  0.05410500  0.28737100  1
  H  716  1  0.30962300  0.04962900  0.26647000  1
  H  723  1  0.08890400  0.02106000  0.85485700  1
  H  727  1  0.26250900  0.94767500  0.85822200  1
  H  728  1  0.30967100  0.95216000  0.87904800  1
  H  735  1  0.08891200  0.78283300  0.05266100  1
  H  739  1  0.26252200  0.78630000  0.12607200  1
  H  740  1  0.30959800  0.80718300  0.12159100  1
  H  747  1  0.08892100  0.21886400  0.09303100  1
  H  751  1  0.26251500  0.21544500  0.01964300  1
  H  752  1  0.30965500  0.19460400  0.02412400  1
  H  759  1  0.84471300  0.02105700  0.29092000  1
  H  763  1  0.67114800  0.94762200  0.28737900  1
  H  764  1  0.62409600  0.95209500  0.26647800  1
  H  771  1  0.84481500  0.98067400  0.85485900  1
  H  775  1  0.67120600  0.05405600  0.85823000  1
  H  776  1  0.62404500  0.04956900  0.87905400  1
  H  783  1  0.84481900  0.21889400  0.05265800  1
  H  787  1  0.67119900  0.21543100  0.12606200  1
  H  788  1  0.62412100  0.19455000  0.12157900  1
  H  795  1  0.84479700  0.78286800  0.09303400  1
  H  799  1  0.67120200  0.78628600  0.01964500  1
  H  800  1  0.62406300  0.80712600  0.02412700  1
  H  807  1  0.58773700  0.48064500  0.79074300  1
  H  811  1  0.76113400  0.55416900  0.78729600  1
  H  812  1  0.80820800  0.54976100  0.76639500  1
  H  819  1  0.58766400  0.52108900  0.35503100  1
  H  823  1  0.76109800  0.44761000  0.35828300  1
  H  824  1  0.80828100  0.45202600  0.37910600  1
  H  831  1  0.58767900  0.28301000  0.55262500  1
  H  835  1  0.76111200  0.28637100  0.62613500  1
  H  836  1  0.80820800  0.30725400  0.62172300  1
  H  843  1  0.58766800  0.71869700  0.59306100  1
  H  847  1  0.76109400  0.71538100  0.51958400  1
  H  848  1  0.80825600  0.69454100  0.52400000  1
  H  855  1  0.34598700  0.52108900  0.79073900  1
  H  859  1  0.17258700  0.44756700  0.78729400  1
  H  860  1  0.12551400  0.45197500  0.76639500  1
  H  867  1  0.34605300  0.48063900  0.35503100  1
  H  871  1  0.17262200  0.55411800  0.35828500  1
  H  872  1  0.12543700  0.54970200  0.37910600  1
  H  879  1  0.34604100  0.71871500  0.55262700  1
  H  883  1  0.17260500  0.71536000  0.62613300  1
  H  884  1  0.12550500  0.69448000  0.62172100  1
  H  891  1  0.34605000  0.28303400  0.59306100  1
  H  895  1  0.17262300  0.28634900  0.51958200  1
  H  896  1  0.12546100  0.30718700  0.52399800  1
  H  903  1  0.18006100  0.19889400  0.35920900  1
  H  907  1  0.25251400  0.17733200  0.47265800  1
  H  908  1  0.27108100  0.14686700  0.48312500  1
  H  915  1  0.18020400  0.80286300  0.78652600  1
  H  919  1  0.25244700  0.82447400  0.67307800  1
  H  920  1  0.27099300  0.85493800  0.66258700  1
  H  927  1  0.18005200  0.71451300  0.27088600  1
  H  931  1  0.25256400  0.60107700  0.24932700  1
  H  932  1  0.27115700  0.59061600  0.21886600  1
  H  939  1  0.18021200  0.28720200  0.87485800  1
  H  943  1  0.25252600  0.40064000  0.89645700  1
  H  944  1  0.27109100  0.41113000  0.92691700  1
  H  951  1  0.75365000  0.80283800  0.35920700  1
  H  955  1  0.68120700  0.82439300  0.47266200  1
  H  956  1  0.66264300  0.85485700  0.48313100  1
  H  963  1  0.75350400  0.19886900  0.78653100  1
  H  967  1  0.68126900  0.17725200  0.67308200  1
  H  968  1  0.66272300  0.14679000  0.66259100  1
  H  975  1  0.75366900  0.28721600  0.27088200  1
  H  979  1  0.68115600  0.40065300  0.24932500  1
  H  980  1  0.66256200  0.41111500  0.21886600  1
  H  987  1  0.75351500  0.71453200  0.87486000  1
  H  991  1  0.68119600  0.60109500  0.89646100  1
  H  992  1  0.66263200  0.59060600  0.92692100  1
  H  999  1  0.76523700  0.80009600  0.78134700  1
  H  1003  1  0.66861700  0.83078000  0.67656100  1
  H  1004  1  0.64341100  0.86104600  0.67083800  1
  H  1011  1  0.76503300  0.20162800  0.36426000  1
  H  1015  1  0.66869000  0.17099000  0.46911900  1
  H  1016  1  0.64355300  0.14071900  0.47490700  1
  H  1023  1  0.76529200  0.29234900  0.87207700  1
  H  1027  1  0.66866800  0.39714300  0.90273200  1
  H  1028  1  0.64346200  0.40287400  0.93299400  1
  H  1035  1  0.76510200  0.70942500  0.27358800  1
  H  1039  1  0.66867500  0.60459100  0.24294500  1
  H  1040  1  0.64352000  0.59881300  0.21267400  1
  H  1047  1  0.16847200  0.20163700  0.78134500  1
  H  1051  1  0.26509800  0.17095300  0.67656100  1
  H  1052  1  0.29030200  0.14068800  0.67083800  1
  H  1059  1  0.16868300  0.80010800  0.36426600  1
  H  1063  1  0.26503000  0.83073700  0.46912700  1
  H  1064  1  0.29017000  0.86100900  0.47491800  1
  H  1071  1  0.16844200  0.70939300  0.87207300  1
  H  1075  1  0.26504700  0.60459700  0.90274400  1
  H  1076  1  0.29024900  0.59887000  0.93301000  1
  H  1083  1  0.16861400  0.29230200  0.27358600  1
  H  1087  1  0.26504400  0.39713900  0.24294300  1
  H  1088  1  0.29019900  0.40291500  0.21267400  1
  H  1095  1  0.12108200  0.13583200  0.17658500  1
  H  1099  1  0.27549300  0.10782300  0.25900600  1
  H  1100  1  0.30776800  0.13127100  0.27552600  1
  H  1107  1  0.12104200  0.86584500  0.96899800  1
  H  1111  1  0.27557800  0.89394700  0.88670900  1
  H  1112  1  0.30801600  0.87052700  0.87024400  1
  H  1119  1  0.12115000  0.89710600  0.20782500  1
  H  1123  1  0.27550400  0.81463700  0.17981800  1
  H  1124  1  0.30775600  0.79811900  0.20327700  1
  H  1131  1  0.12106400  0.10468000  0.93780900  1
  H  1135  1  0.27550800  0.18699800  0.96594400  1
  H  1136  1  0.30795700  0.20347900  0.94254300  1
  H  1143  1  0.81263600  0.86589800  0.17658700  1
  H  1147  1  0.65822600  0.89390600  0.25901000  1
  H  1148  1  0.62595200  0.87045600  0.27553000  1
  H  1155  1  0.81269800  0.13590500  0.96899100  1
  H  1159  1  0.65813100  0.10776900  0.88673700  1
  H  1160  1  0.62567100  0.13117600  0.87027100  1
  H  1167  1  0.81253700  0.10462600  0.20782700  1
  H  1171  1  0.65820800  0.18710800  0.17980800  1
  H  1172  1  0.62595600  0.20362700  0.20326600  1
  H  1179  1  0.81265400  0.89705200  0.93781100  1
  H  1183  1  0.65821100  0.81473400  0.96594600  1
  H  1184  1  0.62576200  0.79825300  0.94254500  1
  H  1191  1  0.61976600  0.63597900  0.67665300  1
  H  1195  1  0.77380100  0.60816800  0.75934900  1
  H  1196  1  0.80585600  0.63165500  0.77594800  1
  H  1203  1  0.61977000  0.36571200  0.46893200  1
  H  1207  1  0.77391400  0.39359600  0.38634800  1
  H  1208  1  0.80612200  0.37013400  0.36980600  1
  H  1215  1  0.61986900  0.39702900  0.70796800  1
  H  1219  1  0.77383400  0.31427400  0.68016500  1
  H  1220  1  0.80585900  0.29767900  0.70366600  1
  H  1227  1  0.61977700  0.60474100  0.43768200  1
  H  1231  1  0.77384100  0.68734400  0.46560500  1
  H  1232  1  0.80606700  0.70390200  0.44216100  1
  H  1239  1  0.31395300  0.36575500  0.67665100  1
  H  1243  1  0.15991700  0.39356800  0.75934700  1
  H  1244  1  0.12786200  0.37008100  0.77594400  1
  H  1251  1  0.31394800  0.63601500  0.46893200  1
  H  1255  1  0.15980500  0.60813300  0.38635000  1
  H  1256  1  0.12759700  0.63159300  0.36980600  1
  H  1263  1  0.31384100  0.60470900  0.70799200  1
  H  1267  1  0.15986900  0.68744300  0.68014400  1
  H  1268  1  0.12782500  0.70404200  0.70363500  1
  H  1275  1  0.31394200  0.39698600  0.43768200  1
  H  1279  1  0.15987700  0.31438400  0.46560500  1
  H  1280  1  0.12765100  0.29782800  0.44216100  1
  H  1287  1  0.93050900  0.17349000  0.35702500  1
  H  1291  1  0.06795900  0.08369300  0.38933500  1
  H  1292  1  0.05872600  0.05121100  0.38122000  1
  H  1299  1  0.93066900  0.82829000  0.78867200  1
  H  1303  1  0.06798800  0.91810300  0.75631700  1
  H  1304  1  0.05871800  0.95059500  0.76438200  1
  H  1311  1  0.93054900  0.71670400  0.24545100  1
  H  1315  1  0.06801200  0.68430400  0.15568700  1
  H  1316  1  0.05877900  0.69238300  0.12319700  1
  H  1323  1  0.93072400  0.28504400  0.90028900  1
  H  1327  1  0.06802500  0.31745000  0.99010000  1
  H  1328  1  0.05874700  0.30940400  0.02259700  1
  H  1335  1  0.00321200  0.82824700  0.35703700  1
  H  1339  1  0.86575000  0.91804200  0.38934100  1
  H  1340  1  0.87498400  0.95052300  0.38122600  1
  H  1347  1  0.00304200  0.17344400  0.78867400  1
  H  1351  1  0.86572400  0.08362800  0.75632300  1
  H  1352  1  0.87499500  0.05113600  0.76438800  1
  H  1359  1  0.00316700  0.28502600  0.24544900  1
  H  1363  1  0.86570600  0.31742800  0.15568400  1
  H  1364  1  0.87494000  0.30934900  0.12319300  1
  H  1371  1  0.00300100  0.71670400  0.90028300  1
  H  1375  1  0.86571300  0.68428800  0.99009600  1
  H  1376  1  0.87499200  0.69233200  0.02259400  1
  H  1383  1  0.42993900  0.67267500  0.85839100  1
  H  1387  1  0.56821400  0.58315000  0.89033100  1
  H  1388  1  0.55924500  0.55066300  0.88216700  1
  H  1395  1  0.43006600  0.32907500  0.28737700  1
  H  1399  1  0.56820700  0.41857700  0.25530700  1
  H  1400  1  0.55921600  0.45108500  0.26338800  1
  H  1407  1  0.42998300  0.21533300  0.74463700  1
  H  1411  1  0.56825400  0.18332200  0.65513100  1
  H  1412  1  0.55927800  0.19145700  0.62263500  1
  H  1419  1  0.43011000  0.78632900  0.40107600  1
  H  1423  1  0.56823200  0.81844000  0.49058200  1
  H  1424  1  0.55923400  0.81037100  0.52309400  1
  H  1431  1  0.50377900  0.32905700  0.85838500  1
  H  1435  1  0.36551200  0.41858100  0.89032700  1
  H  1436  1  0.37448400  0.45107100  0.88216300  1
  H  1443  1  0.50365200  0.67265400  0.28737900  1
  H  1447  1  0.36551200  0.58315200  0.25530700  1
  H  1448  1  0.37450200  0.55064200  0.26338800  1
  H  1455  1  0.50372800  0.78639800  0.74463700  1
  H  1459  1  0.36545700  0.81840500  0.65512900  1
  H  1460  1  0.37443300  0.81026800  0.62263500  1
  H  1467  1  0.50360400  0.21540000  0.40107400  1
  H  1471  1  0.36548600  0.18328700  0.49058000  1
  H  1472  1  0.37448700  0.19135600  0.52309200  1
  C  1  1  0.13806400  0.11492900  0.32678100  1
  C  2  1  0.08822400  0.11404000  0.33373700  1
  C  3  1  0.06978500  0.12854800  0.35632800  1
  C  4  1  0.10220200  0.14465800  0.37199300  1
  C  5  1  0.15236100  0.14598300  0.36508300  1
  C  6  1  0.17030400  0.13097300  0.34257300  1
  C  9  1  0.15364600  0.10105300  0.30298000  1
  C  10  1  0.15432100  0.07228700  0.30153300  1
  C  11  1  0.16552400  0.05889900  0.27666400  1
  C  12  1  0.17498200  0.07478800  0.25303100  1
  C  13  1  0.17618100  0.10359700  0.25458800  1
  C  14  1  0.16474800  0.11634400  0.27955700  1
  C  23  1  0.13804200  0.88677800  0.81896500  1
  C  24  1  0.08823100  0.88770200  0.81194500  1
  C  25  1  0.06986000  0.87320900  0.78933000  1
  C  26  1  0.10231900  0.85711200  0.77368000  1
  C  27  1  0.15245000  0.85576300  0.78064700  1
  C  28  1  0.17032800  0.87074300  0.80319300  1
  C  31  1  0.15357300  0.90066700  0.84277100  1
  C  32  1  0.15422200  0.92943500  0.84420500  1
  C  33  1  0.16546800  0.94283600  0.86905900  1
  C  34  1  0.17500200  0.92696200  0.89269300  1
  C  35  1  0.17620700  0.89815300  0.89114700  1
  C  36  1  0.16473800  0.88538800  0.86619500  1
  C  45  1  0.13805400  0.74692300  0.18690000  1
  C  46  1  0.08822700  0.73993600  0.18599200  1
  C  47  1  0.06981000  0.71734900  0.20051400  1
  C  48  1  0.10223700  0.70170500  0.21663600  1
  C  49  1  0.15238500  0.70863500  0.21796800  1
  C  50  1  0.17030500  0.73115300  0.20296000  1
  C  53  1  0.15359200  0.77073600  0.17303100  1
  C  54  1  0.15427200  0.77218100  0.14426400  1
  C  55  1  0.16548900  0.79704600  0.13087500  1
  C  56  1  0.17498400  0.82067700  0.14676200  1
  C  57  1  0.17619800  0.81911800  0.17557000  1
  C  58  1  0.16473000  0.79415700  0.18832100  1
  C  67  1  0.13805300  0.25478000  0.95878100  1
  C  68  1  0.08824700  0.26181200  0.95971200  1
  C  69  1  0.06988300  0.28442500  0.94521200  1
  C  70  1  0.10235100  0.30007100  0.92911600  1
  C  71  1  0.15247500  0.29309200  0.92776000  1
  C  72  1  0.17033900  0.27054000  0.94273200  1
  C  75  1  0.15355000  0.23095500  0.97265000  1
  C  76  1  0.15423200  0.22951200  0.00141700  1
  C  77  1  0.16546100  0.20464900  0.01480700  1
  C  78  1  0.17495500  0.18101700  0.99892200  1
  C  79  1  0.17613300  0.18257200  0.97011100  1
  C  80  1  0.16471000  0.20753800  0.95735800  1
  C  89  1  0.79565500  0.88680100  0.32678500  1
  C  90  1  0.84549300  0.88769200  0.33374400  1
  C  91  1  0.86393300  0.87318400  0.35633400  1
  C  92  1  0.83151400  0.85707400  0.37199700  1
  C  93  1  0.78135800  0.85574600  0.36508700  1
  C  94  1  0.76341400  0.87075500  0.34257500  1
  C  97  1  0.78007400  0.90067800  0.30298500  1
  C  98  1  0.77939900  0.92944100  0.30153500  1
  C  99  1  0.76819500  0.94283000  0.27666800  1
  C  100  1  0.75873800  0.92694100  0.25303300  1
  C  101  1  0.75753800  0.89813300  0.25459000  1
  C  102  1  0.76897200  0.88538600  0.27955900  1
  C  111  1  0.79566900  0.11495300  0.81897100  1
  C  112  1  0.84548200  0.11403000  0.81195100  1
  C  113  1  0.86384900  0.12852400  0.78933600  1
  C  114  1  0.83139000  0.14462000  0.77368600  1
  C  115  1  0.78125900  0.14596900  0.78065100  1
  C  116  1  0.76338500  0.13098800  0.80319700  1
  C  119  1  0.78014000  0.10106400  0.84277700  1
  C  120  1  0.77949000  0.07229700  0.84421100  1
  C  121  1  0.76825000  0.05889500  0.86906500  1
  C  122  1  0.75871600  0.07476900  0.89269900  1
  C  123  1  0.75750900  0.10357900  0.89115300  1
  C  124  1  0.76897200  0.11634500  0.86620100  1
  C  133  1  0.79566600  0.25480800  0.18689400  1
  C  134  1  0.84549000  0.26179500  0.18598700  1
  C  135  1  0.86390800  0.28438000  0.20051000  1
  C  136  1  0.83148100  0.30002400  0.21663200  1
  C  137  1  0.78133200  0.29309400  0.21796400  1
  C  138  1  0.76341400  0.27057800  0.20295500  1
  C  141  1  0.78012500  0.23099400  0.17302500  1
  C  142  1  0.77945000  0.22954800  0.14425800  1
  C  143  1  0.76823200  0.20468300  0.13086900  1
  C  144  1  0.75873100  0.18105300  0.14675600  1
  C  145  1  0.75751300  0.18261400  0.17556500  1
  C  146  1  0.76898300  0.20757400  0.18831600  1
  C  155  1  0.79566900  0.74695400  0.95878300  1
  C  156  1  0.84547500  0.73992400  0.95971200  1
  C  157  1  0.86384200  0.71731300  0.94521000  1
  C  158  1  0.83137500  0.70166400  0.92911600  1
  C  159  1  0.78125200  0.70864200  0.92776000  1
  C  160  1  0.76338500  0.73119400  0.94273400  1
  C  163  1  0.78016900  0.77077600  0.97265200  1
  C  164  1  0.77948700  0.77222200  0.00141900  1
  C  165  1  0.76825700  0.79708300  0.01480900  1
  C  166  1  0.75876400  0.82071600  0.99892400  1
  C  167  1  0.75758600  0.81916100  0.97011300  1
  C  168  1  0.76900900  0.79419400  0.95736000  1
  C  177  1  0.79740900  0.88742600  0.81815700  1
  C  178  1  0.84746300  0.88726900  0.81158100  1
  C  179  1  0.86605200  0.87083700  0.79037400  1
  C  180  1  0.83338100  0.85422800  0.77538800  1
  C  181  1  0.78265600  0.85478900  0.78116200  1
  C  182  1  0.76482200  0.87134200  0.80260800  1
  C  185  1  0.78212000  0.90173600  0.84181900  1
  C  186  1  0.78351000  0.93050600  0.84333900  1
  C  187  1  0.77321000  0.94407800  0.86823700  1
  C  188  1  0.76238500  0.92841900  0.89182300  1
  C  189  1  0.76074800  0.89960700  0.89043900  1
  C  190  1  0.77031400  0.88666800  0.86532100  1
  C  199  1  0.79732900  0.11431400  0.32752200  1
  C  200  1  0.84737900  0.11446400  0.33411200  1
  C  201  1  0.86595000  0.13091600  0.35530600  1
  C  202  1  0.83326100  0.14751600  0.37028900  1
  C  203  1  0.78254000  0.14694800  0.36451100  1
  C  204  1  0.76471900  0.13039000  0.34306400  1
  C  207  1  0.78205800  0.09999700  0.30385800  1
  C  208  1  0.78343300  0.07122600  0.30235100  1
  C  209  1  0.77314400  0.05765000  0.27745400  1
  C  210  1  0.76233400  0.07330300  0.25386100  1
  C  211  1  0.76069700  0.10211500  0.25523600  1
  C  212  1  0.77028900  0.11506200  0.28034500  1
  C  221  1  0.79746400  0.25556500  0.95941800  1
  C  222  1  0.84751400  0.26216600  0.95928800  1
  C  223  1  0.86609200  0.28336000  0.94284000  1
  C  224  1  0.83342100  0.29833200  0.92621800  1
  C  225  1  0.78270400  0.29254600  0.92677000  1
  C  226  1  0.76487600  0.27109400  0.94331800  1
  C  229  1  0.78222200  0.23188100  0.97371100  1
  C  230  1  0.78356100  0.23037100  0.00248400  1
  C  231  1  0.77325400  0.20547100  0.01605300  1
  C  232  1  0.76242500  0.18188700  0.00039200  1
  C  233  1  0.76079100  0.18327200  0.97158100  1
  C  234  1  0.77040500  0.20838300  0.95864100  1
  C  243  1  0.79737300  0.74615200  0.18625100  1
  C  244  1  0.84742300  0.73955900  0.18640300  1
  C  245  1  0.86599400  0.71837500  0.20286900  1
  C  246  1  0.83330800  0.70339900  0.21947800  1
  C  247  1  0.78258700  0.70917900  0.21890200  1
  C  248  1  0.76477100  0.73062400  0.20234200  1
  C  251  1  0.78214600  0.76984000  0.17196000  1
  C  252  1  0.78348000  0.77135500  0.14318800  1
  C  253  1  0.77320600  0.79626000  0.12962500  1
  C  254  1  0.76243600  0.81985100  0.14528800  1
  C  255  1  0.76084600  0.81846600  0.17410100  1
  C  256  1  0.77036200  0.79334100  0.18703400  1
  C  265  1  0.13630600  0.11430600  0.81815500  1
  C  266  1  0.08624900  0.11446400  0.81158100  1
  C  267  1  0.06766100  0.13089600  0.79037400  1
  C  268  1  0.10033100  0.14750700  0.77538800  1
  C  269  1  0.15105400  0.14694500  0.78116200  1
  C  270  1  0.16889000  0.13039100  0.80260600  1
  C  273  1  0.15159400  0.09999500  0.84181600  1
  C  274  1  0.15020600  0.07122600  0.84333500  1
  C  275  1  0.16050700  0.05765500  0.86823500  1
  C  276  1  0.17133400  0.07331300  0.89181900  1
  C  277  1  0.17296900  0.10212500  0.89043700  1
  C  278  1  0.16340300  0.11506300  0.86532100  1
  C  287  1  0.13638900  0.88742200  0.32753200  1
  C  288  1  0.08633800  0.88727300  0.33412400  1
  C  289  1  0.06776800  0.87082000  0.35531800  1
  C  290  1  0.10045800  0.85421900  0.37030100  1
  C  291  1  0.15117900  0.85478700  0.36452100  1
  C  292  1  0.16899800  0.87134600  0.34307400  1
  C  295  1  0.15165600  0.90173600  0.30386600  1
  C  296  1  0.15028800  0.93050600  0.30236000  1
  C  297  1  0.16056600  0.94408000  0.27745800  1
  C  298  1  0.17136300  0.92842300  0.25386500  1
  C  299  1  0.17299700  0.89961100  0.25524200  1
  C  300  1  0.16341100  0.88666800  0.28035500  1
  C  309  1  0.13626200  0.74618400  0.95941200  1
  C  310  1  0.08621400  0.73958400  0.95928200  1
  C  311  1  0.06763200  0.71838800  0.94283400  1
  C  312  1  0.10030700  0.70341700  0.92621200  1
  C  313  1  0.15102500  0.70920100  0.92676600  1
  C  314  1  0.16885000  0.73065400  0.94331400  1
  C  317  1  0.15150700  0.76986400  0.97371100  1
  C  318  1  0.15016700  0.77136900  0.00248400  1
  C  319  1  0.16048000  0.79626400  0.01605900  1
  C  320  1  0.17131500  0.81985100  0.00040400  1
  C  321  1  0.17295200  0.81847200  0.97159100  1
  C  322  1  0.16332900  0.79336700  0.95864500  1
  C  331  1  0.13634500  0.25557800  0.18624900  1
  C  332  1  0.08629400  0.26217000  0.18640100  1
  C  333  1  0.06772400  0.28335400  0.20286700  1
  C  334  1  0.10040900  0.29833000  0.21947600  1
  C  335  1  0.15113000  0.29255000  0.21890200  1
  C  336  1  0.16894700  0.27110600  0.20234100  1
  C  339  1  0.15157300  0.23189000  0.17195800  1
  C  340  1  0.15023600  0.23037500  0.14318600  1
  C  341  1  0.16051100  0.20546900  0.12962300  1
  C  342  1  0.17128300  0.18187900  0.14528600  1
  C  343  1  0.17287000  0.18326200  0.17409800  1
  C  344  1  0.16335500  0.20838900  0.18703200  1
  C  353  1  0.63699600  0.61468900  0.82707400  1
  C  354  1  0.58731400  0.61378100  0.83429000  1
  C  355  1  0.56945700  0.62790400  0.85724500  1
  C  356  1  0.60235900  0.64340400  0.87323900  1
  C  357  1  0.65260200  0.64448500  0.86630900  1
  C  358  1  0.66968200  0.63024200  0.84304800  1
  C  361  1  0.65217500  0.60095300  0.80311700  1
  C  362  1  0.65297000  0.57219500  0.80156000  1
  C  363  1  0.66409100  0.55892500  0.77662000  1
  C  364  1  0.67344900  0.57492100  0.75304700  1
  C  365  1  0.67456500  0.60372800  0.75472300  1
  C  366  1  0.66315300  0.61636100  0.77975500  1
  C  375  1  0.63698100  0.38701000  0.31866900  1
  C  376  1  0.58732100  0.38794400  0.31140500  1
  C  377  1  0.56950900  0.37381700  0.28844200  1
  C  378  1  0.60244200  0.35832100  0.27246400  1
  C  379  1  0.65266800  0.35723000  0.27942900  1
  C  380  1  0.66969600  0.37145900  0.30271000  1
  C  383  1  0.65212400  0.40076300  0.34262400  1
  C  384  1  0.65289000  0.42952200  0.34416800  1
  C  385  1  0.66406100  0.44280900  0.36909200  1
  C  386  1  0.67350000  0.42682900  0.39266400  1
  C  387  1  0.67462400  0.39802200  0.39100200  1
  C  388  1  0.66317100  0.38536900  0.36598900  1
  C  397  1  0.63699200  0.24662600  0.68665700  1
  C  398  1  0.58732500  0.23938400  0.68572700  1
  C  399  1  0.56947900  0.21643300  0.69986700  1
  C  400  1  0.60238800  0.20045500  0.71537800  1
  C  401  1  0.65262400  0.20739900  0.71646600  1
  C  402  1  0.66968500  0.23066600  0.70222400  1
  C  405  1  0.65214200  0.27059100  0.67292900  1
  C  406  1  0.65294100  0.27214600  0.64416900  1
  C  407  1  0.66408300  0.29708200  0.63089900  1
  C  408  1  0.67348200  0.32065200  0.64689400  1
  C  409  1  0.67460900  0.31897300  0.67570000  1
  C  410  1  0.66315700  0.29394900  0.68833500  1
  C  419  1  0.63698100  0.75506500  0.45901300  1
  C  420  1  0.58732500  0.76233900  0.45995600  1
  C  421  1  0.56952300  0.78530500  0.44582400  1
  C  422  1  0.60246400  0.80128100  0.43033300  1
  C  423  1  0.65268600  0.79430600  0.42923500  1
  C  424  1  0.66970000  0.77101500  0.44345600  1
  C  427  1  0.65209900  0.73109400  0.47274700  1
  C  428  1  0.65289400  0.72954500  0.50150700  1
  C  429  1  0.66404700  0.70461200  0.51478300  1
  C  430  1  0.67344500  0.68104000  0.49879500  1
  C  431  1  0.67454300  0.68271000  0.46998900  1
  C  432  1  0.66313500  0.70773600  0.45734500  1
  C  441  1  0.29672500  0.38704600  0.82707000  1
  C  442  1  0.34640600  0.38795200  0.83428600  1
  C  443  1  0.36426500  0.37382900  0.85724100  1
  C  444  1  0.33136400  0.35833000  0.87323500  1
  C  445  1  0.28112000  0.35724800  0.86630700  1
  C  446  1  0.26404000  0.37149400  0.84304600  1
  C  449  1  0.28154400  0.40078100  0.80311500  1
  C  450  1  0.28075100  0.42953900  0.80155600  1
  C  451  1  0.26963100  0.44280900  0.77661800  1
  C  452  1  0.26026900  0.42681400  0.75304300  1
  C  453  1  0.25915200  0.39800800  0.75472100  1
  C  454  1  0.27056600  0.38537500  0.77975100  1
  C  463  1  0.29673900  0.61471800  0.31866900  1
  C  464  1  0.34639800  0.61378300  0.31140700  1
  C  465  1  0.36420900  0.62791000  0.28844200  1
  C  466  1  0.33127700  0.64340800  0.27246600  1
  C  467  1  0.28105000  0.64449900  0.27943100  1
  C  468  1  0.26402200  0.63026800  0.30271200  1
  C  471  1  0.28159500  0.60096700  0.34262600  1
  C  472  1  0.28082900  0.57220700  0.34416800  1
  C  473  1  0.26965900  0.55891900  0.36909200  1
  C  474  1  0.26021900  0.57489900  0.39266600  1
  C  475  1  0.25909600  0.60370500  0.39100200  1
  C  476  1  0.27054900  0.61635800  0.36598900  1
  C  485  1  0.29672000  0.75510400  0.68665700  1
  C  486  1  0.34638800  0.76234600  0.68572700  1
  C  487  1  0.36423300  0.78529700  0.69986500  1
  C  488  1  0.33132600  0.80127300  0.71537800  1
  C  489  1  0.28109000  0.79433000  0.71646600  1
  C  490  1  0.26402900  0.77106100  0.70222400  1
  C  493  1  0.28156900  0.73113700  0.67292900  1
  C  494  1  0.28077500  0.72957900  0.64417100  1
  C  495  1  0.26963400  0.70464300  0.63089900  1
  C  496  1  0.26023000  0.68107500  0.64689600  1
  C  497  1  0.25909900  0.68275700  0.67570000  1
  C  498  1  0.27055000  0.70778000  0.68833500  1
  C  507  1  0.29673800  0.24666200  0.45901300  1
  C  508  1  0.34639100  0.23938800  0.45995300  1
  C  509  1  0.36419500  0.21642500  0.44582200  1
  C  510  1  0.33125400  0.20044700  0.43033100  1
  C  511  1  0.28103200  0.20742400  0.42923500  1
  C  512  1  0.26401700  0.23071500  0.44345600  1
  C  515  1  0.28162000  0.27063300  0.47274700  1
  C  516  1  0.28082400  0.27218300  0.50150500  1
  C  517  1  0.26967300  0.29711500  0.51478300  1
  C  518  1  0.26027100  0.32068900  0.49879500  1
  C  519  1  0.25917400  0.31901800  0.46998700  1
  C  520  1  0.27058100  0.29399200  0.45734500  1
  C  529  1  0.29787700  0.38780000  0.31776800  1
  C  530  1  0.34776400  0.38779200  0.31088200  1
  C  531  1  0.36586200  0.37179100  0.28924600  1
  C  532  1  0.33279700  0.35576000  0.27391900  1
  C  533  1  0.28193600  0.35657900  0.27958100  1
  C  534  1  0.26492800  0.37218400  0.30200500  1
  C  537  1  0.28297000  0.40192900  0.34161000  1
  C  538  1  0.28433600  0.43068900  0.34327400  1
  C  539  1  0.27431800  0.44412000  0.36827700  1
  C  540  1  0.26370600  0.42833900  0.39180900  1
  C  541  1  0.26206300  0.39953100  0.39028000  1
  C  542  1  0.27138000  0.38672700  0.36505800  1
  C  551  1  0.29782100  0.61392600  0.82793700  1
  C  552  1  0.34770000  0.61391900  0.83484500  1
  C  553  1  0.36578200  0.62993800  0.85647300  1
  C  554  1  0.33270400  0.64596700  0.87179200  1
  C  555  1  0.28184600  0.64514700  0.86611700  1
  C  556  1  0.26485600  0.62954300  0.84369200  1
  C  559  1  0.28293500  0.59979800  0.80408600  1
  C  560  1  0.28429300  0.57103800  0.80242500  1
  C  561  1  0.27428800  0.55760900  0.77741800  1
  C  562  1  0.26368500  0.57339600  0.75388600  1
  C  563  1  0.26203900  0.60220500  0.75541900  1
  C  564  1  0.27137800  0.61500700  0.78063600  1
  C  573  1  0.29792300  0.75593400  0.45979100  1
  C  574  1  0.34780000  0.76284800  0.45981500  1
  C  575  1  0.36589500  0.78447000  0.44379600  1
  C  576  1  0.33283100  0.79978400  0.42775300  1
  C  577  1  0.28197400  0.79411200  0.42856300  1
  C  578  1  0.26497400  0.77168200  0.44415900  1
  C  581  1  0.28304700  0.73207500  0.47390800  1
  C  582  1  0.28437000  0.73042400  0.50267000  1
  C  583  1  0.27433800  0.70542300  0.51610300  1
  C  584  1  0.26371300  0.68189100  0.50032200  1
  C  585  1  0.26206900  0.68342000  0.47151400  1
  C  586  1  0.27144400  0.70862900  0.45870500  1
  C  595  1  0.29786700  0.24575200  0.68587400  1
  C  596  1  0.34774300  0.23883800  0.68586100  1
  C  597  1  0.36582200  0.21722100  0.70189400  1
  C  598  1  0.33274600  0.20190900  0.71793000  1
  C  599  1  0.28188900  0.20758400  0.71710700  1
  C  600  1  0.26490400  0.23001200  0.70150400  1
  C  603  1  0.28301400  0.26962000  0.67176500  1
  C  604  1  0.28432800  0.27128100  0.64300300  1
  C  605  1  0.27433400  0.29629200  0.62958000  1
  C  606  1  0.26377800  0.31982800  0.64536700  1
  C  607  1  0.26218800  0.31829500  0.67417700  1
  C  608  1  0.27145600  0.29306700  0.68697500  1
  C  617  1  0.63584300  0.61392800  0.31777000  1
  C  618  1  0.58595400  0.61393800  0.31088400  1
  C  619  1  0.56785600  0.62993800  0.28924800  1
  C  620  1  0.60092200  0.64596700  0.27391900  1
  C  621  1  0.65178100  0.64514900  0.27958300  1
  C  622  1  0.66879200  0.62954500  0.30200500  1
  C  625  1  0.65074900  0.59979800  0.34161200  1
  C  626  1  0.64938100  0.57103800  0.34327400  1
  C  627  1  0.65940000  0.55760700  0.36827900  1
  C  628  1  0.67001400  0.57338800  0.39181100  1
  C  629  1  0.67165500  0.60219900  0.39028000  1
  C  630  1  0.66234000  0.61500300  0.36506000  1
  C  639  1  0.63589800  0.38780200  0.82792700  1
  C  640  1  0.58601900  0.38781000  0.83483500  1
  C  641  1  0.56794000  0.37179300  0.85646300  1
  C  642  1  0.60102000  0.35576600  0.87178100  1
  C  643  1  0.65187600  0.35658700  0.86610900  1
  C  644  1  0.66886500  0.37218800  0.84368100  1
  C  647  1  0.65078600  0.40193300  0.80407600  1
  C  648  1  0.64943300  0.43069300  0.80242100  1
  C  649  1  0.65943700  0.44412400  0.77741400  1
  C  650  1  0.67003200  0.42834300  0.75388000  1
  C  651  1  0.67167700  0.39953500  0.75540900  1
  C  652  1  0.66233600  0.38672700  0.78062400  1
  C  661  1  0.63579600  0.24579300  0.45978900  1
  C  662  1  0.58591700  0.23888100  0.45981300  1
  C  663  1  0.56782400  0.21725700  0.44379400  1
  C  664  1  0.60088500  0.20194600  0.42774700  1
  C  665  1  0.65174500  0.20761900  0.42855900  1
  C  666  1  0.66874400  0.23004700  0.44415500  1
  C  669  1  0.65067300  0.26965200  0.47390600  1
  C  670  1  0.64934900  0.27130300  0.50266800  1
  C  671  1  0.65938200  0.29630500  0.51610100  1
  C  672  1  0.67000600  0.31983600  0.50032200  1
  C  673  1  0.67165100  0.31830700  0.47151400  1
  C  674  1  0.66227400  0.29309800  0.45870300  1
  C  683  1  0.63584700  0.75597900  0.68587200  1
  C  684  1  0.58597200  0.76289300  0.68586100  1
  C  685  1  0.56788900  0.78451100  0.70189200  1
  C  686  1  0.60096500  0.79982300  0.71793000  1
  C  687  1  0.65182500  0.79414900  0.71710700  1
  C  688  1  0.66881000  0.77172100  0.70150200  1
  C  691  1  0.65070200  0.73211200  0.67176500  1
  C  692  1  0.64938900  0.73045300  0.64300300  1
  C  693  1  0.65938600  0.70543900  0.62958000  1
  C  694  1  0.66994100  0.68190600  0.64536900  1
  C  695  1  0.67153100  0.68343700  0.67417900  1
  C  696  1  0.66226300  0.70866600  0.68697500  1
  C  705  1  0.16675400  0.02992200  0.27586800  1
  C  707  1  0.12105500  0.98915500  0.28454100  1
  C  708  1  0.16078900  0.97297800  0.27622800  1
  C  710  1  0.20716900  0.01380100  0.26742500  1
  C  712  1  0.25376800  0.02361400  0.25969000  1
  C  717  1  0.16670600  0.97181500  0.86983900  1
  C  719  1  0.12098100  0.01258000  0.86120100  1
  C  720  1  0.16075100  0.02875600  0.86945800  1
  C  722  1  0.20716700  0.98793800  0.87820900  1
  C  724  1  0.25376500  0.97811500  0.88593300  1
  C  729  1  0.16671100  0.79784400  0.10189800  1
  C  731  1  0.12097900  0.78919800  0.06113800  1
  C  732  1  0.16072700  0.79748200  0.04495800  1
  C  734  1  0.20713200  0.80626900  0.08577200  1
  C  736  1  0.25374500  0.81398500  0.09558100  1
  C  741  1  0.16670200  0.20385700  0.04378400  1
  C  743  1  0.12099100  0.21250900  0.08455000  1
  C  744  1  0.16075700  0.20424100  0.10072500  1
  C  746  1  0.20715600  0.19547400  0.05990600  1
  C  748  1  0.25374400  0.18773300  0.05007800  1
  C  753  1  0.76696200  0.97180700  0.27587000  1
  C  755  1  0.81266100  0.01257500  0.28453900  1
  C  756  1  0.77292600  0.02875100  0.27622800  1
  C  758  1  0.72654500  0.98792800  0.26742900  1
  C  760  1  0.67994500  0.97811200  0.25969400  1
  C  765  1  0.76701400  0.02991700  0.86984500  1
  C  767  1  0.81273800  0.98915300  0.86120500  1
  C  768  1  0.77296600  0.97297600  0.86946200  1
  C  770  1  0.72655200  0.01379300  0.87821500  1
  C  772  1  0.67995600  0.02361700  0.88594100  1
  C  777  1  0.76701400  0.20388500  0.10189200  1
  C  779  1  0.81275300  0.21253000  0.06113400  1
  C  780  1  0.77300600  0.20424800  0.04495200  1
  C  782  1  0.72659600  0.19546100  0.08576500  1
  C  784  1  0.67997800  0.18774600  0.09557100  1
  C  789  1  0.76701700  0.79787500  0.04378700  1
  C  791  1  0.81272700  0.78922200  0.08455200  1
  C  792  1  0.77296200  0.79748800  0.10072700  1
  C  794  1  0.72656300  0.80625700  0.05990800  1
  C  796  1  0.67997400  0.81399700  0.05008100  1
  C  801  1  0.66536700  0.52995300  0.77571400  1
  C  803  1  0.61975200  0.48915300  0.78434000  1
  C  804  1  0.65954600  0.47301400  0.77604700  1
  C  806  1  0.70582100  0.51386900  0.76725600  1
  C  808  1  0.75240300  0.52372900  0.75954800  1
  C  813  1  0.66534500  0.47178000  0.36998100  1
  C  815  1  0.61970400  0.51258100  0.36139600  1
  C  816  1  0.65953500  0.52871900  0.36963500  1
  C  818  1  0.70584700  0.48786600  0.37836500  1
  C  820  1  0.75242900  0.47799400  0.38606100  1
  C  825  1  0.66535200  0.29799200  0.60192800  1
  C  827  1  0.61970800  0.28939500  0.56113200  1
  C  828  1  0.65951700  0.29765900  0.54499100  1
  C  830  1  0.70581400  0.30643300  0.58584200  1
  C  832  1  0.75240700  0.31412300  0.59569600  1
  C  837  1  0.66533100  0.70371500  0.54375500  1
  C  839  1  0.61970100  0.71232000  0.58455300  1
  C  840  1  0.65952800  0.70407500  0.60069200  1
  C  842  1  0.70582500  0.69532000  0.55984100  1
  C  844  1  0.75239600  0.68760600  0.54996900  1
  C  849  1  0.26835400  0.47178000  0.77570900  1
  C  851  1  0.31397100  0.51258100  0.78433600  1
  C  852  1  0.27417600  0.52872100  0.77604700  1
  C  854  1  0.22790000  0.48786600  0.76725600  1
  C  856  1  0.18131800  0.47800600  0.75954800  1
  C  861  1  0.26837300  0.52994700  0.36998300  1
  C  863  1  0.31401300  0.48914900  0.36139600  1
  C  864  1  0.27418300  0.47301000  0.36963500  1
  C  866  1  0.22787100  0.51386100  0.37836500  1
  C  868  1  0.18129100  0.52373300  0.38606100  1
  C  873  1  0.26836500  0.70373300  0.60192800  1
  C  875  1  0.31401000  0.71233100  0.56113400  1
  C  876  1  0.27420200  0.70406700  0.54499100  1
  C  878  1  0.22790300  0.69529400  0.58584200  1
  C  880  1  0.18130800  0.68760600  0.59569600  1
  C  885  1  0.26838700  0.29801500  0.54375500  1
  C  887  1  0.31401700  0.28941100  0.58455300  1
  C  888  1  0.27419200  0.29765600  0.60069200  1
  C  890  1  0.22789300  0.30640900  0.55984100  1
  C  892  1  0.18132400  0.31412300  0.54996600  1
  C  897  1  0.24754900  0.19106100  0.41448700  1
  C  899  1  0.19502700  0.18908200  0.37554300  1
  C  900  1  0.18462500  0.16159300  0.38110200  1
  C  902  1  0.23658200  0.16338000  0.42050500  1
  C  904  1  0.25412400  0.14826900  0.44308400  1
  C  909  1  0.24763100  0.81069500  0.73122400  1
  C  911  1  0.19515500  0.81267600  0.77018800  1
  C  912  1  0.18475100  0.84016500  0.76463600  1
  C  914  1  0.23668200  0.83838200  0.72522200  1
  C  916  1  0.25425500  0.85349900  0.70265200  1
  C  921  1  0.24757500  0.65924600  0.26306200  1
  C  923  1  0.19503700  0.69818300  0.26107500  1
  C  924  1  0.18466300  0.69262900  0.23358100  1
  C  926  1  0.23663000  0.65323100  0.23537700  1
  C  928  1  0.25419000  0.63065300  0.22026800  1
  C  933  1  0.24766800  0.34249400  0.88268000  1
  C  935  1  0.19517600  0.30353800  0.88466900  1
  C  936  1  0.18478000  0.30909600  0.91215800  1
  C  938  1  0.23673500  0.34849800  0.91036900  1
  C  940  1  0.25432700  0.37106600  0.92548100  1
  C  945  1  0.68616700  0.81066900  0.41448900  1
  C  947  1  0.73868600  0.81265000  0.37554300  1
  C  948  1  0.74909100  0.84013700  0.38110600  1
  C  950  1  0.69713700  0.83834700  0.42050700  1
  C  952  1  0.67959800  0.85345800  0.44309000  1
  C  957  1  0.68607900  0.19103300  0.73122600  1
  C  959  1  0.73855500  0.18905500  0.77019200  1
  C  960  1  0.74896000  0.16156400  0.76464000  1
  C  962  1  0.69702800  0.16334700  0.72522600  1
  C  964  1  0.67946000  0.14823000  0.70265600  1
  C  969  1  0.68614500  0.34248400  0.26306000  1
  C  971  1  0.73868200  0.30354600  0.26107100  1
  C  972  1  0.74905500  0.30910100  0.23357700  1
  C  974  1  0.69708600  0.34850000  0.23537500  1
  C  976  1  0.67952900  0.37107700  0.22026600  1
  C  981  1  0.68605400  0.65923900  0.88268400  1
  C  983  1  0.73855100  0.69819500  0.88467100  1
  C  984  1  0.74894500  0.69263700  0.91216000  1
  C  986  1  0.69698800  0.65323500  0.91037100  1
  C  988  1  0.67939800  0.63066900  0.92548300  1
  C  993  1  0.68553600  0.81055300  0.73183100  1
  C  995  1  0.74545500  0.81091700  0.76742700  1
  C  996  1  0.74980600  0.83937900  0.76521400  1
  C  998  1  0.69056900  0.83928600  0.72907400  1
  C  1000  1  0.66676400  0.85589900  0.70955200  1
  C  1005  1  0.68545600  0.19120600  0.41384800  1
  C  1007  1  0.74530600  0.19081800  0.37821500  1
  C  1008  1  0.74968600  0.16236000  0.38045400  1
  C  1010  1  0.69051100  0.16247600  0.41662700  1
  C  1012  1  0.66666667  0.14587700  0.43615700  1
  C  1017  1  0.68558700  0.34186900  0.88251700  1
  C  1019  1  0.74550600  0.30627100  0.88289400  1
  C  1020  1  0.74985000  0.30848600  0.91135600  1
  C  1022  1  0.69062000  0.34463200  0.91125000  1
  C  1024  1  0.66681100  0.36415800  0.92785900  1
  C  1029  1  0.68549600  0.65985400  0.26316600  1
  C  1031  1  0.74536400  0.69547700  0.26277700  1
  C  1032  1  0.74973300  0.69324000  0.23431800  1
  C  1034  1  0.69053200  0.65708100  0.23443400  1
  C  1036  1  0.66666667  0.63755900  0.21783500  1
  C  1041  1  0.24817500  0.19118100  0.73182900  1
  C  1043  1  0.18825600  0.19081600  0.76742500  1
  C  1044  1  0.18390300  0.16235500  0.76521400  1
  C  1046  1  0.24314100  0.16244800  0.72907200  1
  C  1048  1  0.26694900  0.14583300  0.70955200  1
  C  1053  1  0.24826100  0.81052600  0.41385400  1
  C  1055  1  0.18841100  0.81091700  0.37822100  1
  C  1056  1  0.18403200  0.83937500  0.38046400  1
  C  1058  1  0.24320600  0.83925500  0.41663500  1
  C  1060  1  0.26702800  0.85585400  0.43616600  1
  C  1065  1  0.24813600  0.65986900  0.88252300  1
  C  1067  1  0.18822500  0.69546900  0.88289200  1
  C  1068  1  0.18387800  0.69325800  0.91135400  1
  C  1070  1  0.24310200  0.65711000  0.91125600  1
  C  1072  1  0.26690400  0.63758500  0.92786800  1
  C  1077  1  0.24822400  0.34187300  0.26316600  1
  C  1079  1  0.18835500  0.30625200  0.26277500  1
  C  1080  1  0.18398500  0.30849000  0.23431600  1
  C  1082  1  0.24318500  0.34464800  0.23443400  1
  C  1084  1  0.26702600  0.36417100  0.21783500  1
  C  1089  1  0.18488600  0.12035400  0.23150900  1
  C  1091  1  0.14877400  0.13737000  0.19041900  1
  C  1092  1  0.18019700  0.16007900  0.19082100  1
  C  1094  1  0.21862400  0.14238400  0.23127500  1
  C  1096  1  0.25599900  0.14698700  0.25073800  1
  C  1101  1  0.18514300  0.88142800  0.91422100  1
  C  1103  1  0.14891000  0.86435800  0.95526700  1
  C  1104  1  0.18034600  0.84165200  0.95488000  1
  C  1106  1  0.21879600  0.85936400  0.91443400  1
  C  1108  1  0.25618700  0.85478500  0.89497300  1
  C  1113  1  0.18497900  0.84218900  0.19231800  1
  C  1115  1  0.14885200  0.88327800  0.20935800  1
  C  1116  1  0.18030600  0.88290000  0.23205200  1
  C  1118  1  0.21868100  0.84242100  0.21436400  1
  C  1120  1  0.25603100  0.82294300  0.21897800  1
  C  1125  1  0.18503100  0.15950100  0.95337200  1
  C  1127  1  0.14890100  0.11842800  0.93632500  1
  C  1128  1  0.18032700  0.11885100  0.91361400  1
  C  1130  1  0.21874200  0.15929800  0.93133700  1
  C  1132  1  0.25613100  0.17876300  0.92677400  1
  C  1137  1  0.74883200  0.88137500  0.23151300  1
  C  1139  1  0.78494300  0.86435800  0.19042200  1
  C  1140  1  0.75352300  0.84165000  0.19082400  1
  C  1142  1  0.71509600  0.85934400  0.23127700  1
  C  1144  1  0.67772000  0.85474100  0.25074200  1
  C  1149  1  0.74857300  0.12030600  0.91422500  1
  C  1151  1  0.78482600  0.13738600  0.95526500  1
  C  1152  1  0.75340600  0.16009900  0.95485600  1
  C  1154  1  0.71491700  0.14236700  0.91443800  1
  C  1156  1  0.67751200  0.14693500  0.89498300  1
  C  1161  1  0.74872300  0.15954300  0.19231200  1
  C  1163  1  0.78483400  0.11845400  0.20935800  1
  C  1164  1  0.75336200  0.11882300  0.23204600  1
  C  1166  1  0.71501200  0.15931200  0.21435600  1
  C  1168  1  0.67766900  0.17879400  0.21896700  1
  C  1173  1  0.74868700  0.84223200  0.95337600  1
  C  1175  1  0.78481500  0.88330300  0.93632700  1
  C  1176  1  0.75339100  0.88288100  0.91361600  1
  C  1178  1  0.71497600  0.84243300  0.93133900  1
  C  1180  1  0.67758500  0.82296800  0.92677800  1
  C  1185  1  0.68324900  0.62058300  0.73171500  1
  C  1187  1  0.64733500  0.63756700  0.69055600  1
  C  1188  1  0.67866800  0.66031400  0.69101800  1
  C  1190  1  0.71688000  0.64266500  0.73156000  1
  C  1192  1  0.75413500  0.64730700  0.75108900  1
  C  1197  1  0.68353700  0.38120100  0.41400800  1
  C  1199  1  0.64751400  0.36417500  0.45513000  1
  C  1200  1  0.67885800  0.34142700  0.45468200  1
  C  1202  1  0.71708400  0.35908500  0.41414300  1
  C  1204  1  0.75434700  0.35446300  0.39461600  1
  C  1209  1  0.68336900  0.34197700  0.69254500  1
  C  1211  1  0.64745200  0.38313300  0.70955200  1
  C  1212  1  0.67882900  0.38270600  0.73228300  1
  C  1214  1  0.71696700  0.34212800  0.71464400  1
  C  1216  1  0.75419000  0.32258300  0.71929800  1
  C  1221  1  0.68342000  0.65970400  0.45315500  1
  C  1223  1  0.64749200  0.61856100  0.43614700  1
  C  1224  1  0.67882500  0.61904000  0.41339800  1
  C  1226  1  0.71702500  0.65957900  0.43106800  1
  C  1228  1  0.75429200  0.67910800  0.42646400  1
  C  1233  1  0.25046800  0.38115200  0.73171100  1
  C  1235  1  0.28638200  0.36416700  0.69055400  1
  C  1236  1  0.25505100  0.34141900  0.69101600  1
  C  1238  1  0.21683700  0.35906900  0.73155800  1
  C  1240  1  0.17958100  0.35442900  0.75108500  1
  C  1245  1  0.25018100  0.62052800  0.41400800  1
  C  1247  1  0.28620500  0.63755500  0.45513000  1
  C  1248  1  0.25486400  0.66030000  0.45468200  1
  C  1250  1  0.21663600  0.64264200  0.41414300  1
  C  1252  1  0.17937300  0.64726600  0.39461600  1
  C  1257  1  0.25033200  0.65975500  0.69254700  1
  C  1259  1  0.28625500  0.61860400  0.70957000  1
  C  1260  1  0.25487700  0.61904200  0.73230100  1
  C  1262  1  0.21672400  0.65960600  0.71463900  1
  C  1264  1  0.17949200  0.67914700  0.71928300  1
  C  1269  1  0.25029800  0.34202400  0.45315300  1
  C  1271  1  0.28622700  0.38316800  0.43614500  1
  C  1272  1  0.25489300  0.38268800  0.41339600  1
  C  1274  1  0.21669300  0.34214800  0.43106800  1
  C  1276  1  0.17942600  0.32261900  0.42646200  1
  C  1281  1  0.01885000  0.12799600  0.36150000  1
  C  1283  1  0.94570600  0.15468300  0.35962400  1
  C  1284  1  0.91702500  0.13087300  0.35994400  1
  C  1286  1  0.99030000  0.10384500  0.36304300  1
  C  1288  1  0.00853800  0.07689600  0.36535600  1
  C  1293  1  0.01895900  0.87380300  0.78406300  1
  C  1295  1  0.94580900  0.84709600  0.78597900  1
  C  1296  1  0.91712700  0.87090600  0.78573900  1
  C  1298  1  0.99037700  0.89794500  0.78260500  1
  C  1300  1  0.00861500  0.92489500  0.78030500  1
  C  1305  1  0.01887600  0.71216400  0.19996000  1
  C  1307  1  0.94575000  0.71408400  0.22664900  1
  C  1308  1  0.91707200  0.71374600  0.20283700  1
  C  1310  1  0.99033700  0.71060600  0.17580800  1
  C  1312  1  0.00857900  0.70826700  0.14886300  1
  C  1317  1  0.01898300  0.28970600  0.94581200  1
  C  1319  1  0.94585600  0.28775200  0.91909700  1
  C  1320  1  0.91717500  0.28799200  0.94290500  1
  C  1322  1  0.99040200  0.29116400  0.96995200  1
  C  1324  1  0.00863900  0.29347700  0.99690200  1
  C  1329  1  0.91486600  0.87373800  0.36150800  1
  C  1331  1  0.98801000  0.84705300  0.35963500  1
  C  1332  1  0.01669300  0.87086300  0.35995600  1
  C  1334  1  0.94341200  0.89789000  0.36305100  1
  C  1336  1  0.92517300  0.92483800  0.36536400  1
  C  1341  1  0.91475300  0.12792900  0.78406700  1
  C  1343  1  0.98790000  0.15463600  0.78598100  1
  C  1344  1  0.01658300  0.13082600  0.78574100  1
  C  1346  1  0.94333200  0.10378700  0.78260900  1
  C  1348  1  0.92509600  0.07683700  0.78030900  1
  C  1353  1  0.91484000  0.28956600  0.19995600  1
  C  1355  1  0.98796600  0.28764600  0.22664500  1
  C  1356  1  0.01664600  0.28798400  0.20283500  1
  C  1358  1  0.94338000  0.29112300  0.17580500  1
  C  1360  1  0.92514000  0.29346400  0.14885900  1
  C  1365  1  0.91474600  0.71203300  0.94580800  1
  C  1367  1  0.98786800  0.71399600  0.91909100  1
  C  1368  1  0.01655200  0.71375600  0.94289900  1
  C  1370  1  0.94332500  0.71057800  0.96994800  1
  C  1372  1  0.92509300  0.70826300  0.99689800  1
  C  1377  1  0.51860500  0.62734600  0.86261400  1
  C  1379  1  0.44531900  0.65389900  0.86091000  1
  C  1380  1  0.41681600  0.63002200  0.86119000  1
  C  1382  1  0.49024100  0.60313500  0.86420400  1
  C  1384  1  0.50872500  0.57623000  0.86643900  1
  C  1389  1  0.51868900  0.37441600  0.28299400  1
  C  1391  1  0.44539200  0.34784900  0.28475300  1
  C  1392  1  0.41689700  0.37172800  0.28453500  1
  C  1394  1  0.49029600  0.39861900  0.28146500  1
  C  1396  1  0.50878700  0.42552200  0.27921100  1
  C  1401  1  0.51862700  0.21105600  0.69930700  1
  C  1403  1  0.44536300  0.21279900  0.72586400  1
  C  1404  1  0.41686000  0.21250700  0.70198800  1
  C  1406  1  0.49027000  0.20945800  0.67509500  1
  C  1408  1  0.50875400  0.20720000  0.64819200  1
  C  1413  1  0.51870400  0.79076500  0.44642700  1
  C  1415  1  0.44543200  0.78896500  0.41985200  1
  C  1416  1  0.41693300  0.78917900  0.44372900  1
  C  1418  1  0.49031000  0.79228600  0.47063000  1
  C  1420  1  0.50880100  0.79454800  0.49753100  1
  C  1425  1  0.41511700  0.37438500  0.86260700  1
  C  1427  1  0.48840300  0.34783200  0.86090300  1
  C  1428  1  0.51690500  0.37170800  0.86118200  1
  C  1430  1  0.44348400  0.39859600  0.86419600  1
  C  1432  1  0.42500100  0.42550100  0.86643300  1
  C  1437  1  0.41502900  0.62731200  0.28299400  1
  C  1439  1  0.48832600  0.65388100  0.28475500  1
  C  1440  1  0.51682200  0.63000100  0.28453500  1
  C  1442  1  0.44342600  0.60311100  0.28146500  1
  C  1444  1  0.42493100  0.57620800  0.27921100  1
  C  1449  1  0.41508400  0.79067400  0.69930500  1
  C  1451  1  0.48835200  0.78893300  0.72586400  1
  C  1452  1  0.51685100  0.78922200  0.70198600  1
  C  1454  1  0.44344400  0.79227200  0.67509500  1
  C  1456  1  0.42496000  0.79452800  0.64819000  1
  C  1461  1  0.41501500  0.21096400  0.44642500  1
  C  1463  1  0.48828600  0.21276400  0.41984800  1
  C  1464  1  0.51678500  0.21255000  0.44372500  1
  C  1466  1  0.44340800  0.20944300  0.47062600  1
  C  1468  1  0.42492000  0.20718100  0.49752900  1
  N  706  1  0.12564700  0.01661200  0.28392600  1
  N  709  1  0.20173000  0.98624200  0.26804800  1
  N  714  1  0.27648900  0.04489700  0.27169800  1
  N  718  1  0.12556900  0.98512200  0.86182400  1
  N  721  1  0.20172000  0.01549600  0.87759800  1
  N  726  1  0.27644000  0.95680400  0.87394000  1
  N  730  1  0.12558300  0.78980800  0.08859300  1
  N  733  1  0.20168300  0.80565000  0.05821600  1
  N  738  1  0.27645600  0.80196700  0.11686200  1
  N  742  1  0.12557500  0.21188400  0.05709400  1
  N  745  1  0.20171600  0.19608600  0.08746400  1
  N  750  1  0.27642900  0.19972100  0.02876900  1
  N  754  1  0.80807000  0.98511800  0.28392600  1
  N  757  1  0.73198200  0.01548500  0.26805000  1
  N  762  1  0.65723000  0.95682900  0.27170600  1
  N  766  1  0.80815000  0.01661000  0.86183000  1
  N  769  1  0.73199700  0.98623600  0.87760400  1
  N  774  1  0.65727800  0.04492700  0.87394800  1
  N  778  1  0.80814300  0.21191900  0.08858900  1
  N  781  1  0.73204400  0.19608100  0.05820800  1
  N  786  1  0.65726700  0.19976500  0.11685100  1
  N  790  1  0.80814300  0.78984700  0.05709600  1
  N  793  1  0.73200100  0.80564400  0.08746600  1
  N  798  1  0.65728900  0.80201000  0.02877100  1
  N  802  1  0.62428500  0.51661000  0.78375100  1
  N  805  1  0.70046700  0.48630500  0.76787900  1
  N  810  1  0.77507700  0.54500300  0.77160500  1
  N  814  1  0.62423400  0.48512200  0.36198800  1
  N  817  1  0.70048600  0.51543100  0.37776100  1
  N  822  1  0.77505200  0.45669600  0.37401800  1
  N  826  1  0.62425300  0.28997700  0.58858800  1
  N  829  1  0.70045300  0.30581500  0.55827700  1
  N  834  1  0.77507000  0.30205600  0.61696700  1
  N  838  1  0.62422700  0.71172200  0.55709600  1
  N  841  1  0.70046700  0.69593300  0.58740500  1
  N  846  1  0.77503400  0.69964100  0.52866900  1
  N  850  1  0.30943800  0.48512400  0.78374700  1
  N  853  1  0.23325500  0.51543100  0.76787900  1
  N  858  1  0.15864600  0.45673500  0.77160500  1
  N  862  1  0.30948500  0.51660600  0.36198800  1
  N  865  1  0.23323300  0.48629700  0.37776100  1
  N  870  1  0.15866600  0.54503300  0.37401800  1
  N  874  1  0.30946700  0.71174600  0.58859000  1
  N  877  1  0.23326600  0.69591300  0.55827700  1
  N  882  1  0.15864500  0.69967500  0.61696500  1
  N  886  1  0.30949000  0.29000700  0.55709600  1
  N  889  1  0.23325200  0.30579800  0.58740500  1
  N  894  1  0.15868400  0.30208900  0.52866900  1
  N  898  1  0.22612500  0.20253700  0.39226700  1
  N  901  1  0.20574600  0.15013300  0.40329100  1
  N  906  1  0.26143800  0.15873600  0.46822300  1
  N  910  1  0.22623500  0.79922100  0.75345500  1
  N  913  1  0.20586300  0.85162800  0.74244400  1
  N  918  1  0.26159600  0.84304000  0.67751000  1
  N  922  1  0.22613100  0.68146000  0.27453400  1
  N  925  1  0.20579800  0.67044100  0.22212500  1
  N  930  1  0.26150100  0.60551500  0.23073300  1
  N  934  1  0.22625800  0.32026800  0.87120900  1
  N  937  1  0.20590900  0.33128200  0.92361900  1
  N  942  1  0.26168000  0.39620600  0.91502100  1
  N  946  1  0.70759000  0.79919400  0.39226700  1
  N  949  1  0.72797400  0.85159500  0.40329500  1
  N  954  1  0.67228600  0.84298900  0.46822800  1
  N  958  1  0.70747700  0.20250900  0.75345700  1
  N  961  1  0.72785000  0.15010200  0.74245000  1
  N  966  1  0.67211800  0.15868700  0.67751400  1
  N  970  1  0.70758700  0.32026800  0.27453200  1
  N  973  1  0.72792000  0.33128800  0.22212300  1
  N  978  1  0.67221600  0.39621600  0.23073300  1
  N  982  1  0.70746600  0.68146600  0.87121100  1
  N  985  1  0.72781700  0.67045100  0.92362100  1
  N  990  1  0.67204100  0.60552700  0.91502500  1
  N  994  1  0.71337100  0.79786100  0.75097500  1
  N  997  1  0.72227700  0.85210800  0.74611900  1
  N  1002  1  0.65741600  0.84814000  0.68365200  1
  N  1006  1  0.71323200  0.20388300  0.39466500  1
  N  1009  1  0.72219300  0.14964200  0.39957400  1
  N  1014  1  0.65730700  0.15365700  0.46204600  1
  N  1018  1  0.71342600  0.32272100  0.86983300  1
  N  1021  1  0.72232500  0.32758900  0.92407900  1
  N  1026  1  0.65746700  0.39005600  0.92009400  1
  N  1030  1  0.71328700  0.67902900  0.27584300  1
  N  1033  1  0.72221900  0.67412800  0.22160000  1
  N  1038  1  0.65729200  0.61167000  0.22561300  1
  N  1042  1  0.22033900  0.20387300  0.75097300  1
  N  1045  1  0.21143200  0.14962600  0.74611700  1
  N  1050  1  0.27629700  0.15359200  0.68365200  1
  N  1054  1  0.22048400  0.79785000  0.39467300  1
  N  1057  1  0.21152600  0.85209000  0.39958400  1
  N  1062  1  0.27641300  0.84807100  0.46205700  1
  N  1066  1  0.22030200  0.67901700  0.86983300  1
  N  1069  1  0.21140000  0.67415700  0.92408100  1
  N  1074  1  0.27624700  0.61168600  0.92010700  1
  N  1078  1  0.22043200  0.32269900  0.27584100  1
  N  1081  1  0.21149800  0.32760100  0.22160000  1
  N  1086  1  0.27642800  0.39006000  0.22561300  1
  N  1090  1  0.15138100  0.11912500  0.21109800  1
  N  1093  1  0.21327600  0.16138300  0.21136500  1
  N  1098  1  0.28082900  0.12685900  0.26343200  1
  N  1102  1  0.15151600  0.88259200  0.93457600  1
  N  1105  1  0.21343000  0.84036300  0.93433800  1
  N  1110  1  0.28091100  0.87492100  0.88222400  1
  N  1114  1  0.15145800  0.86259700  0.19111500  1
  N  1117  1  0.21335200  0.86233700  0.23335700  1
  N  1122  1  0.28083700  0.81022300  0.19885700  1
  N  1126  1  0.15145700  0.13912300  0.95456100  1
  N  1129  1  0.21340900  0.13939500  0.91233100  1
  N  1134  1  0.28084800  0.19149700  0.94692400  1
  N  1138  1  0.78233900  0.88260400  0.21110300  1
  N  1141  1  0.72044300  0.84034400  0.21136900  1
  N  1146  1  0.65289000  0.87487000  0.26343600  1
  N  1150  1  0.78221100  0.11914500  0.93457800  1
  N  1153  1  0.72029300  0.16138100  0.93433000  1
  N  1158  1  0.65278800  0.12679000  0.88224600  1
  N  1162  1  0.78224000  0.13913600  0.19111500  1
  N  1165  1  0.72033000  0.13939400  0.23334500  1
  N  1170  1  0.65287200  0.19152000  0.19884700  1
  N  1174  1  0.78226200  0.86261000  0.95456300  1
  N  1177  1  0.72030800  0.86233700  0.91233300  1
  N  1182  1  0.65286800  0.81023500  0.94692600  1
  N  1186  1  0.64989600  0.61931300  0.71123100  1
  N  1189  1  0.71160600  0.66165400  0.71163200  1
  N  1194  1  0.77900900  0.62720800  0.76380300  1
  N  1198  1  0.65006700  0.38241300  0.43444100  1
  N  1201  1  0.71179200  0.34009800  0.43406700  1
  N  1206  1  0.77911500  0.37456600  0.38184100  1
  N  1210  1  0.64999800  0.36245600  0.69130300  1
  N  1213  1  0.71171500  0.36206500  0.73362000  1
  N  1218  1  0.77903500  0.30983500  0.69920900  1
  N  1222  1  0.64999800  0.63925300  0.45438700  1
  N  1225  1  0.71176600  0.63965400  0.41207600  1
  N  1230  1  0.77904900  0.69186700  0.44657900  1
  N  1234  1  0.28382400  0.38242100  0.71122900  1
  N  1237  1  0.22211300  0.34008100  0.71163000  1
  N  1242  1  0.15470900  0.37452700  0.76379900  1
  N  1246  1  0.28365200  0.61931700  0.43444100  1
  N  1249  1  0.22192700  0.66163000  0.43406700  1
  N  1254  1  0.15460600  0.62716100  0.38184100  1
  N  1258  1  0.28370800  0.63927700  0.69131600  1
  N  1261  1  0.22197500  0.63967600  0.73362700  1
  N  1266  1  0.15465500  0.69188800  0.69918700  1
  N  1270  1  0.28372200  0.36247700  0.45438500  1
  N  1273  1  0.22195400  0.36207400  0.41207600  1
  N  1278  1  0.15466700  0.30986000  0.44657900  1
  N  1282  1  0.99493900  0.15220700  0.35967500  1
  N  1285  1  0.94106000  0.10673300  0.36154200  1
  N  1290  1  0.04948100  0.07021400  0.37919200  1
  N  1294  1  0.99503800  0.84959400  0.78593400  1
  N  1297  1  0.94113600  0.89505200  0.78413400  1
  N  1302  1  0.04960600  0.93158500  0.76651300  1
  N  1306  1  0.99498300  0.71402300  0.22417300  1
  N  1309  1  0.94109600  0.71211700  0.17869500  1
  N  1314  1  0.04953100  0.69443100  0.14219800  1
  N  1318  1  0.99508900  0.28781100  0.92159700  1
  N  1321  1  0.94116600  0.28961900  0.96705500  1
  N  1326  1  0.04963700  0.30726200  0.00358800  1
  N  1330  1  0.93877700  0.84952700  0.35968500  1
  N  1333  1  0.99265600  0.89500300  0.36155200  1
  N  1338  1  0.88423000  0.93152000  0.37919600  1
  N  1342  1  0.93867100  0.15213900  0.78593800  1
  N  1345  1  0.99257200  0.10668000  0.78413800  1
  N  1350  1  0.88410600  0.07014600  0.76651900  1
  N  1354  1  0.93873300  0.28770700  0.22417100  1
  N  1357  1  0.99262400  0.28961200  0.17869200  1
  N  1362  1  0.88419000  0.30730100  0.14219400  1
  N  1366  1  0.93863500  0.71393300  0.92159300  1
  N  1369  1  0.99256200  0.71212500  0.96704900  1
  N  1374  1  0.88409800  0.69447300  0.00358400  1
  N  1378  1  0.49457800  0.65152700  0.86086900  1
  N  1381  1  0.44098200  0.60592000  0.86273600  1
  N  1386  1  0.54982100  0.56964200  0.88018200  1
  N  1390  1  0.49465000  0.35024100  0.28479700  1
  N  1393  1  0.44104100  0.39583200  0.28296300  1
  N  1398  1  0.54992300  0.43210200  0.26550100  1
  N  1402  1  0.49462100  0.21282700  0.72349000  1
  N  1405  1  0.44101200  0.21093600  0.67788300  1
  N  1410  1  0.54985800  0.19345800  0.64161400  1
  N  1414  1  0.49468700  0.78893700  0.42224600  1
  N  1417  1  0.44105900  0.79077100  0.46783700  1
  N  1422  1  0.54994200  0.80825400  0.50410900  1
  N  1426  1  0.43914400  0.35020400  0.86086300  1
  N  1429  1  0.49274300  0.39580900  0.86272800  1
  N  1434  1  0.38390400  0.43209000  0.88017600  1
  N  1438  1  0.43907100  0.65148900  0.28480000  1
  N  1441  1  0.49268100  0.60589600  0.28296300  1
  N  1446  1  0.38379500  0.56962800  0.26550100  1
  N  1450  1  0.43909300  0.78890200  0.72349000  1
  N  1453  1  0.49270300  0.79079400  0.67788300  1
  N  1458  1  0.38385700  0.80826800  0.64161200  1
  N  1462  1  0.43902800  0.21279200  0.42224400  1
  N  1465  1  0.49265900  0.21095800  0.46783500  1
  N  1470  1  0.38377700  0.19347400  0.50410700  1
  O  8  1  0.08495700  0.15921600  0.39361400  1
  O  15  1  0.18461100  0.06254500  0.22868900  1
  O  17  1  0.21843000  0.13249300  0.33563900  1
  O  18  1  0.14424600  0.05761300  0.32447200  1
  O  30  1  0.08513900  0.84258600  0.75201900  1
  O  37  1  0.18470600  0.93922200  0.91701800  1
  O  39  1  0.21843000  0.86920600  0.81017200  1
  O  40  1  0.14411100  0.94410000  0.82126400  1
  O  52  1  0.08501000  0.68008100  0.23119900  1
  O  59  1  0.18463600  0.84501500  0.13451500  1
  O  61  1  0.21841700  0.73811200  0.20449200  1
  O  62  1  0.14418600  0.74924400  0.12958800  1
  O  74  1  0.08518100  0.32173600  0.91459300  1
  O  81  1  0.18464200  0.15668400  0.01117000  1
  O  83  1  0.21843200  0.26354200  0.94118300  1
  O  84  1  0.14415500  0.25244800  0.01609400  1
  O  96  1  0.84875700  0.84251700  0.39362100  1
  O  103  1  0.74910600  0.93918300  0.22869100  1
  O  105  1  0.71528900  0.86923400  0.33563900  1
  O  106  1  0.78947300  0.94411800  0.32447400  1
  O  118  1  0.84857100  0.15914400  0.75202300  1
  O  125  1  0.74901500  0.06251100  0.91702400  1
  O  127  1  0.71528200  0.13252400  0.81017800  1
  O  128  1  0.78960400  0.05763200  0.82127000  1
  O  140  1  0.84870600  0.32164600  0.23119700  1
  O  147  1  0.74907700  0.15671500  0.13451100  1
  O  149  1  0.71530000  0.26361800  0.20448800  1
  O  150  1  0.78954200  0.25248500  0.12958200  1
  O  162  1  0.84855000  0.68000200  0.91459100  1
  O  169  1  0.74907300  0.84504800  0.01117300  1
  O  171  1  0.71528900  0.73818700  0.94118700  1
  O  172  1  0.78956800  0.74928300  0.01609500  1
  O  184  1  0.85041700  0.83961400  0.75374200  1
  O  191  1  0.75207500  0.94090000  0.91598600  1
  O  193  1  0.71638400  0.87102600  0.80899100  1
  O  194  1  0.79419900  0.94498000  0.82037400  1
  O  206  1  0.85028900  0.16214800  0.39192500  1
  O  213  1  0.75204200  0.06081700  0.22970100  1
  O  215  1  0.71628500  0.13070100  0.33667100  1
  O  216  1  0.79408600  0.05676300  0.32532500  1
  O  228  1  0.85046800  0.31997400  0.91160200  1
  O  235  1  0.75210400  0.15772600  0.01287300  1
  O  237  1  0.71644600  0.26468900  0.94298400  1
  O  238  1  0.79421800  0.25333800  0.01695800  1
  O  250  1  0.85034000  0.68176700  0.23411500  1
  O  257  1  0.75214400  0.84401700  0.13281100  1
  O  259  1  0.71634000  0.73702700  0.20266400  1
  O  260  1  0.79411600  0.74838700  0.12871000  1
  O  272  1  0.08329100  0.16212000  0.75374200  1
  O  279  1  0.18164600  0.06083100  0.91598200  1
  O  281  1  0.21733100  0.13070700  0.80898700  1
  O  282  1  0.13951700  0.05675400  0.82037200  1
  O  294  1  0.08342700  0.83958700  0.39193700  1
  O  301  1  0.18164700  0.94090800  0.22970100  1
  O  303  1  0.21743100  0.87103200  0.33667900  1
  O  304  1  0.13964600  0.94497100  0.32533300  1
  O  316  1  0.08326000  0.68177300  0.91159800  1
  O  323  1  0.18163500  0.84400900  0.01289100  1
  O  325  1  0.21728000  0.73705700  0.94298200  1
  O  326  1  0.13950400  0.74839900  0.01695200  1
  O  338  1  0.08337800  0.31996200  0.23411500  1
  O  345  1  0.18157200  0.15771200  0.13280800  1
  O  347  1  0.21737700  0.26470300  0.20266300  1
  O  348  1  0.13960300  0.25334400  0.12870800  1
  O  360  1  0.58555200  0.65819900  0.89484000  1
  O  367  1  0.68310700  0.56277900  0.72865900  1
  O  369  1  0.71782400  0.63120700  0.83602200  1
  O  370  1  0.64311900  0.55741200  0.82446200  1
  O  382  1  0.58567600  0.34354000  0.25084200  1
  O  389  1  0.68323400  0.43898900  0.41703600  1
  O  391  1  0.71782800  0.37049000  0.30976400  1
  O  392  1  0.64299200  0.44429300  0.32126300  1
  O  404  1  0.58558900  0.17885400  0.73017800  1
  O  411  1  0.68316200  0.34503700  0.63474900  1
  O  413  1  0.71781700  0.23771000  0.70320400  1
  O  414  1  0.64307600  0.24924600  0.62938400  1
  O  426  1  0.58571300  0.82290700  0.41555400  1
  O  433  1  0.68316200  0.65666200  0.51094800  1
  O  435  1  0.71782400  0.76394600  0.44247700  1
  O  436  1  0.64302800  0.75244900  0.51628800  1
  O  448  1  0.34816900  0.34353400  0.89483600  1
  O  455  1  0.25061100  0.43895700  0.72865500  1
  O  457  1  0.21589600  0.37052900  0.83602000  1
  O  458  1  0.29060400  0.44432200  0.82446000  1
  O  470  1  0.34804000  0.65818900  0.25084400  1
  O  477  1  0.25048500  0.56273800  0.41703600  1
  O  479  1  0.21589200  0.63123700  0.30976600  1
  O  480  1  0.29072700  0.55743400  0.32126300  1
  O  492  1  0.34812200  0.82287600  0.73017600  1
  O  499  1  0.25054700  0.65669000  0.63475100  1
  O  501  1  0.21589400  0.76401700  0.70320200  1
  O  502  1  0.29064500  0.75247900  0.62938400  1
  O  514  1  0.34800700  0.17882200  0.41555200  1
  O  521  1  0.25055600  0.34506500  0.51094600  1
  O  523  1  0.21589400  0.23778200  0.44247700  1
  O  524  1  0.29069100  0.24928100  0.51628800  1
  O  536  1  0.35033600  0.34051500  0.25283500  1
  O  543  1  0.25356300  0.44071000  0.41605000  1
  O  545  1  0.21648400  0.37267500  0.30837600  1
  O  546  1  0.29474200  0.44529500  0.32035100  1
  O  558  1  0.35023400  0.66122500  0.89286800  1
  O  565  1  0.25355100  0.56103000  0.72964200  1
  O  567  1  0.21641900  0.62905500  0.83730500  1
  O  568  1  0.29466700  0.55643300  0.82535400  1
  O  580  1  0.35037000  0.82086900  0.41250800  1
  O  587  1  0.25355900  0.65765300  0.51269500  1
  O  589  1  0.21653700  0.76529200  0.44463100  1
  O  590  1  0.29475400  0.75335100  0.51727300  1
  O  602  1  0.35027500  0.18083600  0.73319300  1
  O  609  1  0.25365500  0.34407400  0.63300200  1
  O  611  1  0.21647200  0.23640900  0.70102300  1
  O  612  1  0.29467600  0.24835400  0.62838900  1
  O  624  1  0.58338200  0.66121400  0.25283700  1
  O  631  1  0.68015600  0.56101800  0.41605000  1
  O  633  1  0.71723300  0.62905500  0.30837800  1
  O  634  1  0.63897600  0.55643300  0.32035100  1
  O  646  1  0.58348800  0.34050900  0.89286200  1
  O  653  1  0.68016000  0.44071400  0.72963600  1
  O  655  1  0.71730300  0.37267900  0.83729500  1
  O  656  1  0.63906400  0.44529700  0.82535200  1
  O  668  1  0.58334600  0.18086200  0.41250200  1
  O  675  1  0.68016000  0.34407400  0.51269500  1
  O  677  1  0.71718200  0.23643800  0.44462700  1
  O  678  1  0.63896500  0.24837700  0.51727100  1
  O  690  1  0.58343700  0.82089500  0.73319300  1
  O  697  1  0.68006500  0.65765800  0.63300400  1
  O  699  1  0.71724400  0.76532400  0.70102300  1
  O  700  1  0.63904200  0.75337700  0.62838900  1
  O  713  1  0.27947500  0.00917400  0.24110800  1
  O  725  1  0.27960800  0.99260600  0.90441300  1
  O  737  1  0.27947100  0.83255500  0.08113800  1
  O  749  1  0.27956900  0.16924200  0.06456800  1
  O  761  1  0.65423600  0.99255100  0.24111400  1
  O  773  1  0.65411200  0.00912400  0.90442200  1
  O  785  1  0.65425400  0.16917600  0.08112800  1
  O  797  1  0.65414800  0.83248800  0.06457100  1
  O  809  1  0.77815600  0.50933500  0.74095400  1
  O  821  1  0.77832000  0.49244100  0.40455800  1
  O  833  1  0.77818100  0.33270900  0.58130000  1
  O  845  1  0.77826500  0.66910200  0.56441600  1
  O  857  1  0.15556400  0.49240200  0.74095400  1
  O  869  1  0.15539900  0.50928600  0.40455800  1
  O  881  1  0.15553400  0.66902200  0.58130000  1
  O  893  1  0.15545200  0.33262800  0.56441400  1
  O  905  1  0.25985800  0.12105300  0.44011300  1
  O  917  1  0.25988100  0.88072300  0.70560400  1
  O  929  1  0.25994400  0.63362700  0.19305300  1
  O  941  1  0.25996100  0.36811600  0.95270600  1
  O  953  1  0.67386500  0.88067400  0.44012100  1
  O  965  1  0.67383200  0.12100500  0.70560800  1
  O  977  1  0.67377400  0.36810200  0.19305200  1
  O  989  1  0.67376300  0.63361900  0.95271000  1
  O  1001  1  0.65702600  0.88208300  0.71623400  1
  O  1013  1  0.65709500  0.11966100  0.42953700  1
  O  1025  1  0.65707300  0.35748500  0.95404600  1
  O  1037  1  0.65709200  0.64418400  0.19162200  1
  O  1049  1  0.27668600  0.11965000  0.71623200  1
  O  1061  1  0.27662500  0.88206900  0.42954900  1
  O  1073  1  0.27664300  0.64426100  0.95405400  1
  O  1085  1  0.27662800  0.35754400  0.19162100  1
  O  1097  1  0.27115600  0.17285100  0.25513800  1
  O  1109  1  0.27154100  0.82894300  0.89065500  1
  O  1121  1  0.27118000  0.81855200  0.24484400  1
  O  1133  1  0.27150200  0.18309600  0.90093800  1
  O  1145  1  0.66256600  0.82887800  0.25514200  1
  O  1157  1  0.66214700  0.17277200  0.89065700  1
  O  1169  1  0.66251500  0.18318500  0.24483400  1
  O  1181  1  0.66221600  0.81863500  0.90094000  1
  O  1193  1  0.76912500  0.67319200  0.75554100  1
  O  1205  1  0.76952600  0.32859900  0.39024300  1
  O  1217  1  0.76916900  0.31813800  0.74518700  1
  O  1229  1  0.76949400  0.68349400  0.40060400  1
  O  1241  1  0.16459200  0.32854400  0.75553900  1
  O  1253  1  0.16419400  0.67313100  0.39024300  1
  O  1265  1  0.16449700  0.68359700  0.74516800  1
  O  1277  1  0.16422600  0.31823600  0.40060400  1
  O  1289  1  0.98123000  0.05617800  0.35544100  1
  O  1301  1  0.98123300  0.94562300  0.79013600  1
  O  1313  1  0.98127000  0.71815500  0.12813300  1
  O  1325  1  0.98125500  0.28365700  0.01763500  1
  O  1337  1  0.95248300  0.94555800  0.35544900  1
  O  1349  1  0.95247600  0.05610900  0.79014200  1
  O  1361  1  0.95245000  0.28357600  0.12812900  1
  O  1373  1  0.95247600  0.71808400  0.01763100  1
  O  1385  1  0.48153900  0.55545300  0.85654600  1
  O  1397  1  0.48153900  0.44631900  0.28901000  1
  O  1409  1  0.48156400  0.21707400  0.62740800  1
  O  1421  1  0.48154600  0.78475900  0.51833200  1
  O  1433  1  0.45218700  0.44627800  0.85653800  1
  O  1445  1  0.45217900  0.55540900  0.28900800  1
  O  1457  1  0.45215000  0.78465100  0.62740800  1
  O  1469  1  0.45217200  0.21696800  0.51833000  1
