# generated using pymatgen
data_H11C18O
_symmetry_space_group_name_H-M   'P 1'
_cell_length_a   55.84390000
_cell_length_b   63.69740000
_cell_length_c   63.75620000
_cell_angle_alpha   90.00000000
_cell_angle_beta   90.00000000
_cell_angle_gamma   90.00000000
_symmetry_Int_Tables_number   1
_chemical_formula_structural   H11C18O
_chemical_formula_sum   'H1408 C2304 O128'
_cell_volume   226787.89537574
_cell_formula_units_Z   128
loop_
 _symmetry_equiv_pos_site_id
 _symmetry_equiv_pos_as_xyz
  1  'x, y, z'
loop_
 _atom_site_type_symbol
 _atom_site_label
 _atom_site_symmetry_multiplicity
 _atom_site_fract_x
 _atom_site_fract_y
 _atom_site_fract_z
 _atom_site_occupancy
  H  7  1  0.04934000  0.13265600  0.63649800  1
  H  8  1  0.05879500  0.06850500  0.64757200  1
  H  15  1  0.98547600  0.18182500  0.59267200  1
  H  16  1  0.00076400  0.11747800  0.59430000  1
  H  19  1  0.97568400  0.09226200  0.63731700  1
  H  20  1  0.02693300  0.16248200  0.65392400  1
  H  27  1  0.54938500  0.86283400  0.89046100  1
  H  28  1  0.55883300  0.92698600  0.87941300  1
  H  35  1  0.48552200  0.81366300  0.93433300  1
  H  36  1  0.50085200  0.87802100  0.93271400  1
  H  39  1  0.47571000  0.90320600  0.88976700  1
  H  40  1  0.52695100  0.83301300  0.87304500  1
  H  47  1  0.79952500  0.87086300  0.62863900  1
  H  48  1  0.80889800  0.88157300  0.69280600  1
  H  55  1  0.73564500  0.82772100  0.57908700  1
  H  56  1  0.75058900  0.82890300  0.64344500  1
  H  59  1  0.72574600  0.87199000  0.66878700  1
  H  60  1  0.77737600  0.88870200  0.59895200  1
  H  67  1  0.29951900  0.12458700  0.89831500  1
  H  68  1  0.30888800  0.11390700  0.83414800  1
  H  75  1  0.23576700  0.16785700  0.94785300  1
  H  76  1  0.25058800  0.16657000  0.88346000  1
  H  79  1  0.22571700  0.12354400  0.85820000  1
  H  80  1  0.27737000  0.10678100  0.92802200  1
  H  87  1  0.49084500  0.13241600  0.89081300  1
  H  88  1  0.47947800  0.06815100  0.88229800  1
  H  95  1  0.55470900  0.18138800  0.93488500  1
  H  96  1  0.53863800  0.11724600  0.93409800  1
  H  99  1  0.55189100  0.08233200  0.91776400  1
  H  100  1  0.51359600  0.16172800  0.87359200  1
  H  107  1  0.99082800  0.86310100  0.63615200  1
  H  108  1  0.97953100  0.92737200  0.64470800  1
  H  115  1  0.05473000  0.81410100  0.59209300  1
  H  116  1  0.03856200  0.87824700  0.59283500  1
  H  119  1  0.05188600  0.91314400  0.60917500  1
  H  120  1  0.01360700  0.83379800  0.65340200  1
  H  127  1  0.74069200  0.87091200  0.89777000  1
  H  128  1  0.72948900  0.87906500  0.83349200  1
  H  135  1  0.80448000  0.82745600  0.94716100  1
  H  136  1  0.78873300  0.82778100  0.88301200  1
  H  139  1  0.80210400  0.84403000  0.84806500  1
  H  140  1  0.76324600  0.88854400  0.92693900  1
  H  147  1  0.24068200  0.12449600  0.62915600  1
  H  148  1  0.22945300  0.11633400  0.69342300  1
  H  155  1  0.30427500  0.16813700  0.57979900  1
  H  156  1  0.28874300  0.16765300  0.64400200  1
  H  159  1  0.30203500  0.15141200  0.67892100  1
  H  160  1  0.26322400  0.10691900  0.59996100  1
  H  167  1  0.99036100  0.86272100  0.38792200  1
  H  168  1  0.98039900  0.92649300  0.37515700  1
  H  175  1  0.05389600  0.81654700  0.43542300  1
  H  176  1  0.03872300  0.88058300  0.42944200  1
  H  179  1  0.06382900  0.90320100  0.38569600  1
  H  180  1  0.01285300  0.83185000  0.37276100  1
  H  187  1  0.49030800  0.13274900  0.13907200  1
  H  188  1  0.48033600  0.06898600  0.15184100  1
  H  195  1  0.55381400  0.17886900  0.09145700  1
  H  196  1  0.53867500  0.11481700  0.09752500  1
  H  199  1  0.56378600  0.09228600  0.14120200  1
  H  200  1  0.51281000  0.16364300  0.15417000  1
  H  207  1  0.24097000  0.12399300  0.39853700  1
  H  208  1  0.23120900  0.11327700  0.33439900  1
  H  215  1  0.30557200  0.16778700  0.44721300  1
  H  216  1  0.28815600  0.16661100  0.38340000  1
  H  219  1  0.31445900  0.12353000  0.35792900  1
  H  220  1  0.26454700  0.10530400  0.42566900  1
  H  227  1  0.74098900  0.87147700  0.12839900  1
  H  228  1  0.73124200  0.88216300  0.19254200  1
  H  235  1  0.80549200  0.82758000  0.07973100  1
  H  236  1  0.78817200  0.82884200  0.14357500  1
  H  239  1  0.81451000  0.87187100  0.16895800  1
  H  240  1  0.76458900  0.89015000  0.10124500  1
  H  247  1  0.54862800  0.86290300  0.13873800  1
  H  248  1  0.56071000  0.92683700  0.14877600  1
  H  255  1  0.48531900  0.81676800  0.09121800  1
  H  256  1  0.50128500  0.88067900  0.09608000  1
  H  259  1  0.48782300  0.91436900  0.11371300  1
  H  260  1  0.52566900  0.83273700  0.15400700  1
  H  267  1  0.04864500  0.13252400  0.38822100  1
  H  268  1  0.06063400  0.06858500  0.37812800  1
  H  275  1  0.98542700  0.17868000  0.43582900  1
  H  276  1  0.00131700  0.11474200  0.43091000  1
  H  279  1  0.98781100  0.08109100  0.41326500  1
  H  280  1  0.02569000  0.16272000  0.37297700  1
  H  287  1  0.29815800  0.12376900  0.12909800  1
  H  288  1  0.30960100  0.11573600  0.19337800  1
  H  295  1  0.23411900  0.16805000  0.08036300  1
  H  296  1  0.25169700  0.16758900  0.14407600  1
  H  299  1  0.23740300  0.15139300  0.17889400  1
  H  300  1  0.27438700  0.10547300  0.10218000  1
  H  307  1  0.79818200  0.87177200  0.39788200  1
  H  308  1  0.80968000  0.87979100  0.33361200  1
  H  315  1  0.73420400  0.82736800  0.44656400  1
  H  316  1  0.75175300  0.82790200  0.38283000  1
  H  319  1  0.73752000  0.84407200  0.34802100  1
  H  320  1  0.77437100  0.89003000  0.42480800  1
  H  327  1  0.54869900  0.63286900  0.13714100  1
  H  328  1  0.55854300  0.56867900  0.14784000  1
  H  335  1  0.48372900  0.68150500  0.09336500  1
  H  336  1  0.50132500  0.61765600  0.09453400  1
  H  339  1  0.47529300  0.59212600  0.13748200  1
  H  340  1  0.52533800  0.66078800  0.15534500  1
  H  347  1  0.04879900  0.36256500  0.38981800  1
  H  348  1  0.05861900  0.42675500  0.37913700  1
  H  355  1  0.98384200  0.31392300  0.43363800  1
  H  356  1  0.00146600  0.37778400  0.43246300  1
  H  359  1  0.97536400  0.40326700  0.38957600  1
  H  360  1  0.02541800  0.33466900  0.37161300  1
  H  367  1  0.29939800  0.37268200  0.12826100  1
  H  368  1  0.30925500  0.38501500  0.19207100  1
  H  375  1  0.23589400  0.32520700  0.08176600  1
  H  376  1  0.25109700  0.33089700  0.14576200  1
  H  379  1  0.22588600  0.37443400  0.16857800  1
  H  380  1  0.27700300  0.38781100  0.09728500  1
  H  387  1  0.79940700  0.62275700  0.39871000  1
  H  388  1  0.80924900  0.61039400  0.33490700  1
  H  395  1  0.73595300  0.67035700  0.44514600  1
  H  396  1  0.75108100  0.66453100  0.38112900  1
  H  399  1  0.72585900  0.62102400  0.35845000  1
  H  400  1  0.77703200  0.60769600  0.42972900  1
  H  407  1  0.99141800  0.63242000  0.38999500  1
  H  408  1  0.97993900  0.56808900  0.38195400  1
  H  415  1  0.05599800  0.68115500  0.43406300  1
  H  416  1  0.03823900  0.61740300  0.43366800  1
  H  419  1  0.05221600  0.58249300  0.41748400  1
  H  420  1  0.01488500  0.66011800  0.37210200  1
  H  427  1  0.49137200  0.36304300  0.13693100  1
  H  428  1  0.47999000  0.42737800  0.14503900  1
  H  435  1  0.55588700  0.31427500  0.09280900  1
  H  436  1  0.53816500  0.37805100  0.09323700  1
  H  439  1  0.55220400  0.41293000  0.10943100  1
  H  440  1  0.51483900  0.33534400  0.15482600  1
  H  447  1  0.24114600  0.37272600  0.39811100  1
  H  448  1  0.22902600  0.38216100  0.33412100  1
  H  455  1  0.30583000  0.32577300  0.44430800  1
  H  456  1  0.28754300  0.32953300  0.38090600  1
  H  459  1  0.30171300  0.34688000  0.34702100  1
  H  460  1  0.26481200  0.38913300  0.42624600  1
  H  467  1  0.74108600  0.62263700  0.12883200  1
  H  468  1  0.72893000  0.61317400  0.19280800  1
  H  475  1  0.80571900  0.66973500  0.08271500  1
  H  476  1  0.78743600  0.66586200  0.14613200  1
  H  479  1  0.80157900  0.64851300  0.17998400  1
  H  480  1  0.76478600  0.60626500  0.10072600  1
  H  487  1  0.49099800  0.36263800  0.88818300  1
  H  488  1  0.48080800  0.42649000  0.87584900  1
  H  495  1  0.55573300  0.31670500  0.93527800  1
  H  496  1  0.53770100  0.38021000  0.93038900  1
  H  499  1  0.56428800  0.40345100  0.88676800  1
  H  500  1  0.51498900  0.33518900  0.87114200  1
  H  507  1  0.99091400  0.63288900  0.63876800  1
  H  508  1  0.98074300  0.56903900  0.65109300  1
  H  515  1  0.05556800  0.67880000  0.59156100  1
  H  516  1  0.03757200  0.61528400  0.59651600  1
  H  519  1  0.06423200  0.59211700  0.64006000  1
  H  520  1  0.01494200  0.66029500  0.65580100  1
  H  527  1  0.74056500  0.62262000  0.89864000  1
  H  528  1  0.73090900  0.61009700  0.83484700  1
  H  535  1  0.80381900  0.67039400  0.94510400  1
  H  536  1  0.78889000  0.66443200  0.88107800  1
  H  539  1  0.81418800  0.62089300  0.85844800  1
  H  540  1  0.76288200  0.60766700  0.92972100  1
  H  547  1  0.24053900  0.37288000  0.62832800  1
  H  548  1  0.23088500  0.38543100  0.69211000  1
  H  555  1  0.30374900  0.32500200  0.58192600  1
  H  556  1  0.28890900  0.33109500  0.64597700  1
  H  559  1  0.31418900  0.37460500  0.66847500  1
  H  560  1  0.26284900  0.38778500  0.59721600  1
  H  567  1  0.04809000  0.36298300  0.63880200  1
  H  568  1  0.06014900  0.42704700  0.64820200  1
  H  575  1  0.98395900  0.31676400  0.59156000  1
  H  576  1  0.00249500  0.38016600  0.59522700  1
  H  579  1  0.98781200  0.41401800  0.61244300  1
  H  580  1  0.02377200  0.33592800  0.65570900  1
  H  587  1  0.54815700  0.63250900  0.88815200  1
  H  588  1  0.56011300  0.56844000  0.87867600  1
  H  595  1  0.48412700  0.67872600  0.93550900  1
  H  596  1  0.50259800  0.61530300  0.93174600  1
  H  599  1  0.48784100  0.58150400  0.91450900  1
  H  600  1  0.52382300  0.65954300  0.87125100  1
  H  607  1  0.79824100  0.62259800  0.62889300  1
  H  608  1  0.81020300  0.61283300  0.69285000  1
  H  615  1  0.73377600  0.67003800  0.58285600  1
  H  616  1  0.75186900  0.66588400  0.64629000  1
  H  619  1  0.73777100  0.64849700  0.68008500  1
  H  620  1  0.77457500  0.60643100  0.60074000  1
  H  627  1  0.29828000  0.37300100  0.89811500  1
  H  628  1  0.31029000  0.38278100  0.83417000  1
  H  635  1  0.23385800  0.32543000  0.94407400  1
  H  636  1  0.25196900  0.32966800  0.88063000  1
  H  639  1  0.23789900  0.34704700  0.84685600  1
  H  640  1  0.27456100  0.38913000  0.92625400  1
  H  647  1  0.03313600  0.26623000  0.64110600  1
  H  648  1  0.03153700  0.30314500  0.63572200  1
  H  655  1  0.96382300  0.23093500  0.64817200  1
  H  656  1  0.96414000  0.19381400  0.64318000  1
  H  657  1  0.03247500  0.19794200  0.61568500  1
  H  658  1  0.95782600  0.29882600  0.62257500  1
  H  659  1  0.03190000  0.23497600  0.61975800  1
  H  660  1  0.95958000  0.26186700  0.62674400  1
  H  667  1  0.53313500  0.72929200  0.88562500  1
  H  668  1  0.53159600  0.69237300  0.89105800  1
  H  675  1  0.46371800  0.76456800  0.87908600  1
  H  676  1  0.46405100  0.80168700  0.88409000  1
  H  677  1  0.53271200  0.79760200  0.91100100  1
  H  678  1  0.45799100  0.69668300  0.90467300  1
  H  679  1  0.53211600  0.76055200  0.90691800  1
  H  680  1  0.45969600  0.73363300  0.90048300  1
  H  687  1  0.78440100  0.87567700  0.49517100  1
  H  688  1  0.78261200  0.87016700  0.45830200  1
  H  695  1  0.71554500  0.88531100  0.53057600  1
  H  696  1  0.71557700  0.87979000  0.56760300  1
  H  697  1  0.78230000  0.84943000  0.56303700  1
  H  698  1  0.70828500  0.86002800  0.46254300  1
  H  699  1  0.78195500  0.85404100  0.52611200  1
  H  700  1  0.71014800  0.86434500  0.49943700  1
  H  707  1  0.28444200  0.11979700  0.03180300  1
  H  708  1  0.28259500  0.12527800  0.06867900  1
  H  715  1  0.21562800  0.11018100  0.99632300  1
  H  716  1  0.21569500  0.11573600  0.95929800  1
  H  717  1  0.28242700  0.14610300  0.96394700  1
  H  718  1  0.20827400  0.13538300  0.06436700  1
  H  719  1  0.28203700  0.14144500  0.00088200  1
  H  720  1  0.21018500  0.13110800  0.02748200  1
  H  727  1  0.50677000  0.26525500  0.88570000  1
  H  728  1  0.50811100  0.30220200  0.89089900  1
  H  735  1  0.57645700  0.23021600  0.87971100  1
  H  736  1  0.57628200  0.19312700  0.88488200  1
  H  737  1  0.50734900  0.19702600  0.91123300  1
  H  738  1  0.58166500  0.29823100  0.90483700  1
  H  739  1  0.50777500  0.23404400  0.90702200  1
  H  740  1  0.58013700  0.26125200  0.90090000  1
  H  747  1  0.00681100  0.73028100  0.64150300  1
  H  748  1  0.00807100  0.69333400  0.63623600  1
  H  755  1  0.07661800  0.76526800  0.64695700  1
  H  756  1  0.07644200  0.80235900  0.64179700  1
  H  757  1  0.00716900  0.79855200  0.61608500  1
  H  758  1  0.08151000  0.69727500  0.62182200  1
  H  759  1  0.00760400  0.76151900  0.62027700  1
  H  760  1  0.08004900  0.73424300  0.62579800  1
  H  767  1  0.75557200  0.87607000  0.03055400  1
  H  768  1  0.75713900  0.87064800  0.06744200  1
  H  775  1  0.82480300  0.88480100  0.99535200  1
  H  776  1  0.82489900  0.87911700  0.95835300  1
  H  777  1  0.75757100  0.84976700  0.96272100  1
  H  778  1  0.83136700  0.85983200  0.06346400  1
  H  779  1  0.75779500  0.85449500  0.99962700  1
  H  780  1  0.82970100  0.86402300  0.02656100  1
  H  787  1  0.25548400  0.11940600  0.49635200  1
  H  788  1  0.25711900  0.12478200  0.45945200  1
  H  795  1  0.32465400  0.11066800  0.53164600  1
  H  796  1  0.32470200  0.11639500  0.56864000  1
  H  797  1  0.25739800  0.14579800  0.56415500  1
  H  798  1  0.33134700  0.13552300  0.46350500  1
  H  799  1  0.25767600  0.14101300  0.52724300  1
  H  800  1  0.32962600  0.13139100  0.50040300  1
  H  807  1  0.00449200  0.73027600  0.38967800  1
  H  808  1  0.00646900  0.69322600  0.39426500  1
  H  815  1  0.07140500  0.76552400  0.37437300  1
  H  816  1  0.07166700  0.80269700  0.37970300  1
  H  817  1  0.01012400  0.79750300  0.41750800  1
  H  818  1  0.08148300  0.69690900  0.39946100  1
  H  819  1  0.01014700  0.76051800  0.41277300  1
  H  820  1  0.07956900  0.73397800  0.39568900  1
  H  827  1  0.50441500  0.26514200  0.13739900  1
  H  828  1  0.50635300  0.30220700  0.13279400  1
  H  835  1  0.57140700  0.22991000  0.15242500  1
  H  836  1  0.57165300  0.19273900  0.14707900  1
  H  837  1  0.50993400  0.19793700  0.10948500  1
  H  838  1  0.58134900  0.29854400  0.12731200  1
  H  839  1  0.50997200  0.23493100  0.11424600  1
  H  840  1  0.57947100  0.26147800  0.13109300  1
  H  847  1  0.53478200  0.73122600  0.13801800  1
  H  848  1  0.53305600  0.69415100  0.13356700  1
  H  855  1  0.46726000  0.76630400  0.15206600  1
  H  856  1  0.46685900  0.80343000  0.14646800  1
  H  857  1  0.52943700  0.79834300  0.10998300  1
  H  858  1  0.45811100  0.69753700  0.12746100  1
  H  859  1  0.52953700  0.76139400  0.11492900  1
  H  860  1  0.45979300  0.73461900  0.13104200  1
  H  867  1  0.03486800  0.26419200  0.38878000  1
  H  868  1  0.03318400  0.30127900  0.39324800  1
  H  875  1  0.96725800  0.22912800  0.37504500  1
  H  876  1  0.96686900  0.19200700  0.38067500  1
  H  877  1  0.02964400  0.19710300  0.41691200  1
  H  878  1  0.95826200  0.29791900  0.39965100  1
  H  879  1  0.02973400  0.23405600  0.41192300  1
  H  880  1  0.95990500  0.26084100  0.39606500  1
  H  887  1  0.28439000  0.37150100  0.99540800  1
  H  888  1  0.28265600  0.36699600  0.95837300  1
  H  895  1  0.21622800  0.38335100  0.03039400  1
  H  896  1  0.21628700  0.37868100  0.06759200  1
  H  897  1  0.28093500  0.34498900  0.06324400  1
  H  898  1  0.20810000  0.35803000  0.96209300  1
  H  899  1  0.28062600  0.34900300  0.02619200  1
  H  900  1  0.20985000  0.36164700  0.99915300  1
  H  907  1  0.78444900  0.62409300  0.53157700  1
  H  908  1  0.78265900  0.62856900  0.56862100  1
  H  915  1  0.71637600  0.61209100  0.49652800  1
  H  916  1  0.71646000  0.61677700  0.45933100  1
  H  917  1  0.78098100  0.65066200  0.46375700  1
  H  918  1  0.70808700  0.63735900  0.56484200  1
  H  919  1  0.78064200  0.64661600  0.50081600  1
  H  920  1  0.70988100  0.63377300  0.52778700  1
  H  927  1  0.25936100  0.34832900  0.52611200  1
  H  928  1  0.25913000  0.34413000  0.56314700  1
  H  935  1  0.32973200  0.36241500  0.49916700  1
  H  936  1  0.33151900  0.35890600  0.46209500  1
  H  937  1  0.25680600  0.36670800  0.45843400  1
  H  938  1  0.32280400  0.37921300  0.56771300  1
  H  939  1  0.25499300  0.37105700  0.49548600  1
  H  940  1  0.32278100  0.38402300  0.53052300  1
  H  947  1  0.75921300  0.64681900  0.00081100  1
  H  948  1  0.75901200  0.65099800  0.96376900  1
  H  955  1  0.82970600  0.63325500  0.02785200  1
  H  956  1  0.83142700  0.63678100  0.06491800  1
  H  957  1  0.75676000  0.62851500  0.06851900  1
  H  958  1  0.82305500  0.61643300  0.95931800  1
  H  959  1  0.75503700  0.62412900  0.03146100  1
  H  960  1  0.82301100  0.61163100  0.99650300  1
  H  967  1  0.02435800  0.13642700  0.49968500  1
  H  968  1  0.02583300  0.13685700  0.46226000  1
  H  975  1  0.96121400  0.12151100  0.53003600  1
  H  976  1  0.96280200  0.12389300  0.56760500  1
  H  977  1  0.01519800  0.17157000  0.56268700  1
  H  978  1  0.95209300  0.15170600  0.46006700  1
  H  979  1  0.01351200  0.16928400  0.52543600  1
  H  980  1  0.95056000  0.15114800  0.49771800  1
  H  987  1  0.52447100  0.85873600  0.02738600  1
  H  988  1  0.52588900  0.85829100  0.06481800  1
  H  995  1  0.46138300  0.87404100  0.99699500  1
  H  996  1  0.46296900  0.87167800  0.95942900  1
  H  997  1  0.51515100  0.82381700  0.96432900  1
  H  998  1  0.45199800  0.84401900  0.06693300  1
  H  999  1  0.51345300  0.82607600  0.00157700  1
  H  1000  1  0.45051900  0.84458600  0.02928200  1
  H  1007  1  0.77430000  0.73442900  0.62367000  1
  H  1008  1  0.77574600  0.69697000  0.62349400  1
  H  1015  1  0.71122000  0.76477700  0.63934000  1
  H  1016  1  0.71285500  0.80236900  0.63703600  1
  H  1017  1  0.76480900  0.79748000  0.58902700  1
  H  1018  1  0.70167900  0.69470500  0.60996100  1
  H  1019  1  0.76303400  0.76020200  0.59120700  1
  H  1020  1  0.70018100  0.73239200  0.61024700  1
  H  1027  1  0.27423800  0.26105600  0.90279900  1
  H  1028  1  0.27571900  0.29851400  0.90301300  1
  H  1035  1  0.21108700  0.23071200  0.88766400  1
  H  1036  1  0.21273500  0.19311700  0.89000200  1
  H  1037  1  0.26502500  0.19805600  0.93772600  1
  H  1038  1  0.20183500  0.30080500  0.91728900  1
  H  1039  1  0.26325400  0.23533600  0.93550100  1
  H  1040  1  0.20030200  0.26312300  0.91697400  1
  H  1047  1  0.51551400  0.13625800  0.02811400  1
  H  1048  1  0.51388300  0.13672100  0.06554200  1
  H  1055  1  0.57848100  0.12110600  0.99794300  1
  H  1056  1  0.57693400  0.12344200  0.96038000  1
  H  1057  1  0.52511800  0.17161700  0.96518600  1
  H  1058  1  0.58761100  0.15157100  0.06794800  1
  H  1059  1  0.52674200  0.16935200  0.00245700  1
  H  1060  1  0.58931300  0.15093800  0.03030500  1
  H  1067  1  0.01525400  0.85843500  0.49874700  1
  H  1068  1  0.01369400  0.85796800  0.46131100  1
  H  1075  1  0.07811500  0.87454000  0.52894000  1
  H  1076  1  0.07661400  0.87223900  0.56650000  1
  H  1077  1  0.02534600  0.82360800  0.56177300  1
  H  1078  1  0.08777600  0.84452800  0.45897800  1
  H  1079  1  0.02695600  0.82581500  0.52450900  1
  H  1080  1  0.08940700  0.84515700  0.49662500  1
  H  1087  1  0.76524900  0.73379000  0.90339200  1
  H  1088  1  0.76367700  0.69632200  0.90388000  1
  H  1095  1  0.82817800  0.76392300  0.88707300  1
  H  1096  1  0.82666700  0.80152200  0.88921200  1
  H  1097  1  0.77536500  0.79698700  0.93778800  1
  H  1098  1  0.83782900  0.69397200  0.91700500  1
  H  1099  1  0.77700200  0.75968400  0.93575500  1
  H  1100  1  0.83947100  0.73165400  0.91635200  1
  H  1107  1  0.26557800  0.26164300  0.62473300  1
  H  1108  1  0.26396000  0.29910700  0.62420500  1
  H  1115  1  0.32861700  0.23147400  0.63970400  1
  H  1116  1  0.32701600  0.19386900  0.63750000  1
  H  1117  1  0.27493300  0.19856500  0.58958200  1
  H  1118  1  0.33762400  0.30146700  0.60911400  1
  H  1119  1  0.27661600  0.23587300  0.59170900  1
  H  1120  1  0.33931400  0.26379200  0.60980600  1
  H  1127  1  0.26414000  0.26145400  0.40741900  1
  H  1128  1  0.26291400  0.29893000  0.40763700  1
  H  1135  1  0.32602200  0.23120200  0.38617800  1
  H  1136  1  0.32470600  0.19361800  0.38818400  1
  H  1137  1  0.27655500  0.19784100  0.43920800  1
  H  1138  1  0.33828600  0.30094300  0.41350200  1
  H  1139  1  0.27818000  0.23511600  0.43742700  1
  H  1140  1  0.33956700  0.26323800  0.41320600  1
  H  1147  1  0.76423200  0.73405000  0.12038700  1
  H  1148  1  0.76294700  0.69657500  0.12017400  1
  H  1155  1  0.82632200  0.76427100  0.14064500  1
  H  1156  1  0.82497200  0.80186100  0.13859400  1
  H  1157  1  0.77626000  0.79755400  0.08798700  1
  H  1158  1  0.83814600  0.69448300  0.11283000  1
  H  1159  1  0.77787400  0.76027100  0.08983900  1
  H  1160  1  0.83949100  0.73218400  0.11313600  1
  H  1167  1  0.27518500  0.26178600  0.12173400  1
  H  1168  1  0.27664500  0.29926000  0.12120600  1
  H  1175  1  0.21283500  0.23178600  0.14067200  1
  H  1176  1  0.21420100  0.19418300  0.13876200  1
  H  1177  1  0.26360300  0.19828100  0.08865500  1
  H  1178  1  0.20180800  0.30150900  0.11147000  1
  H  1179  1  0.26205800  0.23559900  0.09042600  1
  H  1180  1  0.20028200  0.26381400  0.11215100  1
  H  1187  1  0.77502700  0.73371900  0.40447400  1
  H  1188  1  0.77651100  0.69624500  0.40502400  1
  H  1195  1  0.71260100  0.76374100  0.38634200  1
  H  1196  1  0.71402600  0.80134700  0.38829000  1
  H  1197  1  0.76384500  0.79714400  0.43807200  1
  H  1198  1  0.70189600  0.69399000  0.41599700  1
  H  1199  1  0.76227000  0.75982000  0.43624200  1
  H  1200  1  0.70034200  0.73168100  0.41528800  1
  H  1207  1  0.52570300  0.64128000  0.99991700  1
  H  1208  1  0.52708200  0.64158200  0.96247200  1
  H  1215  1  0.46353200  0.62054300  0.02990500  1
  H  1216  1  0.46462600  0.62254900  0.06746800  1
  H  1217  1  0.51316500  0.67335400  0.06347000  1
  H  1218  1  0.45181300  0.64833700  0.96026600  1
  H  1219  1  0.51179800  0.67155300  0.02621900  1
  H  1220  1  0.45037700  0.64794100  0.99792200  1
  H  1227  1  0.02578300  0.35361400  0.52718200  1
  H  1228  1  0.02707300  0.35332300  0.56463200  1
  H  1235  1  0.96382500  0.37505300  0.49709200  1
  H  1236  1  0.96494000  0.37304000  0.45953500  1
  H  1237  1  0.01303700  0.32191700  0.46357600  1
  H  1238  1  0.95168200  0.34768100  0.56671700  1
  H  1239  1  0.01161500  0.32370300  0.50081600  1
  H  1240  1  0.95033500  0.34804700  0.52905900  1
  H  1247  1  0.01468100  0.63955000  0.52763200  1
  H  1248  1  0.01315300  0.63985200  0.56507500  1
  H  1255  1  0.07707300  0.62065500  0.49773800  1
  H  1256  1  0.07580300  0.62265200  0.46017200  1
  H  1257  1  0.02646700  0.67285500  0.46429100  1
  H  1258  1  0.08799200  0.64956600  0.56746300  1
  H  1259  1  0.02791200  0.67099300  0.50157300  1
  H  1260  1  0.08958300  0.64911400  0.52981200  1
  H  1267  1  0.51461000  0.35549300  0.99917200  1
  H  1268  1  0.51316300  0.35520700  0.96172500  1
  H  1275  1  0.57686900  0.37491600  0.02915700  1
  H  1276  1  0.57558200  0.37290500  0.06671700  1
  H  1277  1  0.52655900  0.32247100  0.06255400  1
  H  1278  1  0.58814500  0.34634500  0.95944200  1
  H  1279  1  0.52804700  0.32433000  0.02527900  1
  H  1280  1  0.58965500  0.34677000  0.99709400  1
  H  1287  1  0.12996300  0.12000000  0.61935200  1
  H  1288  1  0.08767200  0.11666800  0.61596400  1
  H  1295  1  0.16365900  0.08076200  0.66666667  1
  H  1296  1  0.20589400  0.08503100  0.67092600  1
  H  1297  1  0.20158800  0.14519500  0.64318600  1
  H  1298  1  0.08359100  0.09208000  0.67745100  1
  H  1299  1  0.15940000  0.14128500  0.63953800  1
  H  1300  1  0.12592500  0.09602400  0.68116800  1
  H  1307  1  0.62999700  0.87546000  0.90757600  1
  H  1308  1  0.58771000  0.87882200  0.91099200  1
  H  1315  1  0.66368600  0.91465100  0.86020200  1
  H  1316  1  0.70591800  0.91036500  0.85597200  1
  H  1317  1  0.70158100  0.85021500  0.88374400  1
  H  1318  1  0.58359100  0.90338100  0.84949500  1
  H  1319  1  0.65939200  0.85414600  0.88739000  1
  H  1320  1  0.62592000  0.89940800  0.84575000  1
  H  1327  1  0.87999900  0.85327700  0.64118600  1
  H  1328  1  0.83769700  0.85001200  0.64457000  1
  H  1335  1  0.91404100  0.90044300  0.68044500  1
  H  1336  1  0.95624700  0.90469400  0.67598800  1
  H  1337  1  0.95154300  0.87718000  0.61578500  1
  H  1338  1  0.83393100  0.91147100  0.66938800  1
  H  1339  1  0.90938400  0.87351500  0.61989000  1
  H  1340  1  0.87627100  0.91506700  0.66539400  1
  H  1347  1  0.37996000  0.14222500  0.88576500  1
  H  1348  1  0.33765200  0.14546800  0.88237500  1
  H  1355  1  0.41402600  0.09506100  0.84652900  1
  H  1356  1  0.45623300  0.09082600  0.85098800  1
  H  1357  1  0.45152300  0.11837300  0.91117500  1
  H  1358  1  0.33392800  0.08399300  0.85759300  1
  H  1359  1  0.40935900  0.12202300  0.90707000  1
  H  1360  1  0.37626900  0.08041900  0.86159400  1
  H  1367  1  0.91014700  0.87606100  0.40621000  1
  H  1368  1  0.95256500  0.87907500  0.40848100  1
  H  1375  1  0.87557600  0.91490100  0.35911800  1
  H  1376  1  0.83321300  0.91100900  0.35564600  1
  H  1377  1  0.83734300  0.85117700  0.38411500  1
  H  1378  1  0.95493700  0.90233300  0.34641000  1
  H  1379  1  0.87964400  0.85472800  0.38704800  1
  H  1380  1  0.91245500  0.89874400  0.34384300  1
  H  1387  1  0.41010800  0.11945300  0.12081400  1
  H  1388  1  0.45252600  0.11640800  0.11852500  1
  H  1395  1  0.37554000  0.08064800  0.16792300  1
  H  1396  1  0.33317400  0.08454000  0.17136700  1
  H  1397  1  0.33732100  0.14436000  0.14287400  1
  H  1398  1  0.45491100  0.09318700  0.18061000  1
  H  1399  1  0.37962700  0.14080900  0.13996600  1
  H  1400  1  0.41243200  0.09680600  0.18319300  1
  H  1407  1  0.16031000  0.14181400  0.38563200  1
  H  1408  1  0.20271600  0.14470100  0.38297000  1
  H  1415  1  0.12690300  0.09590800  0.34464800  1
  H  1416  1  0.08452000  0.09196200  0.34788800  1
  H  1417  1  0.08745200  0.11811700  0.40877800  1
  H  1418  1  0.20620600  0.08356000  0.35734600  1
  H  1419  1  0.12977300  0.12150800  0.40585700  1
  H  1420  1  0.16374800  0.08035700  0.36056800  1
  H  1427  1  0.66035900  0.85361200  0.14131000  1
  H  1428  1  0.70277000  0.85073900  0.14397500  1
  H  1435  1  0.62694300  0.89952600  0.18227700  1
  H  1436  1  0.58456000  0.90346100  0.17904200  1
  H  1437  1  0.58748100  0.87726500  0.11816900  1
  H  1438  1  0.70623500  0.91189300  0.16956800  1
  H  1439  1  0.62980800  0.87388500  0.12108500  1
  H  1440  1  0.66377700  0.91508300  0.16634200  1
  H  1447  1  0.62942400  0.61999100  0.11945900  1
  H  1448  1  0.58704000  0.61722900  0.11647500  1
  H  1455  1  0.66281000  0.57928100  0.16566900  1
  H  1456  1  0.70517700  0.58262600  0.16965000  1
  H  1457  1  0.70217000  0.64336400  0.14305100  1
  H  1458  1  0.58340900  0.59180300  0.17764300  1
  H  1459  1  0.65986100  0.64035200  0.13963800  1
  H  1460  1  0.62584500  0.59514500  0.18094900  1
  H  1467  1  0.12950800  0.37542300  0.40747700  1
  H  1468  1  0.08712400  0.37821300  0.41048700  1
  H  1475  1  0.16288900  0.41607500  0.36122000  1
  H  1476  1  0.20525300  0.41271000  0.35724500  1
  H  1477  1  0.20221400  0.35199800  0.38390200  1
  H  1478  1  0.08346000  0.40359400  0.34930300  1
  H  1479  1  0.15990300  0.35503000  0.38730800  1
  H  1480  1  0.12589100  0.40022300  0.34597000  1
  H  1487  1  0.37964100  0.35449100  0.14144500  1
  H  1488  1  0.33724600  0.35203300  0.14454500  1
  H  1495  1  0.41415700  0.40166600  0.18027000  1
  H  1496  1  0.45649100  0.40525800  0.17623900  1
  H  1497  1  0.45218000  0.37689300  0.11641300  1
  H  1498  1  0.33461700  0.41405100  0.16805500  1
  H  1499  1  0.40990700  0.37384800  0.12009800  1
  H  1500  1  0.37707500  0.41681300  0.16436900  1
  H  1507  1  0.87961900  0.64097400  0.38549800  1
  H  1508  1  0.83721700  0.64341500  0.38240100  1
  H  1515  1  0.91413400  0.59377300  0.34671200  1
  H  1516  1  0.95647000  0.59019500  0.35072800  1
  H  1517  1  0.95218800  0.61862900  0.41052500  1
  H  1518  1  0.83461200  0.58136600  0.35897100  1
  H  1519  1  0.90990800  0.62166200  0.40685300  1
  H  1520  1  0.87707300  0.57862300  0.36265200  1
  H  1527  1  0.41059500  0.37596600  0.90647700  1
  H  1528  1  0.45306000  0.37854100  0.90866300  1
  H  1535  1  0.37653900  0.41630900  0.86047700  1
  H  1536  1  0.33409400  0.41313900  0.85703600  1
  H  1537  1  0.33716500  0.35255400  0.88398200  1
  H  1538  1  0.45545400  0.40289500  0.84701100  1
  H  1539  1  0.37953300  0.35541600  0.88691000  1
  H  1540  1  0.41292100  0.39979100  0.84454000  1
  H  1547  1  0.91052100  0.61958700  0.62052600  1
  H  1548  1  0.95298500  0.61698100  0.61830100  1
  H  1555  1  0.87648900  0.57930400  0.66658200  1
  H  1556  1  0.83404600  0.58248500  0.67001700  1
  H  1557  1  0.83713400  0.64304500  0.64301700  1
  H  1558  1  0.95543500  0.59267700  0.67997000  1
  H  1559  1  0.87950600  0.64017200  0.64009300  1
  H  1560  1  0.91290600  0.59581200  0.68248100  1
  H  1567  1  0.66037000  0.64089700  0.88497000  1
  H  1568  1  0.70282700  0.64313300  0.88241500  1
  H  1575  1  0.62637100  0.59453900  0.84501900  1
  H  1576  1  0.58392800  0.59112000  0.84824000  1
  H  1577  1  0.58706000  0.61846900  0.90859700  1
  H  1578  1  0.70537700  0.58126500  0.85849800  1
  H  1579  1  0.62942400  0.62137800  0.90568700  1
  H  1580  1  0.66283700  0.57874500  0.86158900  1
  H  1587  1  0.16037100  0.35457800  0.64200400  1
  H  1588  1  0.20283600  0.35235500  0.64457300  1
  H  1595  1  0.12636200  0.40097700  0.68189500  1
  H  1596  1  0.08392000  0.40438800  0.67867100  1
  H  1597  1  0.08704700  0.37695200  0.61835300  1
  H  1598  1  0.20535700  0.41425500  0.66840300  1
  H  1599  1  0.12941900  0.37404800  0.62126500  1
  H  1600  1  0.16281900  0.41676200  0.66529900  1
  H  1607  1  0.99704800  0.98320100  0.60652000  1
  H  1608  1  0.99689800  0.94592100  0.60608600  1
  H  1615  1  0.01744200  0.01173600  0.66730900  1
  H  1616  1  0.01785800  0.04902600  0.66947100  1
  H  1617  1  0.01910600  0.05309300  0.60358500  1
  H  1618  1  0.04191900  0.94480600  0.65903400  1
  H  1619  1  0.01945100  0.01576100  0.60127300  1
  H  1620  1  0.04296900  0.98225900  0.65906700  1
  H  1627  1  0.49699600  0.01228700  0.92048000  1
  H  1628  1  0.49680500  0.04957800  0.92090700  1
  H  1635  1  0.51753600  0.98375300  0.85972200  1
  H  1636  1  0.51794800  0.94646900  0.85757500  1
  H  1637  1  0.51905600  0.94242100  0.92346100  1
  H  1638  1  0.54193100  0.05071900  0.86802000  1
  H  1639  1  0.51939800  0.97976000  0.92576100  1
  H  1640  1  0.54301400  0.01326400  0.86799500  1
  H  1647  1  0.74741800  0.84073300  0.77795900  1
  H  1648  1  0.74728500  0.84041300  0.81520900  1
  H  1655  1  0.76707100  0.90168700  0.74929500  1
  H  1656  1  0.76746100  0.90377500  0.71203100  1
  H  1657  1  0.76950100  0.83783500  0.70811500  1
  H  1658  1  0.79171400  0.89380400  0.81613900  1
  H  1659  1  0.76987700  0.83560400  0.74541800  1
  H  1660  1  0.79274900  0.89372500  0.77872000  1
  H  1667  1  0.24734900  0.15472800  0.74898000  1
  H  1668  1  0.24721300  0.15503400  0.71172400  1
  H  1675  1  0.26710800  0.09379900  0.77768300  1
  H  1676  1  0.26749800  0.09173900  0.81494200  1
  H  1677  1  0.26938700  0.15768900  0.81881100  1
  H  1678  1  0.29167800  0.10167500  0.71080600  1
  H  1679  1  0.26976000  0.15989100  0.78149700  1
  H  1680  1  0.29272000  0.10176200  0.74822100  1
  H  1687  1  0.04368000  0.01201200  0.41531800  1
  H  1688  1  0.04412400  0.04927800  0.41584500  1
  H  1695  1  0.02079100  0.98371100  0.35511900  1
  H  1696  1  0.02013500  0.94641700  0.35297300  1
  H  1697  1  0.02136600  0.94236500  0.41887900  1
  H  1698  1  0.99718400  0.05081500  0.36417300  1
  H  1699  1  0.02122600  0.97969100  0.42118700  1
  H  1700  1  0.99582700  0.01335600  0.36410100  1
  H  1707  1  0.54378900  0.98347700  0.11167400  1
  H  1708  1  0.54429300  0.94620400  0.11113600  1
  H  1715  1  0.52060500  0.01173500  0.17180900  1
  H  1716  1  0.51994600  0.04902200  0.17395800  1
  H  1717  1  0.52146800  0.05309400  0.10806400  1
  H  1718  1  0.49712200  0.94459600  0.16265300  1
  H  1719  1  0.52134100  0.01576100  0.10574400  1
  H  1720  1  0.49571300  0.98205700  0.16273100  1
  H  1727  1  0.29236500  0.15422600  0.24891400  1
  H  1728  1  0.29231700  0.15449600  0.21165500  1
  H  1735  1  0.27237900  0.09343500  0.27761700  1
  H  1736  1  0.27223300  0.09129000  0.31487300  1
  H  1737  1  0.27065500  0.15723500  0.31890900  1
  H  1738  1  0.24727200  0.10149800  0.21097000  1
  H  1739  1  0.27006900  0.15952600  0.28160400  1
  H  1740  1  0.24644100  0.10162700  0.24839200  1
  H  1747  1  0.79247300  0.84124500  0.27803400  1
  H  1748  1  0.79243800  0.84098600  0.31530000  1
  H  1755  1  0.77238000  0.90200900  0.24930200  1
  H  1756  1  0.77223100  0.90412700  0.21205300  1
  H  1757  1  0.77078100  0.83818300  0.20805800  1
  H  1758  1  0.74734800  0.89394400  0.31598700  1
  H  1759  1  0.77020200  0.83591500  0.24537100  1
  H  1760  1  0.74650200  0.89381400  0.27856900  1
  H  1767  1  0.49736400  0.48308500  0.10669700  1
  H  1768  1  0.49735800  0.44580000  0.10633400  1
  H  1775  1  0.51743000  0.51172700  0.16751800  1
  H  1776  1  0.51763300  0.54901300  0.16970600  1
  H  1777  1  0.51905300  0.55313100  0.10382900  1
  H  1778  1  0.54225700  0.44492400  0.15935900  1
  H  1779  1  0.51959000  0.51579600  0.10149500  1
  H  1780  1  0.54314600  0.48237400  0.15933400  1
  H  1787  1  0.99730900  0.51233500  0.42026800  1
  H  1788  1  0.99725400  0.54963100  0.42062400  1
  H  1795  1  0.01756600  0.48369600  0.35948800  1
  H  1796  1  0.01777500  0.44641700  0.35731900  1
  H  1797  1  0.01901400  0.44232200  0.42319500  1
  H  1798  1  0.04229000  0.55054300  0.36768200  1
  H  1799  1  0.01953700  0.47966400  0.42551800  1
  H  1800  1  0.04322300  0.51309000  0.36771700  1
  H  1807  1  0.24596800  0.34483900  0.27762700  1
  H  1808  1  0.24552200  0.34439000  0.31486800  1
  H  1815  1  0.26889800  0.40506000  0.24919300  1
  H  1816  1  0.26956800  0.40717300  0.21194000  1
  H  1817  1  0.26822000  0.34122100  0.20793800  1
  H  1818  1  0.29245100  0.39610800  0.31628600  1
  H  1819  1  0.26830600  0.33894100  0.24523900  1
  H  1820  1  0.29377100  0.39612300  0.27886600  1
  H  1827  1  0.74582900  0.65051600  0.24934700  1
  H  1828  1  0.74536000  0.65095900  0.21210200  1
  H  1835  1  0.76895300  0.59034600  0.27779600  1
  H  1836  1  0.76963100  0.58825800  0.31504300  1
  H  1837  1  0.76807300  0.65420400  0.31901200  1
  H  1838  1  0.79240200  0.59932900  0.21066200  1
  H  1839  1  0.76814700  0.65646500  0.28170300  1
  H  1840  1  0.79374800  0.59931500  0.24808100  1
  H  1847  1  0.54345100  0.51214800  0.91635700  1
  H  1848  1  0.54373700  0.54943000  0.91677000  1
  H  1855  1  0.52114900  0.48381800  0.85611900  1
  H  1856  1  0.52073600  0.44653000  0.85388600  1
  H  1857  1  0.52131400  0.44233000  0.91979300  1
  H  1858  1  0.49682500  0.55064400  0.86506700  1
  H  1859  1  0.52097000  0.47966600  0.92218300  1
  H  1860  1  0.49565700  0.51318500  0.86509000  1
  H  1867  1  0.04350600  0.48339300  0.61056700  1
  H  1868  1  0.04383700  0.44609900  0.61015400  1
  H  1875  1  0.02100900  0.51170300  0.67076000  1
  H  1876  1  0.02059700  0.54898600  0.67298900  1
  H  1877  1  0.02136200  0.55318400  0.60708600  1
  H  1878  1  0.99677100  0.44484500  0.66175500  1
  H  1879  1  0.02102500  0.51584200  0.60469600  1
  H  1880  1  0.99556500  0.48230500  0.66173000  1
  H  1887  1  0.79353700  0.65044500  0.74922400  1
  H  1888  1  0.79371100  0.65091300  0.71198300  1
  H  1895  1  0.77115900  0.59010200  0.77778600  1
  H  1896  1  0.77068200  0.58800000  0.81504200  1
  H  1897  1  0.77170100  0.65395600  0.81901700  1
  H  1898  1  0.74715600  0.59893300  0.71080000  1
  H  1899  1  0.77141700  0.65622300  0.78172200  1
  H  1900  1  0.74609100  0.59890300  0.74822800  1
  H  1907  1  0.29369100  0.34516100  0.77774100  1
  H  1908  1  0.29389500  0.34469800  0.81498600  1
  H  1915  1  0.27104400  0.40543500  0.74917000  1
  H  1916  1  0.27055500  0.40751400  0.71192100  1
  H  1917  1  0.27185500  0.34156500  0.70797700  1
  H  1918  1  0.24716500  0.39654600  0.81619800  1
  H  1919  1  0.27159000  0.33931300  0.74527800  1
  H  1920  1  0.24606500  0.39657600  0.77877500  1
  H  1927  1  0.61957100  0.06985900  0.63649800  1
  H  1928  1  0.62902600  0.00570800  0.64757200  1
  H  1935  1  0.55570700  0.11902800  0.59267200  1
  H  1936  1  0.57099500  0.05468100  0.59430000  1
  H  1939  1  0.54591500  0.02946500  0.63731700  1
  H  1940  1  0.59716400  0.09968500  0.65392400  1
  H  1947  1  0.11961600  0.80003700  0.89046100  1
  H  1948  1  0.12906400  0.86418900  0.87941300  1
  H  1955  1  0.05575300  0.75086600  0.93433300  1
  H  1956  1  0.07108300  0.81522400  0.93271400  1
  H  1959  1  0.04594100  0.84040900  0.88976700  1
  H  1960  1  0.09718200  0.77021600  0.87304500  1
  H  1967  1  0.36975600  0.80806600  0.62863900  1
  H  1968  1  0.37912900  0.81877600  0.69280600  1
  H  1975  1  0.30587600  0.76492400  0.57908700  1
  H  1976  1  0.32082000  0.76610600  0.64344500  1
  H  1979  1  0.29597700  0.80919300  0.66878700  1
  H  1980  1  0.34760700  0.82590500  0.59895200  1
  H  1987  1  0.86975000  0.06179000  0.89831500  1
  H  1988  1  0.87911900  0.05111000  0.83414800  1
  H  1995  1  0.80599800  0.10506000  0.94785300  1
  H  1996  1  0.82081900  0.10377300  0.88346000  1
  H  1999  1  0.79594800  0.06074700  0.85820000  1
  H  2000  1  0.84760100  0.04398400  0.92802200  1
  H  2007  1  0.06107600  0.06961900  0.89081300  1
  H  2008  1  0.04970900  0.00535400  0.88229800  1
  H  2015  1  0.12494000  0.11859100  0.93488500  1
  H  2016  1  0.10886900  0.05444900  0.93409800  1
  H  2019  1  0.12212200  0.01953500  0.91776400  1
  H  2020  1  0.08382700  0.09893100  0.87359200  1
  H  2027  1  0.56105900  0.80030400  0.63615200  1
  H  2028  1  0.54976200  0.86457500  0.64470800  1
  H  2035  1  0.62496100  0.75130400  0.59209300  1
  H  2036  1  0.60879300  0.81545000  0.59283500  1
  H  2039  1  0.62211700  0.85034700  0.60917500  1
  H  2040  1  0.58383800  0.77100100  0.65340200  1
  H  2047  1  0.31092300  0.80811500  0.89777000  1
  H  2048  1  0.29972000  0.81626800  0.83349200  1
  H  2055  1  0.37471100  0.76465900  0.94716100  1
  H  2056  1  0.35896400  0.76498400  0.88301200  1
  H  2059  1  0.37233500  0.78123300  0.84806500  1
  H  2060  1  0.33347700  0.82574700  0.92693900  1
  H  2067  1  0.81091300  0.06169900  0.62915600  1
  H  2068  1  0.79968400  0.05353700  0.69342300  1
  H  2075  1  0.87450600  0.10534000  0.57979900  1
  H  2076  1  0.85897400  0.10485600  0.64400200  1
  H  2079  1  0.87226600  0.08861500  0.67892100  1
  H  2080  1  0.83345500  0.04412200  0.59996100  1
  H  2087  1  0.56059200  0.79992400  0.38792200  1
  H  2088  1  0.55063000  0.86369600  0.37515700  1
  H  2095  1  0.62412700  0.75375000  0.43542300  1
  H  2096  1  0.60895400  0.81778600  0.42944200  1
  H  2099  1  0.63406000  0.84040400  0.38569600  1
  H  2100  1  0.58308400  0.76905300  0.37276100  1
  H  2107  1  0.06053900  0.06995200  0.13907200  1
  H  2108  1  0.05056700  0.00618900  0.15184100  1
  H  2115  1  0.12404500  0.11607200  0.09145700  1
  H  2116  1  0.10890600  0.05202000  0.09752500  1
  H  2119  1  0.13401700  0.02948900  0.14120200  1
  H  2120  1  0.08304100  0.10084600  0.15417000  1
  H  2127  1  0.81120100  0.06119600  0.39853700  1
  H  2128  1  0.80144000  0.05048000  0.33439900  1
  H  2135  1  0.87580300  0.10499000  0.44721300  1
  H  2136  1  0.85838700  0.10381400  0.38340000  1
  H  2139  1  0.88469000  0.06073300  0.35792900  1
  H  2140  1  0.83477800  0.04250700  0.42566900  1
  H  2147  1  0.31122000  0.80868000  0.12839900  1
  H  2148  1  0.30147300  0.81936600  0.19254200  1
  H  2155  1  0.37572300  0.76478300  0.07973100  1
  H  2156  1  0.35840300  0.76604500  0.14357500  1
  H  2159  1  0.38474100  0.80907400  0.16895800  1
  H  2160  1  0.33482000  0.82735300  0.10124500  1
  H  2167  1  0.11885900  0.80010600  0.13873800  1
  H  2168  1  0.13094100  0.86404000  0.14877600  1
  H  2175  1  0.05555000  0.75397100  0.09121800  1
  H  2176  1  0.07151600  0.81788200  0.09608000  1
  H  2179  1  0.05805400  0.85157200  0.11371300  1
  H  2180  1  0.09590000  0.76994000  0.15400700  1
  H  2187  1  0.61887600  0.06972700  0.38822100  1
  H  2188  1  0.63086500  0.00578800  0.37812800  1
  H  2195  1  0.55565800  0.11588300  0.43582900  1
  H  2196  1  0.57154800  0.05194500  0.43091000  1
  H  2199  1  0.55804200  0.01829400  0.41326500  1
  H  2200  1  0.59592100  0.09992300  0.37297700  1
  H  2207  1  0.86838900  0.06097200  0.12909800  1
  H  2208  1  0.87983200  0.05293900  0.19337800  1
  H  2215  1  0.80435000  0.10525300  0.08036300  1
  H  2216  1  0.82192800  0.10479200  0.14407600  1
  H  2219  1  0.80763400  0.08859600  0.17889400  1
  H  2220  1  0.84461800  0.04267600  0.10218000  1
  H  2227  1  0.36841300  0.80897500  0.39788200  1
  H  2228  1  0.37991100  0.81699400  0.33361200  1
  H  2235  1  0.30443500  0.76457100  0.44656400  1
  H  2236  1  0.32198400  0.76510500  0.38283000  1
  H  2239  1  0.30775100  0.78127500  0.34802100  1
  H  2240  1  0.34460200  0.82723300  0.42480800  1
  H  2247  1  0.11893000  0.57007200  0.13714100  1
  H  2248  1  0.12877400  0.50588200  0.14784000  1
  H  2255  1  0.05396000  0.61870800  0.09336500  1
  H  2256  1  0.07155600  0.55485900  0.09453400  1
  H  2259  1  0.04552400  0.52932900  0.13748200  1
  H  2260  1  0.09556900  0.59799100  0.15534500  1
  H  2267  1  0.61903000  0.29976800  0.38981800  1
  H  2268  1  0.62885000  0.36395800  0.37913700  1
  H  2275  1  0.55407300  0.25112600  0.43363800  1
  H  2276  1  0.57169700  0.31498700  0.43246300  1
  H  2279  1  0.54559500  0.34047000  0.38957600  1
  H  2280  1  0.59564900  0.27187200  0.37161300  1
  H  2287  1  0.86962900  0.30988500  0.12826100  1
  H  2288  1  0.87948600  0.32221800  0.19207100  1
  H  2295  1  0.80612500  0.26241000  0.08176600  1
  H  2296  1  0.82132800  0.26810000  0.14576200  1
  H  2299  1  0.79611700  0.31163700  0.16857800  1
  H  2300  1  0.84723400  0.32501400  0.09728500  1
  H  2307  1  0.36963800  0.55996000  0.39871000  1
  H  2308  1  0.37948000  0.54759700  0.33490700  1
  H  2315  1  0.30618400  0.60756000  0.44514600  1
  H  2316  1  0.32131200  0.60173400  0.38112900  1
  H  2319  1  0.29609000  0.55822700  0.35845000  1
  H  2320  1  0.34726300  0.54489900  0.42972900  1
  H  2327  1  0.56164900  0.56962300  0.38999500  1
  H  2328  1  0.55017000  0.50529200  0.38195400  1
  H  2335  1  0.62622900  0.61835800  0.43406300  1
  H  2336  1  0.60847000  0.55460600  0.43366800  1
  H  2339  1  0.62244700  0.51969600  0.41748400  1
  H  2340  1  0.58511600  0.59732100  0.37210200  1
  H  2347  1  0.06160300  0.30024600  0.13693100  1
  H  2348  1  0.05022100  0.36458100  0.14503900  1
  H  2355  1  0.12611800  0.25147800  0.09280900  1
  H  2356  1  0.10839600  0.31525400  0.09323700  1
  H  2359  1  0.12243500  0.35013300  0.10943100  1
  H  2360  1  0.08507000  0.27254700  0.15482600  1
  H  2367  1  0.81137700  0.30992900  0.39811100  1
  H  2368  1  0.79925700  0.31936400  0.33412100  1
  H  2375  1  0.87606100  0.26297600  0.44430800  1
  H  2376  1  0.85777400  0.26673600  0.38090600  1
  H  2379  1  0.87194400  0.28408300  0.34702100  1
  H  2380  1  0.83504300  0.32633600  0.42624600  1
  H  2387  1  0.31131700  0.55984000  0.12883200  1
  H  2388  1  0.29916100  0.55037700  0.19280800  1
  H  2395  1  0.37595000  0.60693800  0.08271500  1
  H  2396  1  0.35766700  0.60306500  0.14613200  1
  H  2399  1  0.37181000  0.58571600  0.17998400  1
  H  2400  1  0.33501700  0.54346800  0.10072600  1
  H  2407  1  0.06122900  0.29984100  0.88818300  1
  H  2408  1  0.05103900  0.36369300  0.87584900  1
  H  2415  1  0.12596400  0.25390800  0.93527800  1
  H  2416  1  0.10793200  0.31741300  0.93038900  1
  H  2419  1  0.13451900  0.34065400  0.88676800  1
  H  2420  1  0.08522000  0.27239200  0.87114200  1
  H  2427  1  0.56114500  0.57009200  0.63876800  1
  H  2428  1  0.55097400  0.50624200  0.65109300  1
  H  2435  1  0.62579900  0.61600300  0.59156100  1
  H  2436  1  0.60780300  0.55248700  0.59651600  1
  H  2439  1  0.63446300  0.52932000  0.64006000  1
  H  2440  1  0.58517300  0.59749800  0.65580100  1
  H  2447  1  0.31079600  0.55982300  0.89864000  1
  H  2448  1  0.30114000  0.54730000  0.83484700  1
  H  2455  1  0.37405000  0.60759700  0.94510400  1
  H  2456  1  0.35912100  0.60163500  0.88107800  1
  H  2459  1  0.38441900  0.55809600  0.85844800  1
  H  2460  1  0.33311300  0.54487000  0.92972100  1
  H  2467  1  0.81077000  0.31008300  0.62832800  1
  H  2468  1  0.80111600  0.32263400  0.69211000  1
  H  2475  1  0.87398000  0.26220500  0.58192600  1
  H  2476  1  0.85914000  0.26829800  0.64597700  1
  H  2479  1  0.88442000  0.31180800  0.66847500  1
  H  2480  1  0.83308000  0.32498800  0.59721600  1
  H  2487  1  0.61832100  0.30018600  0.63880200  1
  H  2488  1  0.63038000  0.36425000  0.64820200  1
  H  2495  1  0.55419000  0.25396700  0.59156000  1
  H  2496  1  0.57272600  0.31736900  0.59522700  1
  H  2499  1  0.55804300  0.35122100  0.61244300  1
  H  2500  1  0.59400300  0.27313100  0.65570900  1
  H  2507  1  0.11838800  0.56971200  0.88815200  1
  H  2508  1  0.13034400  0.50564300  0.87867600  1
  H  2515  1  0.05435800  0.61592900  0.93550900  1
  H  2516  1  0.07282900  0.55250600  0.93174600  1
  H  2519  1  0.05807200  0.51870700  0.91450900  1
  H  2520  1  0.09405400  0.59674600  0.87125100  1
  H  2527  1  0.36847200  0.55980100  0.62889300  1
  H  2528  1  0.38043400  0.55003600  0.69285000  1
  H  2535  1  0.30400700  0.60724100  0.58285600  1
  H  2536  1  0.32210000  0.60308700  0.64629000  1
  H  2539  1  0.30800200  0.58570000  0.68008500  1
  H  2540  1  0.34480600  0.54363400  0.60074000  1
  H  2547  1  0.86851100  0.31020400  0.89811500  1
  H  2548  1  0.88052100  0.31998400  0.83417000  1
  H  2555  1  0.80408900  0.26263300  0.94407400  1
  H  2556  1  0.82220000  0.26687100  0.88063000  1
  H  2559  1  0.80813000  0.28425000  0.84685600  1
  H  2560  1  0.84479200  0.32633300  0.92625400  1
  H  2567  1  0.60336700  0.20343300  0.64110600  1
  H  2568  1  0.60176800  0.24034800  0.63572200  1
  H  2575  1  0.53405400  0.16813800  0.64817200  1
  H  2576  1  0.53437100  0.13101700  0.64318000  1
  H  2577  1  0.60270600  0.13514500  0.61568500  1
  H  2578  1  0.52805700  0.23602900  0.62257500  1
  H  2579  1  0.60213100  0.17217900  0.61975800  1
  H  2580  1  0.52981100  0.19907000  0.62674400  1
  H  2587  1  0.10336600  0.66649500  0.88562500  1
  H  2588  1  0.10182700  0.62957600  0.89105800  1
  H  2595  1  0.03394900  0.70177100  0.87908600  1
  H  2596  1  0.03428200  0.73889000  0.88409000  1
  H  2597  1  0.10294300  0.73480500  0.91100100  1
  H  2598  1  0.02822200  0.63388600  0.90467300  1
  H  2599  1  0.10234700  0.69775500  0.90691800  1
  H  2600  1  0.02992700  0.67083600  0.90048300  1
  H  2607  1  0.35463200  0.81288000  0.49517100  1
  H  2608  1  0.35284300  0.80737000  0.45830200  1
  H  2615  1  0.28577600  0.82251400  0.53057600  1
  H  2616  1  0.28580800  0.81699300  0.56760300  1
  H  2617  1  0.35253100  0.78663300  0.56303700  1
  H  2618  1  0.27851600  0.79723100  0.46254300  1
  H  2619  1  0.35218600  0.79124400  0.52611200  1
  H  2620  1  0.28037900  0.80154800  0.49943700  1
  H  2627  1  0.85467300  0.05700000  0.03180300  1
  H  2628  1  0.85282600  0.06248100  0.06867900  1
  H  2635  1  0.78585900  0.04738400  0.99632300  1
  H  2636  1  0.78592600  0.05293900  0.95929800  1
  H  2637  1  0.85265800  0.08330600  0.96394700  1
  H  2638  1  0.77850500  0.07258600  0.06436700  1
  H  2639  1  0.85226800  0.07864800  0.00088200  1
  H  2640  1  0.78041600  0.06831100  0.02748200  1
  H  2647  1  0.07700100  0.20245800  0.88570000  1
  H  2648  1  0.07834200  0.23940500  0.89089900  1
  H  2655  1  0.14668800  0.16741900  0.87971100  1
  H  2656  1  0.14651300  0.13033000  0.88488200  1
  H  2657  1  0.07758000  0.13422900  0.91123300  1
  H  2658  1  0.15189600  0.23543400  0.90483700  1
  H  2659  1  0.07800600  0.17124700  0.90702200  1
  H  2660  1  0.15036800  0.19845500  0.90090000  1
  H  2667  1  0.57704200  0.66748400  0.64150300  1
  H  2668  1  0.57830200  0.63053700  0.63623600  1
  H  2675  1  0.64684900  0.70247100  0.64695700  1
  H  2676  1  0.64667300  0.73956200  0.64179700  1
  H  2677  1  0.57740000  0.73575500  0.61608500  1
  H  2678  1  0.65174100  0.63447800  0.62182200  1
  H  2679  1  0.57783500  0.69872200  0.62027700  1
  H  2680  1  0.65028000  0.67144600  0.62579800  1
  H  2687  1  0.32580300  0.81327300  0.03055400  1
  H  2688  1  0.32737000  0.80785100  0.06744200  1
  H  2695  1  0.39503400  0.82200400  0.99535200  1
  H  2696  1  0.39513000  0.81632000  0.95835300  1
  H  2697  1  0.32780200  0.78697000  0.96272100  1
  H  2698  1  0.40159800  0.79703500  0.06346400  1
  H  2699  1  0.32802600  0.79169800  0.99962700  1
  H  2700  1  0.39993200  0.80122600  0.02656100  1
  H  2707  1  0.82571500  0.05660900  0.49635200  1
  H  2708  1  0.82735000  0.06198500  0.45945200  1
  H  2715  1  0.89488500  0.04787100  0.53164600  1
  H  2716  1  0.89493300  0.05359800  0.56864000  1
  H  2717  1  0.82762900  0.08300100  0.56415500  1
  H  2718  1  0.90157760  0.07272600  0.46350500  1
  H  2719  1  0.82790700  0.07821600  0.52724300  1
  H  2720  1  0.89985700  0.06859400  0.50040300  1
  H  2727  1  0.57472300  0.66747900  0.38967800  1
  H  2728  1  0.57670000  0.63042900  0.39426500  1
  H  2735  1  0.64163600  0.70272700  0.37437300  1
  H  2736  1  0.64189800  0.73990000  0.37970300  1
  H  2737  1  0.58035500  0.73470600  0.41750800  1
  H  2738  1  0.65171400  0.63411200  0.39946100  1
  H  2739  1  0.58037800  0.69772100  0.41277300  1
  H  2740  1  0.64980000  0.67118100  0.39568900  1
  H  2747  1  0.07464600  0.20234500  0.13739900  1
  H  2748  1  0.07658400  0.23941000  0.13279400  1
  H  2755  1  0.14163800  0.16711300  0.15242500  1
  H  2756  1  0.14188400  0.12994200  0.14707900  1
  H  2757  1  0.08016500  0.13514000  0.10948500  1
  H  2758  1  0.15158000  0.23574700  0.12731200  1
  H  2759  1  0.08020300  0.17213400  0.11424600  1
  H  2760  1  0.14970200  0.19868100  0.13109300  1
  H  2767  1  0.10501300  0.66842900  0.13801800  1
  H  2768  1  0.10328700  0.63135400  0.13356700  1
  H  2775  1  0.03749100  0.70350700  0.15206600  1
  H  2776  1  0.03709000  0.74063300  0.14646800  1
  H  2777  1  0.09966800  0.73554600  0.10998300  1
  H  2778  1  0.02834200  0.63474000  0.12746100  1
  H  2779  1  0.09976800  0.69859700  0.11492900  1
  H  2780  1  0.03002400  0.67182200  0.13104200  1
  H  2787  1  0.60509900  0.20139500  0.38878000  1
  H  2788  1  0.60341500  0.23848200  0.39324800  1
  H  2795  1  0.53748900  0.16633100  0.37504500  1
  H  2796  1  0.53710000  0.12921000  0.38067500  1
  H  2797  1  0.59987500  0.13430600  0.41691200  1
  H  2798  1  0.52849300  0.23512200  0.39965100  1
  H  2799  1  0.59996500  0.17125900  0.41192300  1
  H  2800  1  0.53013600  0.19804400  0.39606500  1
  H  2807  1  0.85462100  0.30870400  0.99540800  1
  H  2808  1  0.85288700  0.30419900  0.95837300  1
  H  2815  1  0.78645900  0.32055400  0.03039400  1
  H  2816  1  0.78651800  0.31588400  0.06759200  1
  H  2817  1  0.85116600  0.28219200  0.06324400  1
  H  2818  1  0.77833100  0.29523300  0.96209300  1
  H  2819  1  0.85085700  0.28620600  0.02619200  1
  H  2820  1  0.78008100  0.29885000  0.99915300  1
  H  2827  1  0.35468000  0.56129600  0.53157700  1
  H  2828  1  0.35289000  0.56577200  0.56862100  1
  H  2835  1  0.28660700  0.54929400  0.49652800  1
  H  2836  1  0.28669100  0.55398000  0.45933100  1
  H  2837  1  0.35121200  0.58786500  0.46375700  1
  H  2838  1  0.27831800  0.57456200  0.56484200  1
  H  2839  1  0.35087300  0.58381900  0.50081600  1
  H  2840  1  0.28011200  0.57097600  0.52778700  1
  H  2847  1  0.82959200  0.28553200  0.52611200  1
  H  2848  1  0.82936100  0.28133300  0.56314700  1
  H  2855  1  0.89996300  0.29961800  0.49916700  1
  H  2856  1  0.90174960  0.29610900  0.46209500  1
  H  2857  1  0.82703700  0.30391100  0.45843400  1
  H  2858  1  0.89303500  0.31641600  0.56771300  1
  H  2859  1  0.82522400  0.30826000  0.49548600  1
  H  2860  1  0.89301200  0.32122600  0.53052300  1
  H  2867  1  0.32944400  0.58402200  0.00081100  1
  H  2868  1  0.32924300  0.58820100  0.96376900  1
  H  2875  1  0.39993700  0.57045800  0.02785200  1
  H  2876  1  0.40165800  0.57398400  0.06491800  1
  H  2877  1  0.32699100  0.56571800  0.06851900  1
  H  2878  1  0.39328600  0.55363600  0.95931800  1
  H  2879  1  0.32526800  0.56133200  0.03146100  1
  H  2880  1  0.39324200  0.54883400  0.99650300  1
  H  2887  1  0.59458900  0.07363000  0.49968500  1
  H  2888  1  0.59606400  0.07406000  0.46226000  1
  H  2895  1  0.53144500  0.05871400  0.53003600  1
  H  2896  1  0.53303300  0.06109600  0.56760500  1
  H  2897  1  0.58542900  0.10877300  0.56268700  1
  H  2898  1  0.52232400  0.08890900  0.46006700  1
  H  2899  1  0.58374300  0.10648700  0.52543600  1
  H  2900  1  0.52079100  0.08835100  0.49771800  1
  H  2907  1  0.09470200  0.79593900  0.02738600  1
  H  2908  1  0.09612000  0.79549400  0.06481800  1
  H  2915  1  0.03161400  0.81124400  0.99699500  1
  H  2916  1  0.03320000  0.80888100  0.95942900  1
  H  2917  1  0.08538200  0.76102000  0.96432900  1
  H  2918  1  0.02222900  0.78122200  0.06693300  1
  H  2919  1  0.08368400  0.76327900  0.00157700  1
  H  2920  1  0.02075000  0.78178900  0.02928200  1
  H  2927  1  0.34453100  0.67163200  0.62367000  1
  H  2928  1  0.34597700  0.63417300  0.62349400  1
  H  2935  1  0.28145100  0.70198000  0.63934000  1
  H  2936  1  0.28308600  0.73957200  0.63703600  1
  H  2937  1  0.33504000  0.73468300  0.58902700  1
  H  2938  1  0.27191000  0.63190800  0.60996100  1
  H  2939  1  0.33326500  0.69740500  0.59120700  1
  H  2940  1  0.27041200  0.66959500  0.61024700  1
  H  2947  1  0.84446900  0.19825900  0.90279900  1
  H  2948  1  0.84595000  0.23571700  0.90301300  1
  H  2955  1  0.78131800  0.16791500  0.88766400  1
  H  2956  1  0.78296600  0.13032000  0.89000200  1
  H  2957  1  0.83525600  0.13525900  0.93772600  1
  H  2958  1  0.77206600  0.23800800  0.91728900  1
  H  2959  1  0.83348500  0.17253900  0.93550100  1
  H  2960  1  0.77053300  0.20032600  0.91697400  1
  H  2967  1  0.08574500  0.07346100  0.02811400  1
  H  2968  1  0.08411400  0.07392400  0.06554200  1
  H  2975  1  0.14871200  0.05830900  0.99794300  1
  H  2976  1  0.14716500  0.06064500  0.96038000  1
  H  2977  1  0.09534900  0.10882000  0.96518600  1
  H  2978  1  0.15784200  0.08877400  0.06794800  1
  H  2979  1  0.09697300  0.10655500  0.00245700  1
  H  2980  1  0.15954400  0.08814100  0.03030500  1
  H  2987  1  0.58548500  0.79563800  0.49874700  1
  H  2988  1  0.58392500  0.79517100  0.46131100  1
  H  2995  1  0.64834600  0.81174300  0.52894000  1
  H  2996  1  0.64684500  0.80944200  0.56650000  1
  H  2997  1  0.59557700  0.76081100  0.56177300  1
  H  2998  1  0.65800700  0.78173100  0.45897800  1
  H  2999  1  0.59718700  0.76301800  0.52450900  1
  H  3000  1  0.65963800  0.78236000  0.49662500  1
  H  3007  1  0.33548000  0.67099300  0.90339200  1
  H  3008  1  0.33390800  0.63352500  0.90388000  1
  H  3015  1  0.39840900  0.70112600  0.88707300  1
  H  3016  1  0.39689800  0.73872500  0.88921200  1
  H  3017  1  0.34559600  0.73419000  0.93778800  1
  H  3018  1  0.40806000  0.63117500  0.91700500  1
  H  3019  1  0.34723300  0.69688700  0.93575500  1
  H  3020  1  0.40970200  0.66885700  0.91635200  1
  H  3027  1  0.83580900  0.19884600  0.62473300  1
  H  3028  1  0.83419100  0.23631000  0.62420500  1
  H  3035  1  0.89884800  0.16867700  0.63970400  1
  H  3036  1  0.89724700  0.13107200  0.63750000  1
  H  3037  1  0.84516400  0.13576800  0.58958200  1
  H  3038  1  0.90785460  0.23867000  0.60911400  1
  H  3039  1  0.84684700  0.17307600  0.59170900  1
  H  3040  1  0.90954460  0.20099500  0.60980600  1
  H  3047  1  0.83437100  0.19865700  0.40741900  1
  H  3048  1  0.83314500  0.23613300  0.40763700  1
  H  3055  1  0.89625300  0.16840500  0.38617800  1
  H  3056  1  0.89493700  0.13082100  0.38818400  1
  H  3057  1  0.84678600  0.13504400  0.43920800  1
  H  3058  1  0.90851660  0.23814600  0.41350200  1
  H  3059  1  0.84841100  0.17231900  0.43742700  1
  H  3060  1  0.90979760  0.20044100  0.41320600  1
  H  3067  1  0.33446300  0.67125300  0.12038700  1
  H  3068  1  0.33317800  0.63377800  0.12017400  1
  H  3075  1  0.39655300  0.70147400  0.14064500  1
  H  3076  1  0.39520300  0.73906400  0.13859400  1
  H  3077  1  0.34649100  0.73475700  0.08798700  1
  H  3078  1  0.40837700  0.63168600  0.11283000  1
  H  3079  1  0.34810500  0.69747400  0.08983900  1
  H  3080  1  0.40972200  0.66938700  0.11313600  1
  H  3087  1  0.84541600  0.19898900  0.12173400  1
  H  3088  1  0.84687600  0.23646300  0.12120600  1
  H  3095  1  0.78306600  0.16898900  0.14067200  1
  H  3096  1  0.78443200  0.13138600  0.13876200  1
  H  3097  1  0.83383400  0.13548400  0.08865500  1
  H  3098  1  0.77203900  0.23871200  0.11147000  1
  H  3099  1  0.83228900  0.17280200  0.09042600  1
  H  3100  1  0.77051300  0.20101700  0.11215100  1
  H  3107  1  0.34525800  0.67092200  0.40447400  1
  H  3108  1  0.34674200  0.63344800  0.40502400  1
  H  3115  1  0.28283200  0.70094400  0.38634200  1
  H  3116  1  0.28425700  0.73855000  0.38829000  1
  H  3117  1  0.33407600  0.73434700  0.43807200  1
  H  3118  1  0.27212700  0.63119300  0.41599700  1
  H  3119  1  0.33250100  0.69702300  0.43624200  1
  H  3120  1  0.27057300  0.66888400  0.41528800  1
  H  3127  1  0.09593400  0.57848300  0.99991700  1
  H  3128  1  0.09731300  0.57878500  0.96247200  1
  H  3135  1  0.03376300  0.55774600  0.02990500  1
  H  3136  1  0.03485700  0.55975200  0.06746800  1
  H  3137  1  0.08339600  0.61055700  0.06347000  1
  H  3138  1  0.02204400  0.58554000  0.96026600  1
  H  3139  1  0.08202900  0.60875600  0.02621900  1
  H  3140  1  0.02060800  0.58514400  0.99792200  1
  H  3147  1  0.59601400  0.29081700  0.52718200  1
  H  3148  1  0.59730400  0.29052600  0.56463200  1
  H  3155  1  0.53405600  0.31225600  0.49709200  1
  H  3156  1  0.53517100  0.31024300  0.45953500  1
  H  3157  1  0.58326800  0.25912000  0.46357600  1
  H  3158  1  0.52191300  0.28488400  0.56671700  1
  H  3159  1  0.58184600  0.26090600  0.50081600  1
  H  3160  1  0.52056600  0.28525000  0.52905900  1
  H  3167  1  0.58491200  0.57675300  0.52763200  1
  H  3168  1  0.58338400  0.57705500  0.56507500  1
  H  3175  1  0.64730400  0.55785800  0.49773800  1
  H  3176  1  0.64603400  0.55985500  0.46017200  1
  H  3177  1  0.59669800  0.61005800  0.46429100  1
  H  3178  1  0.65822300  0.58676900  0.56746300  1
  H  3179  1  0.59814300  0.60819600  0.50157300  1
  H  3180  1  0.65981400  0.58631700  0.52981200  1
  H  3187  1  0.08484100  0.29269600  0.99917200  1
  H  3188  1  0.08339400  0.29241000  0.96172500  1
  H  3195  1  0.14710000  0.31211900  0.02915700  1
  H  3196  1  0.14581300  0.31010800  0.06671700  1
  H  3197  1  0.09679000  0.25967400  0.06255400  1
  H  3198  1  0.15837600  0.28354800  0.95944200  1
  H  3199  1  0.09827800  0.26153300  0.02527900  1
  H  3200  1  0.15988600  0.28397300  0.99709400  1
  H  3207  1  0.70019400  0.05720300  0.61935200  1
  H  3208  1  0.65790300  0.05387100  0.61596400  1
  H  3215  1  0.73389000  0.01796500  0.66666667  1
  H  3216  1  0.77612500  0.02223400  0.67092600  1
  H  3217  1  0.77181900  0.08239800  0.64318600  1
  H  3218  1  0.65382200  0.02928300  0.67745100  1
  H  3219  1  0.72963100  0.07848800  0.63953800  1
  H  3220  1  0.69615600  0.03322700  0.68116800  1
  H  3227  1  0.20022800  0.81266300  0.90757600  1
  H  3228  1  0.15794100  0.81602500  0.91099200  1
  H  3235  1  0.23391700  0.85185400  0.86020200  1
  H  3236  1  0.27614900  0.84756800  0.85597200  1
  H  3237  1  0.27181200  0.78741800  0.88374400  1
  H  3238  1  0.15382200  0.84058400  0.84949500  1
  H  3239  1  0.22962300  0.79134900  0.88739000  1
  H  3240  1  0.19615100  0.83661100  0.84575000  1
  H  3247  1  0.45023000  0.79048000  0.64118600  1
  H  3248  1  0.40792800  0.78721500  0.64457000  1
  H  3255  1  0.48427200  0.83764600  0.68044500  1
  H  3256  1  0.52647800  0.84189700  0.67598800  1
  H  3257  1  0.52177400  0.81438300  0.61578500  1
  H  3258  1  0.40416200  0.84867400  0.66938800  1
  H  3259  1  0.47961500  0.81071800  0.61989000  1
  H  3260  1  0.44650200  0.85227000  0.66539400  1
  H  3267  1  0.95019060  0.07942800  0.88576500  1
  H  3268  1  0.90788260  0.08267100  0.88237500  1
  H  3275  1  0.98425660  0.03226400  0.84652900  1
  H  3276  1  0.02646400  0.02802900  0.85098800  1
  H  3277  1  0.02175400  0.05557600  0.91117500  1
  H  3278  1  0.90415860  0.02119600  0.85759300  1
  H  3279  1  0.97958960  0.05922600  0.90707000  1
  H  3280  1  0.94649960  0.01762200  0.86159400  1
  H  3287  1  0.48037800  0.81326400  0.40621000  1
  H  3288  1  0.52279600  0.81627800  0.40848100  1
  H  3295  1  0.44580700  0.85210400  0.35911800  1
  H  3296  1  0.40344400  0.84821200  0.35564600  1
  H  3297  1  0.40757400  0.78838000  0.38411500  1
  H  3298  1  0.52516800  0.83953600  0.34641000  1
  H  3299  1  0.44987500  0.79193100  0.38704800  1
  H  3300  1  0.48268600  0.83594700  0.34384300  1
  H  3307  1  0.98033860  0.05665600  0.12081400  1
  H  3308  1  0.02275700  0.05361100  0.11852500  1
  H  3315  1  0.94577060  0.01785100  0.16792300  1
  H  3316  1  0.90340460  0.02174300  0.17136700  1
  H  3317  1  0.90755160  0.08156300  0.14287400  1
  H  3318  1  0.02514200  0.03039000  0.18061000  1
  H  3319  1  0.94985760  0.07801200  0.13996600  1
  H  3320  1  0.98266260  0.03400900  0.18319300  1
  H  3327  1  0.73054100  0.07901700  0.38563200  1
  H  3328  1  0.77294700  0.08190400  0.38297000  1
  H  3335  1  0.69713400  0.03311100  0.34464800  1
  H  3336  1  0.65475100  0.02916500  0.34788800  1
  H  3337  1  0.65768300  0.05532000  0.40877800  1
  H  3338  1  0.77643700  0.02076300  0.35734600  1
  H  3339  1  0.70000400  0.05871100  0.40585700  1
  H  3340  1  0.73397900  0.01756000  0.36056800  1
  H  3347  1  0.23059000  0.79081500  0.14131000  1
  H  3348  1  0.27300100  0.78794200  0.14397500  1
  H  3355  1  0.19717400  0.83672900  0.18227700  1
  H  3356  1  0.15479100  0.84066400  0.17904200  1
  H  3357  1  0.15771200  0.81446800  0.11816900  1
  H  3358  1  0.27646600  0.84909600  0.16956800  1
  H  3359  1  0.20003900  0.81108800  0.12108500  1
  H  3360  1  0.23400800  0.85228600  0.16634200  1
  H  3367  1  0.19965500  0.55719400  0.11945900  1
  H  3368  1  0.15727100  0.55443200  0.11647500  1
  H  3375  1  0.23304100  0.51648400  0.16566900  1
  H  3376  1  0.27540800  0.51982900  0.16965000  1
  H  3377  1  0.27240100  0.58056700  0.14305100  1
  H  3378  1  0.15364000  0.52900600  0.17764300  1
  H  3379  1  0.23009200  0.57755500  0.13963800  1
  H  3380  1  0.19607600  0.53234800  0.18094900  1
  H  3387  1  0.69973900  0.31262600  0.40747700  1
  H  3388  1  0.65735500  0.31541600  0.41048700  1
  H  3395  1  0.73312000  0.35327800  0.36122000  1
  H  3396  1  0.77548400  0.34991300  0.35724500  1
  H  3397  1  0.77244500  0.28920100  0.38390200  1
  H  3398  1  0.65369100  0.34079700  0.34930300  1
  H  3399  1  0.73013400  0.29223300  0.38730800  1
  H  3400  1  0.69612200  0.33742600  0.34597000  1
  H  3407  1  0.94987160  0.29169400  0.14144500  1
  H  3408  1  0.90747660  0.28923600  0.14454500  1
  H  3415  1  0.98438760  0.33886900  0.18027000  1
  H  3416  1  0.02672200  0.34246100  0.17623900  1
  H  3417  1  0.02241100  0.31409600  0.11641300  1
  H  3418  1  0.90484760  0.35125400  0.16805500  1
  H  3419  1  0.98013760  0.31105100  0.12009800  1
  H  3420  1  0.94730560  0.35401600  0.16436900  1
  H  3427  1  0.44985000  0.57817700  0.38549800  1
  H  3428  1  0.40744800  0.58061800  0.38240100  1
  H  3435  1  0.48436500  0.53097600  0.34671200  1
  H  3436  1  0.52670100  0.52739800  0.35072800  1
  H  3437  1  0.52241900  0.55583200  0.41052500  1
  H  3438  1  0.40484300  0.51856900  0.35897100  1
  H  3439  1  0.48013900  0.55886500  0.40685300  1
  H  3440  1  0.44730400  0.51582600  0.36265200  1
  H  3447  1  0.98082560  0.31316900  0.90647700  1
  H  3448  1  0.02329100  0.31574400  0.90866300  1
  H  3455  1  0.94676960  0.35351200  0.86047700  1
  H  3456  1  0.90432460  0.35034200  0.85703600  1
  H  3457  1  0.90739560  0.28975700  0.88398200  1
  H  3458  1  0.02568500  0.34009800  0.84701100  1
  H  3459  1  0.94976360  0.29261900  0.88691000  1
  H  3460  1  0.98315160  0.33699400  0.84454000  1
  H  3467  1  0.48075200  0.55679000  0.62052600  1
  H  3468  1  0.52321600  0.55418400  0.61830100  1
  H  3475  1  0.44672000  0.51650700  0.66658200  1
  H  3476  1  0.40427700  0.51968800  0.67001700  1
  H  3477  1  0.40736500  0.58024800  0.64301700  1
  H  3478  1  0.52566600  0.52988000  0.67997000  1
  H  3479  1  0.44973700  0.57737500  0.64009300  1
  H  3480  1  0.48313700  0.53301500  0.68248100  1
  H  3487  1  0.23060100  0.57810000  0.88497000  1
  H  3488  1  0.27305800  0.58033600  0.88241500  1
  H  3495  1  0.19660200  0.53174200  0.84501900  1
  H  3496  1  0.15415900  0.52832300  0.84824000  1
  H  3497  1  0.15729100  0.55567200  0.90859700  1
  H  3498  1  0.27560800  0.51846800  0.85849800  1
  H  3499  1  0.19965500  0.55858100  0.90568700  1
  H  3500  1  0.23306800  0.51594800  0.86158900  1
  H  3507  1  0.73060200  0.29178100  0.64200400  1
  H  3508  1  0.77306700  0.28955800  0.64457300  1
  H  3515  1  0.69659300  0.33818000  0.68189500  1
  H  3516  1  0.65415100  0.34159100  0.67867100  1
  H  3517  1  0.65727800  0.31415500  0.61835300  1
  H  3518  1  0.77558800  0.35145800  0.66840300  1
  H  3519  1  0.69965000  0.31125100  0.62126500  1
  H  3520  1  0.73305000  0.35396500  0.66529900  1
  H  3527  1  0.56727900  0.92040410  0.60652000  1
  H  3528  1  0.56712900  0.88312400  0.60608600  1
  H  3535  1  0.58767300  0.94893910  0.66730900  1
  H  3536  1  0.58808900  0.98622910  0.66947100  1
  H  3537  1  0.58933700  0.99029609  0.60358500  1
  H  3538  1  0.61215000  0.88200900  0.65903400  1
  H  3539  1  0.58968200  0.95296410  0.60127300  1
  H  3540  1  0.61320000  0.91946210  0.65906700  1
  H  3547  1  0.06722700  0.94949010  0.92048000  1
  H  3548  1  0.06703600  0.98678110  0.92090700  1
  H  3555  1  0.08776700  0.92095610  0.85972200  1
  H  3556  1  0.08817900  0.88367200  0.85757500  1
  H  3557  1  0.08928700  0.87962400  0.92346100  1
  H  3558  1  0.11216200  0.98792210  0.86802000  1
  H  3559  1  0.08962900  0.91696310  0.92576100  1
  H  3560  1  0.11324500  0.95046710  0.86799500  1
  H  3567  1  0.31764900  0.77793600  0.77795900  1
  H  3568  1  0.31751600  0.77761600  0.81520900  1
  H  3575  1  0.33730200  0.83889000  0.74929500  1
  H  3576  1  0.33769200  0.84097800  0.71203100  1
  H  3577  1  0.33973200  0.77503800  0.70811500  1
  H  3578  1  0.36194500  0.83100700  0.81613900  1
  H  3579  1  0.34010800  0.77280700  0.74541800  1
  H  3580  1  0.36298000  0.83092800  0.77872000  1
  H  3587  1  0.81758000  0.09193100  0.74898000  1
  H  3588  1  0.81744400  0.09223700  0.71172400  1
  H  3595  1  0.83733900  0.03100200  0.77768300  1
  H  3596  1  0.83772900  0.02894200  0.81494200  1
  H  3597  1  0.83961800  0.09489200  0.81881100  1
  H  3598  1  0.86190900  0.03887800  0.71080600  1
  H  3599  1  0.83999100  0.09709400  0.78149700  1
  H  3600  1  0.86295100  0.03896500  0.74822100  1
  H  3607  1  0.61391100  0.94921510  0.41531800  1
  H  3608  1  0.61435500  0.98648110  0.41584500  1
  H  3615  1  0.59102200  0.92091410  0.35511900  1
  H  3616  1  0.59036600  0.88362000  0.35297300  1
  H  3617  1  0.59159700  0.87956800  0.41887900  1
  H  3618  1  0.56741500  0.98801810  0.36417300  1
  H  3619  1  0.59145700  0.91689410  0.42118700  1
  H  3620  1  0.56605800  0.95055910  0.36410100  1
  H  3627  1  0.11402000  0.92068010  0.11167400  1
  H  3628  1  0.11452400  0.88340700  0.11113600  1
  H  3635  1  0.09083600  0.94893810  0.17180900  1
  H  3636  1  0.09017700  0.98622510  0.17395800  1
  H  3637  1  0.09169900  0.99029709  0.10806400  1
  H  3638  1  0.06735300  0.88179900  0.16265300  1
  H  3639  1  0.09157200  0.95296410  0.10574400  1
  H  3640  1  0.06594400  0.91926010  0.16273100  1
  H  3647  1  0.86259600  0.09142900  0.24891400  1
  H  3648  1  0.86254800  0.09169900  0.21165500  1
  H  3655  1  0.84261000  0.03063800  0.27761700  1
  H  3656  1  0.84246400  0.02849300  0.31487300  1
  H  3657  1  0.84088600  0.09443800  0.31890900  1
  H  3658  1  0.81750300  0.03870100  0.21097000  1
  H  3659  1  0.84030000  0.09672900  0.28160400  1
  H  3660  1  0.81667200  0.03883000  0.24839200  1
  H  3667  1  0.36270400  0.77844800  0.27803400  1
  H  3668  1  0.36266900  0.77818900  0.31530000  1
  H  3675  1  0.34261100  0.83921200  0.24930200  1
  H  3676  1  0.34246200  0.84133000  0.21205300  1
  H  3677  1  0.34101200  0.77538600  0.20805800  1
  H  3678  1  0.31757900  0.83114700  0.31598700  1
  H  3679  1  0.34043300  0.77311800  0.24537100  1
  H  3680  1  0.31673300  0.83101700  0.27856900  1
  H  3687  1  0.06759500  0.42028800  0.10669700  1
  H  3688  1  0.06758900  0.38300300  0.10633400  1
  H  3695  1  0.08766100  0.44893000  0.16751800  1
  H  3696  1  0.08786400  0.48621600  0.16970600  1
  H  3697  1  0.08928400  0.49033400  0.10382900  1
  H  3698  1  0.11248800  0.38212700  0.15935900  1
  H  3699  1  0.08982100  0.45299900  0.10149500  1
  H  3700  1  0.11337700  0.41957700  0.15933400  1
  H  3707  1  0.56754000  0.44953800  0.42026800  1
  H  3708  1  0.56748500  0.48683400  0.42062400  1
  H  3715  1  0.58779700  0.42089900  0.35948800  1
  H  3716  1  0.58800600  0.38362000  0.35731900  1
  H  3717  1  0.58924500  0.37952500  0.42319500  1
  H  3718  1  0.61252100  0.48774600  0.36768200  1
  H  3719  1  0.58976800  0.41686700  0.42551800  1
  H  3720  1  0.61345400  0.45029300  0.36771700  1
  H  3727  1  0.81619900  0.28204200  0.27762700  1
  H  3728  1  0.81575300  0.28159300  0.31486800  1
  H  3735  1  0.83912900  0.34226300  0.24919300  1
  H  3736  1  0.83979900  0.34437600  0.21194000  1
  H  3737  1  0.83845100  0.27842400  0.20793800  1
  H  3738  1  0.86268200  0.33333333  0.31628600  1
  H  3739  1  0.83853700  0.27614400  0.24523900  1
  H  3740  1  0.86400200  0.33333333  0.27886600  1
  H  3747  1  0.31606000  0.58771900  0.24934700  1
  H  3748  1  0.31559100  0.58816200  0.21210200  1
  H  3755  1  0.33918400  0.52754900  0.27779600  1
  H  3756  1  0.33986200  0.52546100  0.31504300  1
  H  3757  1  0.33830400  0.59140700  0.31901200  1
  H  3758  1  0.36263300  0.53653200  0.21066200  1
  H  3759  1  0.33837800  0.59366800  0.28170300  1
  H  3760  1  0.36397900  0.53651800  0.24808100  1
  H  3767  1  0.11368200  0.44935100  0.91635700  1
  H  3768  1  0.11396800  0.48663300  0.91677000  1
  H  3775  1  0.09138000  0.42102100  0.85611900  1
  H  3776  1  0.09096700  0.38373300  0.85388600  1
  H  3777  1  0.09154500  0.37953300  0.91979300  1
  H  3778  1  0.06705600  0.48784700  0.86506700  1
  H  3779  1  0.09120100  0.41686900  0.92218300  1
  H  3780  1  0.06588800  0.45038800  0.86509000  1
  H  3787  1  0.61373700  0.42059600  0.61056700  1
  H  3788  1  0.61406800  0.38330200  0.61015400  1
  H  3795  1  0.59124000  0.44890600  0.67076000  1
  H  3796  1  0.59082800  0.48618900  0.67298900  1
  H  3797  1  0.59159300  0.49038700  0.60708600  1
  H  3798  1  0.56700200  0.38204800  0.66175500  1
  H  3799  1  0.59125600  0.45304500  0.60469600  1
  H  3800  1  0.56579600  0.41950800  0.66173000  1
  H  3807  1  0.36376800  0.58764800  0.74922400  1
  H  3808  1  0.36394200  0.58811600  0.71198300  1
  H  3815  1  0.34139000  0.52730500  0.77778600  1
  H  3816  1  0.34091300  0.52520300  0.81504200  1
  H  3817  1  0.34193200  0.59115900  0.81901700  1
  H  3818  1  0.31738700  0.53613600  0.71080000  1
  H  3819  1  0.34164800  0.59342600  0.78172200  1
  H  3820  1  0.31632200  0.53610600  0.74822800  1
  H  3827  1  0.86392200  0.28236400  0.77774100  1
  H  3828  1  0.86412600  0.28190100  0.81498600  1
  H  3835  1  0.84127500  0.34263800  0.74917000  1
  H  3836  1  0.84078600  0.34471700  0.71192100  1
  H  3837  1  0.84208600  0.27876800  0.70797700  1
  H  3838  1  0.81739600  0.33374900  0.81619800  1
  H  3839  1  0.84182100  0.27651600  0.74527800  1
  H  3840  1  0.81629600  0.33377900  0.77877500  1
  C  1  1  0.01766100  0.11486400  0.63230300  1
  C  2  1  0.04191000  0.11800400  0.63783000  1
  C  3  1  0.05685400  0.10125300  0.64381500  1
  C  4  1  0.04748100  0.08076400  0.64426800  1
  C  5  1  0.02365800  0.07656800  0.63817200  1
  C  6  1  0.00889000  0.09374700  0.63199200  1
  C  9  1  0.00514000  0.13260800  0.62358700  1
  C  10  1  0.00475100  0.15282700  0.63338300  1
  C  11  1  0.99688100  0.17098100  0.62231900  1
  C  12  1  0.99007900  0.16873300  0.60113900  1
  C  13  1  0.99099900  0.14916100  0.59084900  1
  C  14  1  0.99823200  0.13127900  0.60227100  1
  C  21  1  0.51769300  0.88062100  0.89465300  1
  C  22  1  0.54194100  0.87747900  0.88910700  1
  C  23  1  0.55688100  0.89424200  0.88315000  1
  C  24  1  0.54751600  0.91473300  0.88272800  1
  C  25  1  0.52369800  0.91892400  0.88884000  1
  C  26  1  0.50893500  0.90174000  0.89501900  1
  C  29  1  0.50525300  0.86287200  0.90345300  1
  C  30  1  0.50481300  0.84266700  0.89362300  1
  C  31  1  0.49697500  0.82451200  0.90470800  1
  C  32  1  0.49012000  0.82676000  0.92587400  1
  C  33  1  0.49106700  0.84632700  0.93616900  1
  C  34  1  0.49834300  0.86420500  0.92476300  1
  C  41  1  0.76775500  0.86681200  0.64632300  1
  C  42  1  0.79206900  0.87216900  0.64326900  1
  C  43  1  0.80702100  0.87796200  0.66006600  1
  C  44  1  0.79759700  0.87838800  0.68051700  1
  C  45  1  0.77370200  0.87244200  0.68462100  1
  C  46  1  0.75891700  0.86645800  0.66739900  1
  C  49  1  0.75520500  0.85828100  0.62852300  1
  C  50  1  0.75498500  0.86821000  0.60838000  1
  C  51  1  0.74720100  0.85726500  0.59013600  1
  C  52  1  0.74023000  0.83609200  0.59223700  1
  C  53  1  0.74095800  0.82566900  0.61173400  1
  C  54  1  0.74816400  0.83697100  0.62969400  1
  C  61  1  0.26772700  0.12860700  0.88063700  1
  C  62  1  0.29204500  0.12324800  0.88369300  1
  C  63  1  0.30699900  0.11749200  0.86688400  1
  C  64  1  0.29758200  0.11709200  0.84643100  1
  C  65  1  0.27368700  0.12303600  0.84233200  1
  C  66  1  0.25890400  0.12901100  0.85955900  1
  C  69  1  0.25526400  0.13724000  0.89844300  1
  C  70  1  0.25501900  0.12730400  0.91858400  1
  C  71  1  0.24732200  0.13830500  0.93682700  1
  C  72  1  0.24030600  0.15946400  0.93470600  1
  C  73  1  0.24100600  0.16985100  0.91519200  1
  C  74  1  0.24821600  0.15854100  0.89724200  1
  C  81  1  0.52194600  0.11409500  0.89607300  1
  C  82  1  0.49785400  0.11756300  0.89017600  1
  C  83  1  0.48247400  0.10097400  0.88463400  1
  C  84  1  0.49108400  0.08024800  0.88541500  1
  C  85  1  0.51458300  0.07571400  0.89218100  1
  C  86  1  0.53000500  0.09279100  0.89744900  1
  C  89  1  0.53472100  0.13187900  0.90450700  1
  C  90  1  0.53536100  0.15198400  0.89446500  1
  C  91  1  0.54329300  0.17024000  0.90534500  1
  C  92  1  0.55003500  0.16822300  0.92656500  1
  C  93  1  0.54894500  0.14879000  0.93708300  1
  C  94  1  0.54146700  0.13085100  0.92588500  1
  C  101  1  0.02196000  0.88140300  0.63092900  1
  C  102  1  0.99786100  0.87794400  0.63682100  1
  C  103  1  0.98249200  0.89455300  0.64233800  1
  C  104  1  0.99112300  0.91527200  0.64156400  1
  C  105  1  0.01462500  0.91978900  0.63480100  1
  C  106  1  0.03002200  0.90270000  0.62951400  1
  C  109  1  0.03463500  0.86360300  0.62240500  1
  C  110  1  0.03533700  0.84352200  0.63249200  1
  C  111  1  0.04324300  0.82526300  0.62160100  1
  C  112  1  0.05004400  0.82727200  0.60039500  1
  C  113  1  0.04890300  0.84669200  0.58985500  1
  C  114  1  0.04137500  0.86462900  0.60103000  1
  C  121  1  0.77189800  0.86575100  0.87957500  1
  C  122  1  0.74774700  0.87151600  0.88294600  1
  C  123  1  0.73237700  0.87687900  0.86630200  1
  C  124  1  0.74107300  0.87606400  0.84562400  1
  C  125  1  0.76464600  0.86942100  0.84119200  1
  C  126  1  0.78004100  0.86430900  0.85832000  1
  C  129  1  0.78467100  0.85748200  0.89742200  1
  C  130  1  0.78517500  0.86767000  0.91743900  1
  C  131  1  0.79298400  0.85690500  0.93579300  1
  C  132  1  0.79984200  0.83567800  0.93393300  1
  C  133  1  0.79889700  0.82501000  0.91458500  1
  C  134  1  0.79148300  0.83609200  0.89656100  1
  C  141  1  0.27190100  0.12962800  0.64736000  1
  C  142  1  0.24774800  0.12385700  0.64397500  1
  C  143  1  0.23236800  0.11851800  0.66062000  1
  C  144  1  0.24104600  0.11934700  0.68130000  1
  C  145  1  0.26461100  0.12599800  0.68573900  1
  C  146  1  0.28001300  0.13111600  0.66861700  1
  C  149  1  0.28458000  0.13801100  0.62950600  1
  C  150  1  0.28510400  0.12782900  0.60948300  1
  C  151  1  0.29280400  0.13866400  0.59113200  1
  C  152  1  0.29970400  0.15987700  0.59302200  1
  C  153  1  0.29882800  0.17048500  0.61240200  1
  C  154  1  0.29142000  0.15938700  0.63041300  1
  C  161  1  0.02195700  0.88077400  0.39137700  1
  C  162  1  0.99771700  0.87733600  0.38600300  1
  C  163  1  0.98261600  0.89384100  0.37963900  1
  C  164  1  0.99184700  0.91436600  0.37858600  1
  C  165  1  0.01567500  0.91885100  0.38445100  1
  C  166  1  0.03059500  0.90193000  0.39099900  1
  C  169  1  0.03445000  0.86358900  0.40113300  1
  C  170  1  0.03503800  0.84278600  0.39265700  1
  C  171  1  0.04272300  0.82536200  0.40497700  1
  C  172  1  0.04966400  0.82903500  0.42596000  1
  C  173  1  0.04882600  0.84929800  0.43477000  1
  C  174  1  0.04112100  0.86628500  0.42235100  1
  C  181  1  0.52191600  0.11469300  0.13563600  1
  C  182  1  0.49767900  0.11814600  0.14102800  1
  C  183  1  0.48257600  0.10163000  0.14736600  1
  C  184  1  0.49179300  0.08110200  0.14839700  1
  C  185  1  0.51561400  0.07661300  0.14252000  1
  C  186  1  0.53053600  0.09353200  0.13597000  1
  C  189  1  0.53431500  0.13187600  0.12577200  1
  C  190  1  0.53495200  0.15267600  0.13425400  1
  C  191  1  0.54260600  0.17008200  0.12189300  1
  C  192  1  0.54959500  0.16638300  0.10092500  1
  C  193  1  0.54874800  0.14611100  0.09213100  1
  C  194  1  0.54101700  0.12914400  0.10457100  1
  C  201  1  0.27254200  0.12824600  0.38063800  1
  C  202  1  0.24831800  0.12269700  0.38386400  1
  C  203  1  0.23328500  0.11682800  0.36714300  1
  C  204  1  0.24257700  0.11648600  0.34663500  1
  C  205  1  0.26638800  0.12258200  0.34238300  1
  C  206  1  0.28122400  0.12869200  0.35951800  1
  C  209  1  0.28506700  0.13706500  0.39828300  1
  C  210  1  0.28632400  0.12701700  0.41833400  1
  C  211  1  0.29471500  0.13790100  0.43643900  1
  C  212  1  0.30071200  0.15932800  0.43420400  1
  C  213  1  0.29876700  0.16991700  0.41486500  1
  C  214  1  0.29125900  0.15855700  0.39705700  1
  C  221  1  0.77258600  0.86725700  0.14628700  1
  C  222  1  0.74835800  0.87280800  0.14306200  1
  C  223  1  0.73332300  0.87862900  0.15980100  1
  C  224  1  0.74261300  0.87895100  0.18030700  1
  C  225  1  0.76642800  0.87286200  0.18455200  1
  C  226  1  0.78126000  0.86676500  0.16740700  1
  C  229  1  0.78501700  0.85834400  0.12863400  1
  C  230  1  0.78631300  0.86840000  0.10858600  1
  C  231  1  0.79464700  0.85747900  0.09047900  1
  C  232  1  0.80066200  0.83605900  0.09273500  1
  C  233  1  0.79873900  0.82550000  0.11209100  1
  C  234  1  0.79122400  0.83686300  0.12989000  1
  C  241  1  0.51764900  0.88158300  0.13424800  1
  C  242  1  0.54173700  0.87776200  0.13993500  1
  C  243  1  0.55733600  0.89409100  0.14578400  1
  C  244  1  0.54893000  0.91490000  0.14555200  1
  C  245  1  0.52542700  0.91978500  0.13905500  1
  C  246  1  0.50977000  0.90297100  0.13353100  1
  C  249  1  0.50487000  0.86432200  0.12483400  1
  C  250  1  0.50397300  0.84366600  0.13366300  1
  C  251  1  0.49628600  0.82606700  0.12158400  1
  C  252  1  0.48954500  0.82940000  0.10049300  1
  C  253  1  0.49070600  0.84947700  0.09131200  1
  C  254  1  0.49852000  0.86660200  0.10348400  1
  C  261  1  0.01762700  0.11387200  0.39267600  1
  C  262  1  0.04171900  0.11767900  0.38698400  1
  C  263  1  0.05730000  0.10132700  0.38115700  1
  C  264  1  0.04887100  0.08052700  0.38138100  1
  C  265  1  0.02536200  0.07566500  0.38787800  1
  C  266  1  0.00973700  0.09249100  0.39343000  1
  C  269  1  0.00497400  0.13114800  0.40220600  1
  C  270  1  0.00403300  0.15179400  0.39335300  1
  C  271  1  0.99640500  0.16938800  0.40547300  1
  C  272  1  0.98962300  0.16604400  0.42655200  1
  C  273  1  0.99078000  0.14596000  0.43572100  1
  C  274  1  0.99860400  0.12884300  0.42354200  1
  C  281  1  0.26712200  0.12920400  0.14742600  1
  C  282  1  0.29117600  0.12320700  0.14395200  1
  C  283  1  0.30658200  0.11779100  0.16055900  1
  C  284  1  0.29798500  0.11874700  0.18127100  1
  C  285  1  0.27450700  0.12557800  0.18578300  1
  C  286  1  0.25909600  0.13078000  0.16870100  1
  C  289  1  0.25444900  0.13776000  0.12968500  1
  C  290  1  0.25306800  0.12749100  0.10974200  1
  C  291  1  0.24481000  0.13823000  0.09148900  1
  C  292  1  0.23890200  0.15970000  0.09346400  1
  C  293  1  0.24082200  0.17046300  0.11269700  1
  C  294  1  0.24841300  0.15931000  0.13059500  1
  C  301  1  0.76714800  0.86634800  0.37953400  1
  C  302  1  0.79119800  0.87235800  0.38303000  1
  C  303  1  0.80662000  0.87774200  0.36642300  1
  C  304  1  0.79805200  0.87676600  0.34570500  1
  C  305  1  0.77458100  0.86992300  0.34118100  1
  C  306  1  0.75915900  0.86471400  0.35825200  1
  C  309  1  0.75456400  0.85768900  0.39728100  1
  C  310  1  0.75312300  0.86796900  0.41721800  1
  C  311  1  0.74491100  0.85719600  0.43546800  1
  C  312  1  0.73897400  0.83573300  0.43346900  1
  C  313  1  0.74088700  0.82499600  0.41422200  1
  C  314  1  0.74851000  0.83615000  0.39633800  1
  C  321  1  0.51716700  0.61492000  0.13280200  1
  C  322  1  0.54137000  0.61817100  0.13840700  1
  C  323  1  0.55641400  0.60145000  0.14429800  1
  C  324  1  0.54716100  0.58090900  0.14461100  1
  C  325  1  0.52337500  0.57661700  0.13846800  1
  C  326  1  0.50852900  0.59376200  0.13234200  1
  C  329  1  0.50460300  0.63258900  0.12401600  1
  C  330  1  0.50345000  0.65269700  0.13399800  1
  C  331  1  0.49488000  0.67077100  0.12315100  1
  C  332  1  0.48866300  0.66849500  0.10180500  1
  C  333  1  0.49062000  0.64912700  0.09124900  1
  C  334  1  0.49823400  0.63132400  0.10258500  1
  C  341  1  0.01724500  0.38050200  0.39413900  1
  C  342  1  0.04145000  0.37725200  0.38852200  1
  C  343  1  0.05648900  0.39398900  0.38266600  1
  C  344  1  0.04723600  0.41452800  0.38237700  1
  C  345  1  0.02345400  0.41881100  0.38852700  1
  C  346  1  0.00861600  0.40166000  0.39464900  1
  C  349  1  0.00477100  0.36282300  0.40300900  1
  C  350  1  0.00356600  0.34272900  0.39300000  1
  C  351  1  0.99504500  0.32465200  0.40387200  1
  C  352  1  0.98877500  0.32693600  0.42520400  1
  C  353  1  0.99075000  0.34630300  0.43576500  1
  C  354  1  0.99840000  0.36409800  0.42443700  1
  C  361  1  0.26778800  0.36900200  0.14623100  1
  C  362  1  0.29201500  0.37446700  0.14286800  1
  C  363  1  0.30707800  0.38073400  0.15942500  1
  C  364  1  0.29782900  0.38162000  0.17993300  1
  C  365  1  0.27400900  0.37568100  0.18437000  1
  C  366  1  0.25913900  0.36920900  0.16738300  1
  C  369  1  0.25536400  0.35932800  0.12894300  1
  C  370  1  0.25483200  0.36787300  0.10816700  1
  C  371  1  0.24705200  0.35565100  0.09070200  1
  C  372  1  0.24012500  0.33463500  0.09428000  1
  C  373  1  0.24097200  0.32574300  0.11448600  1
  C  374  1  0.24867600  0.33808200  0.13152200  1
  C  381  1  0.76777100  0.62638000  0.38075100  1
  C  382  1  0.79200300  0.62091800  0.38411700  1
  C  383  1  0.80706400  0.61468300  0.36754600  1
  C  384  1  0.79781500  0.61380200  0.34704100  1
  C  385  1  0.77399300  0.61973000  0.34260800  1
  C  386  1  0.75912700  0.62619800  0.35959800  1
  C  389  1  0.75544700  0.63617000  0.39803500  1
  C  390  1  0.75488100  0.62763400  0.41881600  1
  C  391  1  0.74715400  0.63991400  0.43626200  1
  C  392  1  0.74016000  0.66090700  0.43264400  1
  C  393  1  0.74099800  0.66974900  0.41241500  1
  C  394  1  0.74871800  0.65739400  0.39540000  1
  C  401  1  0.02245100  0.61406900  0.39542200  1
  C  402  1  0.99839100  0.61754900  0.38944500  1
  C  403  1  0.98298000  0.60093300  0.38402700  1
  C  404  1  0.99156200  0.58019800  0.38497500  1
  C  405  1  0.01504300  0.57566500  0.39178000  1
  C  406  1  0.03046800  0.59276200  0.39696600  1
  C  409  1  0.03517900  0.63184200  0.40391100  1
  C  410  1  0.03640200  0.65184400  0.39370500  1
  C  411  1  0.04487600  0.67006600  0.40438300  1
  C  412  1  0.05109800  0.66805100  0.42575300  1
  C  413  1  0.04921500  0.64878900  0.43649300  1
  C  414  1  0.04147500  0.63089700  0.42538300  1
  C  421  1  0.52244600  0.38136500  0.13154400  1
  C  422  1  0.49837900  0.37790000  0.13752100  1
  C  423  1  0.48298800  0.39453800  0.14291800  1
  C  424  1  0.49159400  0.41526500  0.14198700  1
  C  425  1  0.51508100  0.41977500  0.13517900  1
  C  426  1  0.53047500  0.40266400  0.12996700  1
  C  429  1  0.53506000  0.36357300  0.12295800  1
  C  430  1  0.53632600  0.34358300  0.13318600  1
  C  431  1  0.54473100  0.32535500  0.12247600  1
  C  432  1  0.55100200  0.32738200  0.10111800  1
  C  433  1  0.54911800  0.34664600  0.09038200  1
  C  434  1  0.54136100  0.36453300  0.10149000  1
  C  441  1  0.27206600  0.36796600  0.37946000  1
  C  442  1  0.24801300  0.37376100  0.38324300  1
  C  443  1  0.23241300  0.37945000  0.36686500  1
  C  444  1  0.24080400  0.37900200  0.34606700  1
  C  445  1  0.26429400  0.37244000  0.34121700  1
  C  446  1  0.27991500  0.36700200  0.35808300  1
  C  449  1  0.28481100  0.35864700  0.39678200  1
  C  450  1  0.28632500  0.36781400  0.41725800  1
  C  451  1  0.29492400  0.35617900  0.43486900  1
  C  452  1  0.30126200  0.33492700  0.43168700  1
  C  453  1  0.29915600  0.32534100  0.41188300  1
  C  454  1  0.29082000  0.33719100  0.39475600  1
  C  461  1  0.77201300  0.62736300  0.14749800  1
  C  462  1  0.74796200  0.62156000  0.14369300  1
  C  463  1  0.73234700  0.61589600  0.16007300  1
  C  464  1  0.74071700  0.61635000  0.18087400  1
  C  465  1  0.76420200  0.62292200  0.18573400  1
  C  466  1  0.77983100  0.62836900  0.16888000  1
  C  469  1  0.78465000  0.63680600  0.13017600  1
  C  470  1  0.78624000  0.62763600  0.10970100  1
  C  471  1  0.79478700  0.63932400  0.09210600  1
  C  472  1  0.80116700  0.66056400  0.09532800  1
  C  473  1  0.79903500  0.67011200  0.11514700  1
  C  474  1  0.79067400  0.65824600  0.13225300  1
  C  481  1  0.52245300  0.38081700  0.89188400  1
  C  482  1  0.49827500  0.37729600  0.88637500  1
  C  483  1  0.48313100  0.39380200  0.88008000  1
  C  484  1  0.49228300  0.41437000  0.87923100  1
  C  485  1  0.51605300  0.41889900  0.88524100  1
  C  486  1  0.53100000  0.40199400  0.89175200  1
  C  489  1  0.53493100  0.36368000  0.90166400  1
  C  490  1  0.53660500  0.34311400  0.89275000  1
  C  491  1  0.54513600  0.32567800  0.90466700  1
  C  492  1  0.55119200  0.32918900  0.92592400  1
  C  493  1  0.54901100  0.34914900  0.93521300  1
  C  494  1  0.54081000  0.36612900  0.92307100  1
  C  501  1  0.02238800  0.61471700  0.63508000  1
  C  502  1  0.99821400  0.61824300  0.64061100  1
  C  503  1  0.98307300  0.60172000  0.64687200  1
  C  504  1  0.99222100  0.58115200  0.64769400  1
  C  505  1  0.01598500  0.57662900  0.64166800  1
  C  506  1  0.03092600  0.59353900  0.63515700  1
  C  509  1  0.03475800  0.63186200  0.62519900  1
  C  510  1  0.03649900  0.65242000  0.63412800  1
  C  511  1  0.04497200  0.66985100  0.62217300  1
  C  512  1  0.05104800  0.66631900  0.60092200  1
  C  513  1  0.04885500  0.64635300  0.59164600  1
  C  514  1  0.04064100  0.62938700  0.60380200  1
  C  521  1  0.77221500  0.62630900  0.88072400  1
  C  522  1  0.74799600  0.62079400  0.88405600  1
  C  523  1  0.73299000  0.61444200  0.86749200  1
  C  524  1  0.74230100  0.61352400  0.84700600  1
  C  525  1  0.76611200  0.61949600  0.84259600  1
  C  526  1  0.78092000  0.62605200  0.85959000  1
  C  529  1  0.78455700  0.63607800  0.89800600  1
  C  530  1  0.78503700  0.62760800  0.91881200  1
  C  531  1  0.79270300  0.63992100  0.93625000  1
  C  532  1  0.79962900  0.66092800  0.93261100  1
  C  533  1  0.79884100  0.66975600  0.91236800  1
  C  534  1  0.79122200  0.65732300  0.89536500  1
  C  541  1  0.27221500  0.36925500  0.64623700  1
  C  542  1  0.24799000  0.37476100  0.64289800  1
  C  543  1  0.23297900  0.38107800  0.65947500  1
  C  544  1  0.24228500  0.38199500  0.67995900  1
  C  545  1  0.26609900  0.37603500  0.68437000  1
  C  546  1  0.28091000  0.36948700  0.66737400  1
  C  549  1  0.28446300  0.35937400  0.62896200  1
  C  550  1  0.28497900  0.36783600  0.60815100  1
  C  551  1  0.29259500  0.35547400  0.59072700  1
  C  552  1  0.29957700  0.33448600  0.59441000  1
  C  553  1  0.29879400  0.32569700  0.61467100  1
  C  554  1  0.29116900  0.33815200  0.63165500  1
  C  561  1  0.01722600  0.38167600  0.63386000  1
  C  562  1  0.04122500  0.37786700  0.63980500  1
  C  563  1  0.05678800  0.39425700  0.64557300  1
  C  564  1  0.04839800  0.41507100  0.64503200  1
  C  565  1  0.02497000  0.41990100  0.63829400  1
  C  566  1  0.00937500  0.40304700  0.63279300  1
  C  569  1  0.00457200  0.36439600  0.62443000  1
  C  570  1  0.00268300  0.34400400  0.63373100  1
  C  571  1  0.99429300  0.32633500  0.62207100  1
  C  572  1  0.98844300  0.32941600  0.60070700  1
  C  573  1  0.99080400  0.34917400  0.59105200  1
  C  574  1  0.99904100  0.36634300  0.60289200  1
  C  581  1  0.51724800  0.61384400  0.89304700  1
  C  582  1  0.54125400  0.61764000  0.88710100  1
  C  583  1  0.55679700  0.60122500  0.88135400  1
  C  584  1  0.54838100  0.58042100  0.88187700  1
  C  585  1  0.52494800  0.57561500  0.88861200  1
  C  586  1  0.50938500  0.59248100  0.89414300  1
  C  589  1  0.50473100  0.63114000  0.90259500  1
  C  590  1  0.50278200  0.65152400  0.89328500  1
  C  591  1  0.49445700  0.66918900  0.90499200  1
  C  592  1  0.48858400  0.66607600  0.92634900  1
  C  593  1  0.49095300  0.64630900  0.93598500  1
  C  594  1  0.49919500  0.62915600  0.92412300  1
  C  601  1  0.76732300  0.62742700  0.64752800  1
  C  602  1  0.79134200  0.62151500  0.64374500  1
  C  603  1  0.80688300  0.61566500  0.66010800  1
  C  604  1  0.79846000  0.61606700  0.68089900  1
  C  605  1  0.77501400  0.62273900  0.68575500  1
  C  606  1  0.75945600  0.62834300  0.66890100  1
  C  609  1  0.75466800  0.63689100  0.63022900  1
  C  610  1  0.75315300  0.62783200  0.60970700  1
  C  611  1  0.74463300  0.63958600  0.59215100  1
  C  612  1  0.73832300  0.66083200  0.59544300  1
  C  613  1  0.74045700  0.67035100  0.61528800  1
  C  614  1  0.74870500  0.65834700  0.63235600  1
  C  621  1  0.26736000  0.36819200  0.87946000  1
  C  622  1  0.29137300  0.37411800  0.88326800  1
  C  623  1  0.30693100  0.37994100  0.86690300  1
  C  624  1  0.29853400  0.37952700  0.84610800  1
  C  625  1  0.27509800  0.37283900  0.84123900  1
  C  626  1  0.25952800  0.36723000  0.85808100  1
  C  629  1  0.25480700  0.35861100  0.89675800  1
  C  630  1  0.25321200  0.36767900  0.91727300  1
  C  631  1  0.24472600  0.35588500  0.93481800  1
  C  632  1  0.23839400  0.33464900  0.93149300  1
  C  633  1  0.24056400  0.32515600  0.91163800  1
  C  634  1  0.24883200  0.33716900  0.89458700  1
  C  641  1  0.99426200  0.30504000  0.62958900  1
  C  642  1  0.97365600  0.29228100  0.62734900  1
  C  643  1  0.97472300  0.27030300  0.62993900  1
  C  644  1  0.99647600  0.25985300  0.63477100  1
  C  645  1  0.01689800  0.27281400  0.63769000  1
  C  646  1  0.01588400  0.29482900  0.63506300  1
  C  649  1  0.99797900  0.23715200  0.63479800  1
  C  650  1  0.97879200  0.22427600  0.64177800  1
  C  651  1  0.97909500  0.20223200  0.63927000  1
  C  652  1  0.99889600  0.19199500  0.63003300  1
  C  653  1  0.01841800  0.20459000  0.62357700  1
  C  654  1  0.01799400  0.22660500  0.62599900  1
  C  661  1  0.49438700  0.69048500  0.89746300  1
  C  662  1  0.47378400  0.70322900  0.89980900  1
  C  663  1  0.47482600  0.72520800  0.89720700  1
  C  664  1  0.49653100  0.73566300  0.89222100  1
  C  665  1  0.51693200  0.72270600  0.88916700  1
  C  666  1  0.51595800  0.70069700  0.89184500  1
  C  669  1  0.49802400  0.75836500  0.89217900  1
  C  670  1  0.47875500  0.77123400  0.88535000  1
  C  671  1  0.47904600  0.79327400  0.88789200  1
  C  672  1  0.49895000  0.80350000  0.89697300  1
  C  673  1  0.51854900  0.79093300  0.90327300  1
  C  674  1  0.51811400  0.76892000  0.90084000  1
  C  681  1  0.74505000  0.86561600  0.45639000  1
  C  682  1  0.72428700  0.86435700  0.46907300  1
  C  683  1  0.72544200  0.86697900  0.49102200  1
  C  684  1  0.74742500  0.87087000  0.50148700  1
  C  685  1  0.76800300  0.87297900  0.48856300  1
  C  686  1  0.76691500  0.87029900  0.46657800  1
  C  689  1  0.74892200  0.87057900  0.52416600  1
  C  690  1  0.73013500  0.87818500  0.53713700  1
  C  691  1  0.73028900  0.87534900  0.55912500  1
  C  692  1  0.74953100  0.86508100  0.56919800  1
  C  693  1  0.76868200  0.85799300  0.55651500  1
  C  694  1  0.76840800  0.86075800  0.53456300  1
  C  701  1  0.24504300  0.12981900  0.07056400  1
  C  702  1  0.22429500  0.13108200  0.05785200  1
  C  703  1  0.22547700  0.12848700  0.03589800  1
  C  704  1  0.24747300  0.12460600  0.02545200  1
  C  705  1  0.26803500  0.12249100  0.03839300  1
  C  706  1  0.26691800  0.12518500  0.06037600  1
  C  709  1  0.24899500  0.12492000  0.00277500  1
  C  710  1  0.23022800  0.11731000  0.98978000  1
  C  711  1  0.23038200  0.12019600  0.96779600  1
  C  712  1  0.24963400  0.13049300  0.95777300  1
  C  713  1  0.26876900  0.13758300  0.97046300  1
  C  714  1  0.26847400  0.13478200  0.99240800  1
  C  721  1  0.54527700  0.30426900  0.89746900  1
  C  722  1  0.56591400  0.29159900  0.89998700  1
  C  723  1  0.56499000  0.26960400  0.89751400  1
  C  724  1  0.54336300  0.25904100  0.89248900  1
  C  725  1  0.52292000  0.27191300  0.88928500  1
  C  726  1  0.52378700  0.29394600  0.89180500  1
  C  729  1  0.54199000  0.23633100  0.89251900  1
  C  730  1  0.56139700  0.22351600  0.88589700  1
  C  731  1  0.56118800  0.20148500  0.88850400  1
  C  732  1  0.54125400  0.19118600  0.89745500  1
  C  733  1  0.52151700  0.20371100  0.90352700  1
  C  734  1  0.52185900  0.22572000  0.90103000  1
  C  741  1  0.04516400  0.69126000  0.62938800  1
  C  742  1  0.06580000  0.70391200  0.62676700  1
  C  743  1  0.06491400  0.72590700  0.62926400  1
  C  744  1  0.04334300  0.73647900  0.63445000  1
  C  745  1  0.02292000  0.72361800  0.63778600  1
  C  746  1  0.02373700  0.70159200  0.63520300  1
  C  749  1  0.04199500  0.75919300  0.63445300  1
  C  750  1  0.06149200  0.77198600  0.64092000  1
  C  751  1  0.06130200  0.79401700  0.63829300  1
  C  752  1  0.04126900  0.80432200  0.62952800  1
  C  753  1  0.02144600  0.79183800  0.62361000  1
  C  754  1  0.02178800  0.76982900  0.62610100  1
  C  761  1  0.79463100  0.86572400  0.06948400  1
  C  762  1  0.81543000  0.86425300  0.05687000  1
  C  763  1  0.81439900  0.86681400  0.03491000  1
  C  764  1  0.79251100  0.87088400  0.02435900  1
  C  765  1  0.77190700  0.87322100  0.03721600  1
  C  766  1  0.77287100  0.87059200  0.05921300  1
  C  769  1  0.79112100  0.87056400  0.00167200  1
  C  770  1  0.81011500  0.87786100  0.98875500  1
  C  771  1  0.81004900  0.87493800  0.96677800  1
  C  772  1  0.79067400  0.86492100  0.95666000  1
  C  773  1  0.77130400  0.85816800  0.96927200  1
  C  774  1  0.77151000  0.86099800  0.99121700  1
  C  781  1  0.29460700  0.12966900  0.45744000  1
  C  782  1  0.31539000  0.13113800  0.47008500  1
  C  783  1  0.31432300  0.12861500  0.49205000  1
  C  784  1  0.29241900  0.12457400  0.50258000  1
  C  785  1  0.27183100  0.12223800  0.48970600  1
  C  786  1  0.27282900  0.12486900  0.46771000  1
  C  789  1  0.29099700  0.12493100  0.52526500  1
  C  790  1  0.30996100  0.11762400  0.53821800  1
  C  791  1  0.30988200  0.12060400  0.56018900  1
  C  792  1  0.29049800  0.13066400  0.57025700  1
  C  793  1  0.27116500  0.13743000  0.55761800  1
  C  794  1  0.27139600  0.13455700  0.53568100  1
  C  801  1  0.04431000  0.69104800  0.39614700  1
  C  802  1  0.06522700  0.70360900  0.39627100  1
  C  803  1  0.06404200  0.72563100  0.39402200  1
  C  804  1  0.04185100  0.73625100  0.39187900  1
  C  805  1  0.02102000  0.72349600  0.39102900  1
  C  806  1  0.02217100  0.70144100  0.39319600  1
  C  809  1  0.04053300  0.75891300  0.39271200  1
  C  810  1  0.05800200  0.77201300  0.38316900  1
  C  811  1  0.05799800  0.79403900  0.38597800  1
  C  812  1  0.04043100  0.80392300  0.39849600  1
  C  813  1  0.02263300  0.79106000  0.40768800  1
  C  814  1  0.02263500  0.76911400  0.40477700  1
  C  821  1  0.54417300  0.30437600  0.13073600  1
  C  822  1  0.56510900  0.29183600  0.13055400  1
  C  823  1  0.56394200  0.26981300  0.13280200  1
  C  824  1  0.54176400  0.25918700  0.13503300  1
  C  825  1  0.52093300  0.27193100  0.13597500  1
  C  826  1  0.52205600  0.29398200  0.13376800  1
  C  829  1  0.54045500  0.23652400  0.13419000  1
  C  830  1  0.55796600  0.22342300  0.14367300  1
  C  831  1  0.55797200  0.20140000  0.14083100  1
  C  832  1  0.54034900  0.19152700  0.12836300  1
  C  833  1  0.52251800  0.20438600  0.11923000  1
  C  834  1  0.52252700  0.22632900  0.12215800  1
  C  841  1  0.49526300  0.69182700  0.13121100  1
  C  842  1  0.47429200  0.70431300  0.13079100  1
  C  843  1  0.47533600  0.72634700  0.13293800  1
  C  844  1  0.49743700  0.73706400  0.13530500  1
  C  845  1  0.51830800  0.72438400  0.13647600  1
  C  846  1  0.51730100  0.70231400  0.13439400  1
  C  849  1  0.49864900  0.75973600  0.13439000  1
  C  850  1  0.48085000  0.77280500  0.14350500  1
  C  851  1  0.48076400  0.79481300  0.14054500  1
  C  852  1  0.49860100  0.80471700  0.12834500  1
  C  853  1  0.51673000  0.79189600  0.11960600  1
  C  854  1  0.51679300  0.76996700  0.12263800  1
  C  861  1  0.99541600  0.30359900  0.39578800  1
  C  862  1  0.97442500  0.29113500  0.39626800  1
  C  863  1  0.97545100  0.26910000  0.39412300  1
  C  864  1  0.99753500  0.25837300  0.39166600  1
  C  865  1  0.01840700  0.27104200  0.39039700  1
  C  866  1  0.01742800  0.29310700  0.39251700  1
  C  869  1  0.99873600  0.23570300  0.39259400  1
  C  870  1  0.98089100  0.22263000  0.38355700  1
  C  871  1  0.98079300  0.20062800  0.38655900  1
  C  872  1  0.99868800  0.19073700  0.39870300  1
  C  873  1  0.01686000  0.20355600  0.40736900  1
  C  874  1  0.01691900  0.22548000  0.40431100  1
  C  881  1  0.24501600  0.36310200  0.95620500  1
  C  882  1  0.22418800  0.36179500  0.96880600  1
  C  883  1  0.22526200  0.36401600  0.99082200  1
  C  884  1  0.24726300  0.36734400  0.00144800  1
  C  885  1  0.26797800  0.36921200  0.98866600  1
  C  886  1  0.26693400  0.36708500  0.96661300  1
  C  889  1  0.24860400  0.36696600  0.02413300  1
  C  890  1  0.23034800  0.37559600  0.03704000  1
  C  891  1  0.23052700  0.37321400  0.05909700  1
  C  892  1  0.24915200  0.36219000  0.06927200  1
  C  893  1  0.26769300  0.35390700  0.05660700  1
  C  894  1  0.26747800  0.35635000  0.03460700  1
  C  901  1  0.74501600  0.63237700  0.57076500  1
  C  902  1  0.72419600  0.63364700  0.55814000  1
  C  903  1  0.72529900  0.63145100  0.53612200  1
  C  904  1  0.74731700  0.62817500  0.52551100  1
  C  905  1  0.76802700  0.62634400  0.53830700  1
  C  906  1  0.76695200  0.62848200  0.56035700  1
  C  909  1  0.74867800  0.62857300  0.50283000  1
  C  910  1  0.73047400  0.61989000  0.48989900  1
  C  911  1  0.73065500  0.62230600  0.46784300  1
  C  912  1  0.74924600  0.63340700  0.45770200  1
  C  913  1  0.76773300  0.64174300  0.47038600  1
  C  914  1  0.76750600  0.63927700  0.49238100  1
  C  921  1  0.29045100  0.36193900  0.56927300  1
  C  922  1  0.30875600  0.37344000  0.55917700  1
  C  923  1  0.30887900  0.37593600  0.53712800  1
  C  924  1  0.29087700  0.36697700  0.52416900  1
  C  925  1  0.27231900  0.35588100  0.53457400  1
  C  926  1  0.27215000  0.35333100  0.55655900  1
  C  929  1  0.29220600  0.36749000  0.50149200  1
  C  930  1  0.31426200  0.36453900  0.49085100  1
  C  931  1  0.31537200  0.36243200  0.46882500  1
  C  932  1  0.29451800  0.36345700  0.45622400  1
  C  933  1  0.27253000  0.36703500  0.46666900  1
  C  934  1  0.27144800  0.36908500  0.48872600  1
  C  941  1  0.79052500  0.63344800  0.95769700  1
  C  942  1  0.80893200  0.62210200  0.96783000  1
  C  943  1  0.80904300  0.61961400  0.98987900  1
  C  944  1  0.79093000  0.62843800  0.00280900  1
  C  945  1  0.77226900  0.63937300  0.99237300  1
  C  946  1  0.77212600  0.64192400  0.97038800  1
  C  949  1  0.79222600  0.62793000  0.02549100  1
  C  950  1  0.81425200  0.63100200  0.03615400  1
  C  951  1  0.81531000  0.63317000  0.05817700  1
  C  952  1  0.79443800  0.63204800  0.07074300  1
  C  953  1  0.77248900  0.62833000  0.06029100  1
  C  954  1  0.77146100  0.62623400  0.03823700  1
  C  961  1  0.98895800  0.14390800  0.45773500  1
  C  962  1  0.96724200  0.14801800  0.46831200  1
  C  963  1  0.96630800  0.14750300  0.49036200  1
  C  964  1  0.98723400  0.14347000  0.50216500  1
  C  965  1  0.00889700  0.13923700  0.49151900  1
  C  966  1  0.00972200  0.13931000  0.46953100  1
  C  969  1  0.98714900  0.14520900  0.52427100  1
  C  970  1  0.97233000  0.13233600  0.53681200  1
  C  971  1  0.97339700  0.13362500  0.55883400  1
  C  972  1  0.98881900  0.14819400  0.56869900  1
  C  973  1  0.00336400  0.16124300  0.55605400  1
  C  974  1  0.00260100  0.15972800  0.53412700  1
  C  981  1  0.48894500  0.85150300  0.06929600  1
  C  982  1  0.46719900  0.84757200  0.05870200  1
  C  983  1  0.46630400  0.84808300  0.03664900  1
  C  984  1  0.48728400  0.85195900  0.02486700  1
  C  985  1  0.50897400  0.85602700  0.03553400  1
  C  986  1  0.50977700  0.85592600  0.05752300  1
  C  989  1  0.48720100  0.85024400  0.00275500  1
  C  990  1  0.47243200  0.86316600  0.99021800  1
  C  991  1  0.47351700  0.86190200  0.96819500  1
  C  992  1  0.48888500  0.84729300  0.95832100  1
  C  993  1  0.50337700  0.83419600  0.97096400  1
  C  994  1  0.50259400  0.83568200  0.99289100  1
  C  1001  1  0.73872400  0.69241000  0.61709600  1
  C  1002  1  0.71692500  0.70297800  0.61328200  1
  C  1003  1  0.71601400  0.72505100  0.61363900  1
  C  1004  1  0.73703300  0.73688400  0.61721500  1
  C  1005  1  0.75878100  0.72624600  0.62115200  1
  C  1006  1  0.75959400  0.70423900  0.62123700  1
  C  1009  1  0.73689700  0.75901200  0.61544600  1
  C  1010  1  0.72222200  0.77156000  0.62843900  1
  C  1011  1  0.72332000  0.79360200  0.62719600  1
  C  1012  1  0.73864300  0.80349700  0.61257000  1
  C  1013  1  0.75302200  0.79084200  0.59938700  1
  C  1014  1  0.75221700  0.76889200  0.60084200  1
  C  1021  1  0.23878900  0.30309400  0.90979700  1
  C  1022  1  0.21703200  0.29253000  0.91380700  1
  C  1023  1  0.21610100  0.27045800  0.91344200  1
  C  1024  1  0.23706000  0.25861900  0.90963000  1
  C  1025  1  0.25876100  0.26924600  0.90548000  1
  C  1026  1  0.25959600  0.29125200  0.90543700  1
  C  1029  1  0.23693600  0.23649400  0.91141000  1
  C  1030  1  0.22214800  0.22393800  0.89852500  1
  C  1031  1  0.22327100  0.20189600  0.89977400  1
  C  1032  1  0.23870200  0.19202000  0.91432400  1
  C  1033  1  0.25319200  0.20468600  0.92740200  1
  C  1034  1  0.25236700  0.22663400  0.92593500  1
  C  1041  1  0.55075500  0.14371600  0.07017200  1
  C  1042  1  0.57251600  0.14781100  0.05966000  1
  C  1043  1  0.57354200  0.14727200  0.03761600  1
  C  1044  1  0.55265500  0.14326600  0.02575600  1
  C  1045  1  0.53094800  0.13902900  0.03633100  1
  C  1046  1  0.53003700  0.13910400  0.05831800  1
  C  1049  1  0.55282500  0.14504900  0.00365800  1
  C  1050  1  0.56751800  0.13203800  0.99115000  1
  C  1051  1  0.56648300  0.13331400  0.96912900  1
  C  1052  1  0.55122600  0.14799800  0.95923200  1
  C  1053  1  0.53684900  0.16121800  0.97184600  1
  C  1054  1  0.53757000  0.15971200  0.99377900  1
  C  1061  1  0.05072800  0.85164700  0.45673500  1
  C  1062  1  0.07257600  0.84797100  0.46725700  1
  C  1063  1  0.07354900  0.84849500  0.48930500  1
  C  1064  1  0.05255100  0.85209900  0.50114800  1
  C  1065  1  0.03076100  0.85593500  0.49054900  1
  C  1066  1  0.02987700  0.85583600  0.46856200  1
  C  1069  1  0.05274800  0.85035500  0.52325600  1
  C  1070  1  0.06730600  0.86350000  0.53574700  1
  C  1071  1  0.06627300  0.86226200  0.55777000  1
  C  1072  1  0.05117900  0.84746900  0.56769900  1
  C  1073  1  0.03694300  0.83411600  0.55510100  1
  C  1074  1  0.03766500  0.83557400  0.53316600  1
  C  1081  1  0.80074700  0.69173800  0.91003600  1
  C  1082  1  0.82261500  0.70226100  0.91362500  1
  C  1083  1  0.82359600  0.72432900  0.91307600  1
  C  1084  1  0.80258200  0.73619200  0.90956600  1
  C  1085  1  0.78076800  0.72558200  0.90583500  1
  C  1086  1  0.77987800  0.70357500  0.90592600  1
  C  1089  1  0.80280200  0.75832600  0.91125200  1
  C  1090  1  0.81735000  0.77077900  0.89806200  1
  C  1091  1  0.81633100  0.79282700  0.89922100  1
  C  1092  1  0.80122600  0.80282900  0.91395000  1
  C  1093  1  0.78700500  0.79026900  0.92735300  1
  C  1094  1  0.78772300  0.76830700  0.92598000  1
  C  1101  1  0.30079300  0.30371500  0.61705500  1
  C  1102  1  0.32253700  0.29318300  0.61291900  1
  C  1103  1  0.32355400  0.27111600  0.61348200  1
  C  1104  1  0.30268200  0.25926000  0.61758900  1
  C  1105  1  0.28099800  0.26985800  0.62188000  1
  C  1106  1  0.28008800  0.29186400  0.62174500  1
  C  1109  1  0.30284300  0.23713500  0.61586800  1
  C  1110  1  0.31761300  0.22464800  0.62883000  1
  C  1111  1  0.31652600  0.20260300  0.62764900  1
  C  1112  1  0.30116500  0.19265700  0.61308700  1
  C  1113  1  0.28671900  0.20525300  0.59990900  1
  C  1114  1  0.28748900  0.22721000  0.60132000  1
  C  1121  1  0.30055100  0.30329300  0.41026300  1
  C  1122  1  0.32267100  0.29269900  0.41185200  1
  C  1123  1  0.32340900  0.27062000  0.41149400  1
  C  1124  1  0.30200300  0.25883900  0.41013000  1
  C  1125  1  0.27992700  0.26956800  0.40842200  1
  C  1126  1  0.27920200  0.29157500  0.40837000  1
  C  1129  1  0.30229000  0.23667500  0.41164000  1
  C  1130  1  0.31590800  0.22428800  0.39764300  1
  C  1131  1  0.31496400  0.20223400  0.39870300  1
  C  1132  1  0.30080700  0.19212500  0.41407000  1
  C  1133  1  0.28748800  0.20460900  0.42823500  1
  C  1134  1  0.28818800  0.22657500  0.42702100  1
  C  1141  1  0.80049900  0.69216100  0.11681200  1
  C  1142  1  0.82258800  0.70274000  0.11479700  1
  C  1143  1  0.82336900  0.72481700  0.11515100  1
  C  1144  1  0.80202000  0.73661400  0.11694900  1
  C  1145  1  0.77997600  0.72591500  0.11908700  1
  C  1146  1  0.77922200  0.70391100  0.11912800  1
  C  1149  1  0.80229500  0.75876900  0.11540200  1
  C  1150  1  0.81609600  0.77117100  0.12924600  1
  C  1151  1  0.81511700  0.79322200  0.12817300  1
  C  1152  1  0.80077900  0.80330000  0.11291500  1
  C  1153  1  0.78728800  0.79079800  0.09889400  1
  C  1154  1  0.78800400  0.76883500  0.10013500  1
  C  1161  1  0.23925500  0.30376100  0.11671400  1
  C  1162  1  0.21722000  0.29322800  0.11410700  1
  C  1163  1  0.21632300  0.27116000  0.11466800  1
  C  1164  1  0.23754300  0.25932400  0.11721400  1
  C  1165  1  0.25953300  0.26996500  0.11995100  1
  C  1166  1  0.26037300  0.29197100  0.11983200  1
  C  1169  1  0.23725300  0.23717700  0.11569700  1
  C  1170  1  0.22323400  0.22483900  0.12942300  1
  C  1171  1  0.22419000  0.20278600  0.12840800  1
  C  1172  1  0.23872700  0.19265900  0.11333000  1
  C  1173  1  0.25241100  0.20509300  0.09939900  1
  C  1174  1  0.25174300  0.22706400  0.10060700  1
  C  1181  1  0.73922700  0.69173100  0.41014100  1
  C  1182  1  0.71724800  0.70226700  0.41309300  1
  C  1183  1  0.71633100  0.72433700  0.41252500  1
  C  1184  1  0.73748800  0.73616600  0.40960400  1
  C  1185  1  0.75941700  0.72553500  0.40651400  1
  C  1186  1  0.76026900  0.70352900  0.40666300  1
  C  1189  1  0.73723000  0.75830700  0.41114600  1
  C  1190  1  0.72308400  0.77066700  0.39754300  1
  C  1191  1  0.72409400  0.79271800  0.39856500  1
  C  1192  1  0.73877400  0.80280800  0.41356000  1
  C  1193  1  0.75258200  0.79035100  0.42737400  1
  C  1194  1  0.75187600  0.76838100  0.42614500  1
  C  1201  1  0.48951000  0.64467400  0.95801100  1
  C  1202  1  0.46737500  0.64648600  0.96854000  1
  C  1203  1  0.46653800  0.64606400  0.99059100  1
  C  1204  1  0.48787300  0.64440600  0.00241600  1
  C  1205  1  0.50996800  0.64248100  0.99176200  1
  C  1206  1  0.51078100  0.64248400  0.96977600  1
  C  1209  1  0.48750000  0.64588500  0.02455600  1
  C  1210  1  0.47369000  0.63195800  0.03686400  1
  C  1211  1  0.47449300  0.63302400  0.05890100  1
  C  1212  1  0.48867700  0.64834200  0.06906000  1
  C  1213  1  0.50220000  0.66242900  0.05665400  1
  C  1214  1  0.50165600  0.66120100  0.03470800  1
  C  1221  1  0.98944100  0.35076300  0.56902200  1
  C  1222  1  0.96729400  0.34927800  0.55846500  1
  C  1223  1  0.96651800  0.34967200  0.53641100  1
  C  1224  1  0.98790700  0.35100900  0.52461600  1
  C  1225  1  0.01001100  0.35262600  0.53530800  1
  C  1226  1  0.01077700  0.35261500  0.55729700  1
  C  1229  1  0.98755200  0.34954100  0.50246700  1
  C  1230  1  0.97386800  0.36355300  0.49014500  1
  C  1231  1  0.97470600  0.36249800  0.46810800  1
  C  1232  1  0.98878000  0.34709500  0.45795600  1
  C  1233  1  0.00217100  0.33292500  0.47037800  1
  C  1234  1  0.00158400  0.33413600  0.49232400  1
  C  1241  1  0.05052900  0.64433400  0.56965100  1
  C  1242  1  0.07258200  0.64700900  0.55916100  1
  C  1243  1  0.07352200  0.64657400  0.53711500  1
  C  1244  1  0.05232500  0.64408700  0.52525300  1
  C  1245  1  0.03031600  0.64129900  0.53583700  1
  C  1246  1  0.02943600  0.64127700  0.55782400  1
  C  1249  1  0.05268300  0.64567100  0.50313400  1
  C  1250  1  0.06671900  0.63194900  0.49080400  1
  C  1251  1  0.06582700  0.63301900  0.46877300  1
  C  1252  1  0.05134200  0.64815500  0.45866500  1
  C  1253  1  0.03764100  0.66208300  0.47109200  1
  C  1254  1  0.03824300  0.66082000  0.49304100  1
  C  1261  1  0.55060700  0.35113000  0.95721000  1
  C  1262  1  0.57268100  0.34870500  0.96772600  1
  C  1263  1  0.57356500  0.34911300  0.98977500  1
  C  1264  1  0.55231100  0.35135100  0.00161100  1
  C  1265  1  0.53028400  0.35390700  0.99099200  1
  C  1266  1  0.52944400  0.35392000  0.96900600  1
  C  1269  1  0.55265200  0.34977500  0.02373500  1
  C  1270  1  0.56660300  0.36355300  0.03607800  1
  C  1271  1  0.56567500  0.36249200  0.05810900  1
  C  1272  1  0.55126700  0.34729300  0.06821000  1
  C  1273  1  0.53765600  0.33333333  0.05576600  1
  C  1274  1  0.53829500  0.33456100  0.03381800  1
  C  1281  1  0.08169400  0.10439300  0.64654000  1
  C  1282  1  0.09323600  0.09811800  0.66520300  1
  C  1283  1  0.11815000  0.10029200  0.66727600  1
  C  1284  1  0.13213300  0.10844200  0.65063800  1
  C  1285  1  0.12042400  0.11452100  0.63191700  1
  C  1286  1  0.09551000  0.11260800  0.62990400  1
  C  1289  1  0.15735700  0.11057100  0.65262200  1
  C  1290  1  0.17138000  0.09445500  0.66172700  1
  C  1291  1  0.19623500  0.09684800  0.66408300  1
  C  1292  1  0.20767900  0.11530200  0.65705000  1
  C  1293  1  0.19384300  0.13137100  0.64778300  1
  C  1294  1  0.16898600  0.12904700  0.64567500  1
  C  1301  1  0.58171800  0.89109200  0.88041700  1
  C  1302  1  0.59324500  0.89734700  0.86173900  1
  C  1303  1  0.61815600  0.89515300  0.85964900  1
  C  1304  1  0.63214600  0.88700100  0.87628100  1
  C  1305  1  0.62045100  0.88094300  0.89501700  1
  C  1306  1  0.59554300  0.88288600  0.89705100  1
  C  1309  1  0.65736700  0.88484900  0.87427800  1
  C  1310  1  0.67139700  0.90095300  0.86516000  1
  C  1311  1  0.69625200  0.89854900  0.86280700  1
  C  1312  1  0.70768700  0.88009000  0.86984700  1
  C  1313  1  0.69383400  0.86402500  0.87910200  1
  C  1314  1  0.66898100  0.86636500  0.88121900  1
  C  1321  1  0.83188200  0.88058000  0.65697900  1
  C  1322  1  0.84351500  0.89919600  0.66331100  1
  C  1323  1  0.86843300  0.90119900  0.66110400  1
  C  1324  1  0.88232600  0.88453600  0.65286200  1
  C  1325  1  0.87052600  0.86585600  0.64674400  1
  C  1326  1  0.84560800  0.86391500  0.64868800  1
  C  1329  1  0.90754400  0.88647800  0.65064100  1
  C  1330  1  0.92167400  0.89551800  0.66671300  1
  C  1331  1  0.94651300  0.89788400  0.66420700  1
  C  1332  1  0.95783600  0.89092700  0.64567900  1
  C  1333  1  0.94389200  0.88171300  0.62966000  1
  C  1334  1  0.91905000  0.87959500  0.63209900  1
  C  1341  1  0.33186100  0.11489300  0.86997800  1
  C  1342  1  0.34350400  0.09627600  0.86366200  1
  C  1343  1  0.36842200  0.09428600  0.86587400  1
  C  1344  1  0.38230500  0.11096200  0.87410600  1
  C  1345  1  0.37049400  0.12964000  0.88021200  1
  C  1346  1  0.34557800  0.13157300  0.87825100  1
  C  1349  1  0.40752400  0.10903100  0.87633000  1
  C  1350  1  0.42165600  0.09998800  0.86026300  1
  C  1351  1  0.44649700  0.09763300  0.86276900  1
  C  1352  1  0.45781800  0.10459600  0.88129600  1
  C  1353  1  0.44386600  0.11379700  0.89731600  1
  C  1354  1  0.41902600  0.11591600  0.89487300  1
  C  1361  1  0.95771100  0.89060700  0.37749800  1
  C  1362  1  0.94563500  0.89659100  0.35899700  1
  C  1363  1  0.92063600  0.89464100  0.35760500  1
  C  1364  1  0.90710300  0.88701900  0.37476800  1
  C  1365  1  0.91934600  0.88115700  0.39329400  1
  C  1366  1  0.94433900  0.88286100  0.39463600  1
  C  1369  1  0.88179000  0.88522600  0.37349300  1
  C  1370  1  0.86777500  0.90139200  0.36447000  1
  C  1371  1  0.84284400  0.89923000  0.36258100  1
  C  1372  1  0.83131400  0.88096500  0.37000200  1
  C  1373  1  0.84514200  0.86490500  0.37930100  1
  C  1374  1  0.87007300  0.86700300  0.38096400  1
  C  1381  1  0.45767400  0.10488600  0.14951000  1
  C  1382  1  0.44560700  0.09892700  0.16802300  1
  C  1383  1  0.42061000  0.10089500  0.16942700  1
  C  1384  1  0.40707400  0.10851600  0.15226300  1
  C  1385  1  0.41931000  0.11435600  0.13372800  1
  C  1386  1  0.44429800  0.11261800  0.13236900  1
  C  1389  1  0.38176300  0.11032300  0.15354800  1
  C  1390  1  0.36774300  0.09416200  0.16257100  1
  C  1391  1  0.34281100  0.09632500  0.16444700  1
  C  1392  1  0.33128300  0.11458600  0.15701700  1
  C  1393  1  0.34512300  0.13065300  0.14774100  1
  C  1394  1  0.37005500  0.12855100  0.14608000  1
  C  1401  1  0.20841900  0.11423000  0.37027300  1
  C  1402  1  0.19667400  0.09580900  0.36353800  1
  C  1403  1  0.17168800  0.09404600  0.36527500  1
  C  1404  1  0.15783300  0.11076700  0.37344200  1
  C  1405  1  0.16974900  0.12919500  0.38011900  1
  C  1406  1  0.19473400  0.13089600  0.37862700  1
  C  1409  1  0.13251800  0.10916400  0.37491000  1
  C  1410  1  0.11884400  0.10065500  0.35825600  1
  C  1411  1  0.09390300  0.09849200  0.36003900  1
  C  1412  1  0.08202400  0.10512800  0.37841500  1
  C  1413  1  0.09551200  0.11388200  0.39498800  1
  C  1414  1  0.12045400  0.11581700  0.39325800  1
  C  1421  1  0.70845700  0.88121300  0.15666400  1
  C  1422  1  0.69670800  0.89963800  0.16338500  1
  C  1423  1  0.67172100  0.90139300  0.16164600  1
  C  1424  1  0.65787300  0.88466400  0.15348800  1
  C  1425  1  0.66979400  0.86623400  0.14682100  1
  C  1426  1  0.69477800  0.86453300  0.14833100  1
  C  1429  1  0.63255600  0.88626200  0.15201800  1
  C  1430  1  0.61888400  0.89477500  0.16866900  1
  C  1431  1  0.59394300  0.89693500  0.16688800  1
  C  1432  1  0.58206000  0.89029200  0.14851600  1
  C  1433  1  0.59555000  0.88154900  0.13194000  1
  C  1434  1  0.62049100  0.87960800  0.13367000  1
  C  1441  1  0.58126700  0.60462300  0.14694800  1
  C  1442  1  0.59296700  0.59797200  0.16540700  1
  C  1443  1  0.61794200  0.59978100  0.16723300  1
  C  1444  1  0.63183700  0.60792700  0.15053600  1
  C  1445  1  0.61996200  0.61450400  0.13206400  1
  C  1446  1  0.59498700  0.61294800  0.13030100  1
  C  1449  1  0.65714800  0.60946300  0.15219300  1
  C  1450  1  0.67084500  0.59288300  0.16084000  1
  C  1451  1  0.69577900  0.59472400  0.16302300  1
  C  1452  1  0.70763700  0.61308100  0.15626100  1
  C  1453  1  0.69413000  0.62958100  0.14738000  1
  C  1454  1  0.66919200  0.62779900  0.14543200  1
  C  1461  1  0.08134000  0.39080800  0.38001300  1
  C  1462  1  0.09302600  0.39743300  0.36153800  1
  C  1463  1  0.11799700  0.39560600  0.35969700  1
  C  1464  1  0.13190000  0.38746300  0.37639000  1
  C  1465  1  0.12003900  0.38091200  0.39487600  1
  C  1466  1  0.09506900  0.38250000  0.39666100  1
  C  1469  1  0.15720700  0.38590200  0.37471200  1
  C  1470  1  0.17091300  0.40246800  0.36604900  1
  C  1471  1  0.19584700  0.40061400  0.36386800  1
  C  1472  1  0.20769600  0.38225900  0.37064300  1
  C  1473  1  0.19417400  0.36576200  0.37951800  1
  C  1474  1  0.16924000  0.36756100  0.38147400  1
  C  1481  1  0.33197600  0.38297300  0.15621600  1
  C  1482  1  0.34397200  0.40151000  0.16225300  1
  C  1483  1  0.36895600  0.40301800  0.16024500  1
  C  1484  1  0.38255600  0.38593200  0.15250900  1
  C  1485  1  0.37039400  0.36735800  0.14662100  1
  C  1486  1  0.34541300  0.36590300  0.14838100  1
  C  1489  1  0.40785200  0.38733100  0.15061200  1
  C  1490  1  0.42191000  0.39637500  0.16672600  1
  C  1491  1  0.44682600  0.39833800  0.16448000  1
  C  1492  1  0.45829800  0.39097300  0.14617900  1
  C  1493  1  0.44442500  0.38167600  0.13015700  1
  C  1494  1  0.41951100  0.37994400  0.13233900  1
  C  1501  1  0.83196400  0.61246100  0.37076300  1
  C  1502  1  0.84396300  0.59391700  0.36475200  1
  C  1503  1  0.86894900  0.59242100  0.36676000  1
  C  1504  1  0.88254300  0.60952200  0.37447000  1
  C  1505  1  0.87037500  0.62809900  0.38033500  1
  C  1506  1  0.84539600  0.62955000  0.37856300  1
  C  1509  1  0.90784000  0.60813100  0.37636200  1
  C  1510  1  0.92189300  0.59907600  0.36024900  1
  C  1511  1  0.94680900  0.59712000  0.36248700  1
  C  1512  1  0.95829000  0.60449900  0.38077900  1
  C  1513  1  0.94442000  0.61379200  0.39680400  1
  C  1514  1  0.91950400  0.61552900  0.39462700  1
  C  1521  1  0.45823100  0.39055400  0.87786300  1
  C  1522  1  0.44614600  0.39695900  0.85950600  1
  C  1523  1  0.42111700  0.39530500  0.85817400  1
  C  1524  1  0.40756500  0.38755100  0.87526400  1
  C  1525  1  0.41981200  0.38117200  0.89361300  1
  C  1526  1  0.44483500  0.38259900  0.89489400  1
  C  1529  1  0.38221400  0.38619700  0.87409900  1
  C  1530  1  0.36848700  0.40280100  0.86554400  1
  C  1531  1  0.34351200  0.40106500  0.86368700  1
  C  1532  1  0.33165400  0.38278800  0.87066700  1
  C  1533  1  0.34520200  0.36629900  0.87953000  1
  C  1534  1  0.37017500  0.36798300  0.88117800  1
  C  1541  1  0.95817700  0.60498400  0.64910100  1
  C  1542  1  0.94611400  0.59860500  0.66747900  1
  C  1543  1  0.92109000  0.60028000  0.66883400  1
  C  1544  1  0.90752200  0.60803100  0.65175200  1
  C  1545  1  0.91974900  0.61438100  0.63338300  1
  C  1546  1  0.94476700  0.61292000  0.63207200  1
  C  1549  1  0.88217600  0.60940600  0.65294500  1
  C  1550  1  0.86844300  0.59281500  0.66151500  1
  C  1551  1  0.84346800  0.59456100  0.66337600  1
  C  1552  1  0.83161400  0.61283500  0.65638200  1
  C  1553  1  0.84517400  0.62932200  0.64752900  1
  C  1554  1  0.87014500  0.62762700  0.64587000  1
  C  1561  1  0.70806900  0.61223700  0.87061300  1
  C  1562  1  0.69603100  0.59380400  0.86431700  1
  C  1563  1  0.67100500  0.59244000  0.86597000  1
  C  1564  1  0.65741500  0.60956900  0.87361300  1
  C  1565  1  0.66961300  0.62800500  0.87984900  1
  C  1566  1  0.69463100  0.62931900  0.87842600  1
  C  1569  1  0.63207300  0.60836500  0.87501000  1
  C  1570  1  0.61833300  0.59969000  0.85849000  1
  C  1571  1  0.59335800  0.59784700  0.86025600  1
  C  1572  1  0.58151800  0.60495800  0.87847600  1
  C  1573  1  0.59508200  0.61392300  0.89488900  1
  C  1574  1  0.62005400  0.61555700  0.89317700  1
  C  1581  1  0.20805700  0.38326500  0.65633900  1
  C  1582  1  0.19601700  0.40170700  0.66260200  1
  C  1583  1  0.17099000  0.40306300  0.66094100  1
  C  1584  1  0.15740500  0.38591800  0.65332200  1
  C  1585  1  0.16961100  0.36747600  0.64711400  1
  C  1586  1  0.19462700  0.36616400  0.64856000  1
  C  1589  1  0.13206500  0.38711900  0.65191800  1
  C  1590  1  0.11832300  0.39581200  0.66842800  1
  C  1591  1  0.09335000  0.39765600  0.66666667  1
  C  1592  1  0.08150800  0.39052600  0.64844500  1
  C  1593  1  0.09507800  0.38155800  0.63203700  1
  C  1594  1  0.12004800  0.37991500  0.63375500  1
  C  1601  1  0.02027000  0.94153500  0.63195700  1
  C  1602  1  0.03341200  0.95272900  0.64722500  1
  C  1603  1  0.03347300  0.97492000  0.64748400  1
  C  1604  1  0.02012800  0.98693000  0.63277000  1
  C  1605  1  0.00762000  0.97552000  0.61713700  1
  C  1606  1  0.00760000  0.95338400  0.61678400  1
  C  1609  1  0.01845400  0.00955900  0.63402500  1
  C  1610  1  0.01742100  0.02008700  0.65361300  1
  C  1611  1  0.01703200  0.04218900  0.65495900  1
  C  1612  1  0.01715700  0.05487000  0.63674100  1
  C  1613  1  0.01748700  0.04454900  0.61710900  1
  C  1614  1  0.01796700  0.02240200  0.61581900  1
  C  1621  1  0.52018600  0.05395900  0.89505000  1
  C  1622  1  0.53339600  0.04278800  0.87981000  1
  C  1623  1  0.53347500  0.02059700  0.87955400  1
  C  1624  1  0.52011600  0.00857700  0.89425100  1
  C  1625  1  0.50756900  0.01997500  0.90987000  1
  C  1626  1  0.50750300  0.04211100  0.91020700  1
  C  1629  1  0.51848500  0.98594700  0.89300600  1
  C  1630  1  0.51748600  0.97540900  0.87342200  1
  C  1631  1  0.51712600  0.95330500  0.87209000  1
  C  1632  1  0.51719900  0.94061800  0.89031000  1
  C  1633  1  0.51753600  0.95096400  0.90992700  1
  C  1634  1  0.51799100  0.97310900  0.91121500  1
  C  1641  1  0.77037300  0.86652700  0.81948700  1
  C  1642  1  0.78334800  0.88188100  0.80826200  1
  C  1643  1  0.78339100  0.88207000  0.78609100  1
  C  1644  1  0.77019700  0.86719700  0.77414600  1
  C  1645  1  0.75787700  0.85146900  0.78559700  1
  C  1646  1  0.75787300  0.85118100  0.80771400  1
  C  1649  1  0.76847800  0.86838700  0.75154100  1
  C  1650  1  0.76719800  0.88796100  0.74098100  1
  C  1651  1  0.76678600  0.88925800  0.71889600  1
  C  1652  1  0.76712100  0.87099700  0.70627200  1
  C  1653  1  0.76770400  0.85137200  0.71662400  1
  C  1654  1  0.76820400  0.85013200  0.73875200  1
  C  1661  1  0.27030000  0.12893400  0.70744300  1
  C  1662  1  0.28329000  0.11359000  0.71867800  1
  C  1663  1  0.28334000  0.11340300  0.74085000  1
  C  1664  1  0.27013900  0.12827200  0.75279600  1
  C  1665  1  0.25780800  0.14399000  0.74134400  1
  C  1666  1  0.25778000  0.14425600  0.71922900  1
  C  1669  1  0.26845100  0.12709900  0.77540500  1
  C  1670  1  0.26720800  0.10753100  0.78598500  1
  C  1671  1  0.26682600  0.10625500  0.80807100  1
  C  1672  1  0.26711300  0.12453200  0.82068300  1
  C  1673  1  0.26769000  0.14413900  0.81030900  1
  C  1674  1  0.26816600  0.14536300  0.78818100  1
  C  1681  1  0.01997200  0.05385200  0.39054900  1
  C  1682  1  0.00611600  0.04280200  0.37567500  1
  C  1683  1  0.00584700  0.02061600  0.37539100  1
  C  1684  1  0.01962000  0.00850000  0.38971100  1
  C  1685  1  0.03281900  0.01978200  0.40499300  1
  C  1686  1  0.03304800  0.04190500  0.40537600  1
  C  1689  1  0.02102000  0.98587600  0.38841600  1
  C  1690  1  0.02124600  0.97535700  0.36880500  1
  C  1691  1  0.02146400  0.95326000  0.36745500  1
  C  1692  1  0.02197800  0.94059700  0.38567600  1
  C  1693  1  0.02245400  0.95090500  0.40531100  1
  C  1694  1  0.02210500  0.97304400  0.40660900  1
  C  1701  1  0.52007700  0.94160600  0.13637300  1
  C  1702  1  0.50610800  0.95262400  0.15119200  1
  C  1703  1  0.50580700  0.97481100  0.15148200  1
  C  1704  1  0.51962600  0.98694800  0.13721400  1
  C  1705  1  0.53290700  0.97569000  0.12196800  1
  C  1706  1  0.53319600  0.95356900  0.12159300  1
  C  1709  1  0.52097400  0.00957300  0.13851200  1
  C  1710  1  0.52111500  0.02009100  0.15812500  1
  C  1711  1  0.52130300  0.04218900  0.15947500  1
  C  1712  1  0.52190900  0.05486800  0.14126000  1
  C  1713  1  0.52242400  0.04454700  0.12163400  1
  C  1714  1  0.52210600  0.02241000  0.12032700  1
  C  1721  1  0.26891300  0.12857900  0.20750000  1
  C  1722  1  0.25581000  0.11336000  0.21879600  1
  C  1723  1  0.25588200  0.11319600  0.24096700  1
  C  1724  1  0.26931600  0.12796100  0.25283800  1
  C  1725  1  0.28174500  0.14357500  0.24132600  1
  C  1726  1  0.28164100  0.14383400  0.21920700  1
  C  1729  1  0.27117800  0.12674400  0.27543200  1
  C  1730  1  0.27239600  0.10714800  0.28595400  1
  C  1731  1  0.27294700  0.10581500  0.30803100  1
  C  1732  1  0.27280000  0.12405600  0.32068900  1
  C  1733  1  0.27229900  0.14370200  0.31037000  1
  C  1734  1  0.27167200  0.14498000  0.28824500  1
  C  1741  1  0.76902800  0.86688400  0.31946300  1
  C  1742  1  0.75590700  0.88209300  0.30816000  1
  C  1743  1  0.75597000  0.88225800  0.28599100  1
  C  1744  1  0.76940700  0.86749900  0.27411300  1
  C  1745  1  0.78185500  0.85189600  0.28562400  1
  C  1746  1  0.78177900  0.85165800  0.30774300  1
  C  1749  1  0.77123400  0.86870100  0.25151600  1
  C  1750  1  0.77242100  0.88828900  0.24097800  1
  C  1751  1  0.77294000  0.88960200  0.21889800  1
  C  1752  1  0.77284400  0.87135400  0.20623900  1
  C  1753  1  0.77233000  0.85172800  0.21658900  1
  C  1754  1  0.77173000  0.85045900  0.23871400  1
  C  1761  1  0.52069800  0.44152300  0.13224500  1
  C  1762  1  0.53375600  0.45279500  0.14751200  1
  C  1763  1  0.53371800  0.47498800  0.14773700  1
  C  1764  1  0.52035400  0.48693800  0.13298700  1
  C  1765  1  0.50794700  0.47545500  0.11734300  1
  C  1766  1  0.50801800  0.45331500  0.11702900  1
  C  1769  1  0.51854900  0.50956500  0.13423700  1
  C  1770  1  0.51740300  0.52008400  0.15382700  1
  C  1771  1  0.51688900  0.54218500  0.15518500  1
  C  1772  1  0.51700000  0.55488600  0.13698000  1
  C  1773  1  0.51744300  0.54457100  0.11734300  1
  C  1774  1  0.51803700  0.52242300  0.11604100  1
  C  1781  1  0.02061700  0.55390900  0.39474000  1
  C  1782  1  0.03375400  0.54266200  0.37950500  1
  C  1783  1  0.03374300  0.52046800  0.37928400  1
  C  1784  1  0.02035600  0.50850700  0.39401200  1
  C  1785  1  0.00789600  0.51997500  0.40963600  1
  C  1786  1  0.00791400  0.54211400  0.40993200  1
  C  1789  1  0.01860100  0.48587700  0.39277000  1
  C  1790  1  0.01750500  0.47534700  0.37318400  1
  C  1791  1  0.01702500  0.45324400  0.37184000  1
  C  1792  1  0.01707300  0.44053700  0.39004900  1
  C  1793  1  0.01751000  0.45087800  0.40967000  1
  C  1794  1  0.01807400  0.47302500  0.41097000  1
  C  1801  1  0.26967900  0.36970900  0.31940300  1
  C  1802  1  0.28351400  0.38457600  0.30831100  1
  C  1803  1  0.28375900  0.38482800  0.28613700  1
  C  1804  1  0.26999800  0.37047500  0.27404300  1
  C  1805  1  0.25682000  0.35519600  0.28536700  1
  C  1806  1  0.25659100  0.35485900  0.30748300  1
  C  1809  1  0.26859400  0.37174000  0.25141400  1
  C  1810  1  0.26841800  0.39135000  0.24086500  1
  C  1811  1  0.26820700  0.39268300  0.21877900  1
  C  1812  1  0.26767300  0.37444700  0.20611500  1
  C  1813  1  0.26715200  0.35481200  0.21645500  1
  C  1814  1  0.26746900  0.35353000  0.23858700  1
  C  1821  1  0.76955100  0.62568000  0.20755000  1
  C  1822  1  0.78343200  0.61083800  0.21864100  1
  C  1823  1  0.78369400  0.61058500  0.24081600  1
  C  1824  1  0.76991200  0.62491700  0.25292000  1
  C  1825  1  0.75669300  0.64017000  0.24160300  1
  C  1826  1  0.75642800  0.64049100  0.21949000  1
  C  1829  1  0.76855100  0.62366400  0.27555200  1
  C  1830  1  0.76843300  0.60406200  0.28611400  1
  C  1831  1  0.76825600  0.60274600  0.30820200  1
  C  1832  1  0.76765100  0.62098600  0.32086800  1
  C  1833  1  0.76711500  0.64060400  0.31050000  1
  C  1834  1  0.76740400  0.64187700  0.28836900  1
  C  1841  1  0.51955900  0.55383500  0.89146400  1
  C  1842  1  0.50576200  0.54269800  0.87661400  1
  C  1843  1  0.50560400  0.52051500  0.87638500  1
  C  1844  1  0.51944500  0.50850100  0.89073500  1
  C  1845  1  0.53255400  0.51985900  0.90601700  1
  C  1846  1  0.53268000  0.54198400  0.90633900  1
  C  1849  1  0.52103000  0.48589900  0.88942200  1
  C  1850  1  0.52152600  0.47543200  0.86979000  1
  C  1851  1  0.52188900  0.45334300  0.86839200  1
  C  1852  1  0.52226900  0.44064900  0.88659100  1
  C  1853  1  0.52250000  0.45090800  0.90625600  1
  C  1854  1  0.52202700  0.47304400  0.90760000  1
  C  1861  1  0.01962500  0.44168800  0.63542500  1
  C  1862  1  0.00574500  0.45280000  0.65023600  1
  C  1863  1  0.00556600  0.47498400  0.65046700  1
  C  1864  1  0.01943300  0.48701200  0.63614800  1
  C  1865  1  0.03259900  0.47567100  0.62089000  1
  C  1866  1  0.03277400  0.45354600  0.62058100  1
  C  1869  1  0.02097500  0.50961700  0.63745800  1
  C  1870  1  0.02142100  0.52008700  0.65708900  1
  C  1871  1  0.02175600  0.54217600  0.65848000  1
  C  1872  1  0.02220200  0.55488300  0.64028300  1
  C  1873  1  0.02243800  0.54460400  0.62063000  1
  C  1874  1  0.02199100  0.52247000  0.61928100  1
  C  1881  1  0.76967800  0.62548200  0.70757200  1
  C  1882  1  0.75605100  0.61052100  0.71873300  1
  C  1883  1  0.75596300  0.61025900  0.74090800  1
  C  1884  1  0.76970800  0.62468500  0.75293200  1
  C  1885  1  0.78269300  0.64004000  0.74154200  1
  C  1886  1  0.78275200  0.64039600  0.71942700  1
  C  1889  1  0.77127700  0.62342400  0.77555400  1
  C  1890  1  0.77162200  0.60381700  0.78610900  1
  C  1891  1  0.77195700  0.60249200  0.80819400  1
  C  1892  1  0.77245500  0.62073300  0.82085000  1
  C  1893  1  0.77282000  0.64036800  0.81050200  1
  C  1894  1  0.77238000  0.64163800  0.78837200  1
  C  1901  1  0.26979900  0.37006600  0.81942000  1
  C  1902  1  0.25610600  0.38499000  0.80826200  1
  C  1903  1  0.25599600  0.38525400  0.78608500  1
  C  1904  1  0.26977800  0.37086600  0.77404900  1
  C  1905  1  0.28282500  0.35554500  0.78543000  1
  C  1906  1  0.28292500  0.35520700  0.80754500  1
  C  1909  1  0.27129800  0.37211700  0.75142500  1
  C  1910  1  0.27156100  0.39171600  0.74085800  1
  C  1911  1  0.27185800  0.39302300  0.71877100  1
  C  1912  1  0.27244600  0.37477900  0.70611000  1
  C  1913  1  0.27284900  0.35516300  0.71648600  1
  C  1914  1  0.27244200  0.35389800  0.73861500  1
  C  1921  1  0.58789200  0.05206700  0.63230300  1
  C  1922  1  0.61214100  0.05520700  0.63783000  1
  C  1923  1  0.62708500  0.03845600  0.64381500  1
  C  1924  1  0.61771200  0.01796700  0.64426800  1
  C  1925  1  0.59388900  0.01377100  0.63817200  1
  C  1926  1  0.57912100  0.03095000  0.63199200  1
  C  1929  1  0.57537100  0.06981100  0.62358700  1
  C  1930  1  0.57498200  0.09003000  0.63338300  1
  C  1931  1  0.56711200  0.10818400  0.62231900  1
  C  1932  1  0.56031000  0.10593600  0.60113900  1
  C  1933  1  0.56123000  0.08636400  0.59084900  1
  C  1934  1  0.56846300  0.06848200  0.60227100  1
  C  1941  1  0.08792400  0.81782400  0.89465300  1
  C  1942  1  0.11217200  0.81468200  0.88910700  1
  C  1943  1  0.12711200  0.83144500  0.88315000  1
  C  1944  1  0.11774700  0.85193600  0.88272800  1
  C  1945  1  0.09392900  0.85612700  0.88884000  1
  C  1946  1  0.07916600  0.83894300  0.89501900  1
  C  1949  1  0.07548400  0.80007500  0.90345300  1
  C  1950  1  0.07504400  0.77987000  0.89362300  1
  C  1951  1  0.06720600  0.76171500  0.90470800  1
  C  1952  1  0.06035100  0.76396300  0.92587400  1
  C  1953  1  0.06129800  0.78353000  0.93616900  1
  C  1954  1  0.06857400  0.80140800  0.92476300  1
  C  1961  1  0.33798600  0.80401500  0.64632300  1
  C  1962  1  0.36230000  0.80937200  0.64326900  1
  C  1963  1  0.37725200  0.81516500  0.66006600  1
  C  1964  1  0.36782800  0.81559100  0.68051700  1
  C  1965  1  0.34393300  0.80964500  0.68462100  1
  C  1966  1  0.32914800  0.80366100  0.66739900  1
  C  1969  1  0.32543600  0.79548400  0.62852300  1
  C  1970  1  0.32521600  0.80541300  0.60838000  1
  C  1971  1  0.31743200  0.79446800  0.59013600  1
  C  1972  1  0.31046100  0.77329500  0.59223700  1
  C  1973  1  0.31118900  0.76287200  0.61173400  1
  C  1974  1  0.31839500  0.77417400  0.62969400  1
  C  1981  1  0.83795800  0.06581000  0.88063700  1
  C  1982  1  0.86227600  0.06045100  0.88369300  1
  C  1983  1  0.87723000  0.05469500  0.86688400  1
  C  1984  1  0.86781300  0.05429500  0.84643100  1
  C  1985  1  0.84391800  0.06023900  0.84233200  1
  C  1986  1  0.82913500  0.06621400  0.85955900  1
  C  1989  1  0.82549500  0.07444300  0.89844300  1
  C  1990  1  0.82525000  0.06450700  0.91858400  1
  C  1991  1  0.81755300  0.07550800  0.93682700  1
  C  1992  1  0.81053700  0.09666700  0.93470600  1
  C  1993  1  0.81123700  0.10705400  0.91519200  1
  C  1994  1  0.81844700  0.09574400  0.89724200  1
  C  2001  1  0.09217700  0.05129800  0.89607300  1
  C  2002  1  0.06808500  0.05476600  0.89017600  1
  C  2003  1  0.05270500  0.03817700  0.88463400  1
  C  2004  1  0.06131500  0.01745100  0.88541500  1
  C  2005  1  0.08481400  0.01291700  0.89218100  1
  C  2006  1  0.10023600  0.02999400  0.89744900  1
  C  2009  1  0.10495200  0.06908200  0.90450700  1
  C  2010  1  0.10559200  0.08918700  0.89446500  1
  C  2011  1  0.11352400  0.10744300  0.90534500  1
  C  2012  1  0.12026600  0.10542600  0.92656500  1
  C  2013  1  0.11917600  0.08599300  0.93708300  1
  C  2014  1  0.11169800  0.06805400  0.92588500  1
  C  2021  1  0.59219100  0.81860600  0.63092900  1
  C  2022  1  0.56809200  0.81514700  0.63682100  1
  C  2023  1  0.55272300  0.83175600  0.64233800  1
  C  2024  1  0.56135400  0.85247500  0.64156400  1
  C  2025  1  0.58485600  0.85699200  0.63480100  1
  C  2026  1  0.60025300  0.83990300  0.62951400  1
  C  2029  1  0.60486600  0.80080600  0.62240500  1
  C  2030  1  0.60556800  0.78072500  0.63249200  1
  C  2031  1  0.61347400  0.76246600  0.62160100  1
  C  2032  1  0.62027500  0.76447500  0.60039500  1
  C  2033  1  0.61913400  0.78389500  0.58985500  1
  C  2034  1  0.61160600  0.80183200  0.60103000  1
  C  2041  1  0.34212900  0.80295400  0.87957500  1
  C  2042  1  0.31797800  0.80871900  0.88294600  1
  C  2043  1  0.30260800  0.81408200  0.86630200  1
  C  2044  1  0.31130400  0.81326700  0.84562400  1
  C  2045  1  0.33487700  0.80662400  0.84119200  1
  C  2046  1  0.35027200  0.80151200  0.85832000  1
  C  2049  1  0.35490200  0.79468500  0.89742200  1
  C  2050  1  0.35540600  0.80487300  0.91743900  1
  C  2051  1  0.36321500  0.79410800  0.93579300  1
  C  2052  1  0.37007300  0.77288100  0.93393300  1
  C  2053  1  0.36912800  0.76221300  0.91458500  1
  C  2054  1  0.36171400  0.77329500  0.89656100  1
  C  2061  1  0.84213200  0.06683100  0.64736000  1
  C  2062  1  0.81797900  0.06106000  0.64397500  1
  C  2063  1  0.80259900  0.05572100  0.66062000  1
  C  2064  1  0.81127700  0.05655000  0.68130000  1
  C  2065  1  0.83484200  0.06320100  0.68573900  1
  C  2066  1  0.85024400  0.06831900  0.66861700  1
  C  2069  1  0.85481100  0.07521400  0.62950600  1
  C  2070  1  0.85533500  0.06503200  0.60948300  1
  C  2071  1  0.86303500  0.07586700  0.59113200  1
  C  2072  1  0.86993500  0.09708000  0.59302200  1
  C  2073  1  0.86905900  0.10768800  0.61240200  1
  C  2074  1  0.86165100  0.09659000  0.63041300  1
  C  2081  1  0.59218800  0.81797700  0.39137700  1
  C  2082  1  0.56794800  0.81453900  0.38600300  1
  C  2083  1  0.55284700  0.83104400  0.37963900  1
  C  2084  1  0.56207800  0.85156900  0.37858600  1
  C  2085  1  0.58590600  0.85605400  0.38445100  1
  C  2086  1  0.60082600  0.83913300  0.39099900  1
  C  2089  1  0.60468100  0.80079200  0.40113300  1
  C  2090  1  0.60526900  0.77998900  0.39265700  1
  C  2091  1  0.61295400  0.76256500  0.40497700  1
  C  2092  1  0.61989500  0.76623800  0.42596000  1
  C  2093  1  0.61905700  0.78650100  0.43477000  1
  C  2094  1  0.61135200  0.80348800  0.42235100  1
  C  2101  1  0.09214700  0.05189600  0.13563600  1
  C  2102  1  0.06791000  0.05534900  0.14102800  1
  C  2103  1  0.05280700  0.03883300  0.14736600  1
  C  2104  1  0.06202400  0.01830500  0.14839700  1
  C  2105  1  0.08584500  0.01381600  0.14252000  1
  C  2106  1  0.10076700  0.03073500  0.13597000  1
  C  2109  1  0.10454600  0.06907900  0.12577200  1
  C  2110  1  0.10518300  0.08987900  0.13425400  1
  C  2111  1  0.11283700  0.10728500  0.12189300  1
  C  2112  1  0.11982600  0.10358600  0.10092500  1
  C  2113  1  0.11897900  0.08331400  0.09213100  1
  C  2114  1  0.11124800  0.06634700  0.10457100  1
  C  2121  1  0.84277300  0.06544900  0.38063800  1
  C  2122  1  0.81854900  0.05990000  0.38386400  1
  C  2123  1  0.80351600  0.05403100  0.36714300  1
  C  2124  1  0.81280800  0.05368900  0.34663500  1
  C  2125  1  0.83661900  0.05978500  0.34238300  1
  C  2126  1  0.85145500  0.06589500  0.35951800  1
  C  2129  1  0.85529800  0.07426800  0.39828300  1
  C  2130  1  0.85655500  0.06422000  0.41833400  1
  C  2131  1  0.86494600  0.07510400  0.43643900  1
  C  2132  1  0.87094300  0.09653100  0.43420400  1
  C  2133  1  0.86899800  0.10712000  0.41486500  1
  C  2134  1  0.86149000  0.09576000  0.39705700  1
  C  2141  1  0.34281700  0.80446000  0.14628700  1
  C  2142  1  0.31858900  0.81001100  0.14306200  1
  C  2143  1  0.30355400  0.81583200  0.15980100  1
  C  2144  1  0.31284400  0.81615400  0.18030700  1
  C  2145  1  0.33665900  0.81006500  0.18455200  1
  C  2146  1  0.35149100  0.80396800  0.16740700  1
  C  2149  1  0.35524800  0.79554700  0.12863400  1
  C  2150  1  0.35654400  0.80560300  0.10858600  1
  C  2151  1  0.36487800  0.79468200  0.09047900  1
  C  2152  1  0.37089300  0.77326200  0.09273500  1
  C  2153  1  0.36897000  0.76270300  0.11209100  1
  C  2154  1  0.36145500  0.77406600  0.12989000  1
  C  2161  1  0.08788000  0.81878600  0.13424800  1
  C  2162  1  0.11196800  0.81496500  0.13993500  1
  C  2163  1  0.12756700  0.83129400  0.14578400  1
  C  2164  1  0.11916100  0.85210300  0.14555200  1
  C  2165  1  0.09565800  0.85698800  0.13905500  1
  C  2166  1  0.08000100  0.84017400  0.13353100  1
  C  2169  1  0.07510100  0.80152500  0.12483400  1
  C  2170  1  0.07420400  0.78086900  0.13366300  1
  C  2171  1  0.06651700  0.76327000  0.12158400  1
  C  2172  1  0.05977600  0.76660300  0.10049300  1
  C  2173  1  0.06093700  0.78668000  0.09131200  1
  C  2174  1  0.06875100  0.80380500  0.10348400  1
  C  2181  1  0.58785800  0.05107500  0.39267600  1
  C  2182  1  0.61195000  0.05488200  0.38698400  1
  C  2183  1  0.62753100  0.03853000  0.38115700  1
  C  2184  1  0.61910200  0.01773000  0.38138100  1
  C  2185  1  0.59559300  0.01286800  0.38787800  1
  C  2186  1  0.57996800  0.02969400  0.39343000  1
  C  2189  1  0.57520500  0.06835100  0.40220600  1
  C  2190  1  0.57426400  0.08899700  0.39335300  1
  C  2191  1  0.56663600  0.10659100  0.40547300  1
  C  2192  1  0.55985400  0.10324700  0.42655200  1
  C  2193  1  0.56101100  0.08316300  0.43572100  1
  C  2194  1  0.56883500  0.06604600  0.42354200  1
  C  2201  1  0.83735300  0.06640700  0.14742600  1
  C  2202  1  0.86140700  0.06041000  0.14395200  1
  C  2203  1  0.87681300  0.05499400  0.16055900  1
  C  2204  1  0.86821600  0.05595000  0.18127100  1
  C  2205  1  0.84473800  0.06278100  0.18578300  1
  C  2206  1  0.82932700  0.06798300  0.16870100  1
  C  2209  1  0.82468000  0.07496300  0.12968500  1
  C  2210  1  0.82329900  0.06469400  0.10974200  1
  C  2211  1  0.81504100  0.07543300  0.09148900  1
  C  2212  1  0.80913300  0.09690300  0.09346400  1
  C  2213  1  0.81105300  0.10766600  0.11269700  1
  C  2214  1  0.81864400  0.09651300  0.13059500  1
  C  2221  1  0.33737900  0.80355100  0.37953400  1
  C  2222  1  0.36142900  0.80956100  0.38303000  1
  C  2223  1  0.37685100  0.81494500  0.36642300  1
  C  2224  1  0.36828300  0.81396900  0.34570500  1
  C  2225  1  0.34481200  0.80712600  0.34118100  1
  C  2226  1  0.32939000  0.80191700  0.35825200  1
  C  2229  1  0.32479500  0.79489200  0.39728100  1
  C  2230  1  0.32335400  0.80517200  0.41721800  1
  C  2231  1  0.31514200  0.79439900  0.43546800  1
  C  2232  1  0.30920500  0.77293600  0.43346900  1
  C  2233  1  0.31111800  0.76219900  0.41422200  1
  C  2234  1  0.31874100  0.77335300  0.39633800  1
  C  2241  1  0.08739800  0.55212300  0.13280200  1
  C  2242  1  0.11160100  0.55537400  0.13840700  1
  C  2243  1  0.12664500  0.53865300  0.14429800  1
  C  2244  1  0.11739200  0.51811200  0.14461100  1
  C  2245  1  0.09360600  0.51382000  0.13846800  1
  C  2246  1  0.07876000  0.53096500  0.13234200  1
  C  2249  1  0.07483400  0.56979200  0.12401600  1
  C  2250  1  0.07368100  0.58990000  0.13399800  1
  C  2251  1  0.06511100  0.60797400  0.12315100  1
  C  2252  1  0.05889400  0.60569800  0.10180500  1
  C  2253  1  0.06085100  0.58633000  0.09124900  1
  C  2254  1  0.06846500  0.56852700  0.10258500  1
  C  2261  1  0.58747600  0.31770500  0.39413900  1
  C  2262  1  0.61168100  0.31445500  0.38852200  1
  C  2263  1  0.62672000  0.33119200  0.38266600  1
  C  2264  1  0.61746700  0.35173100  0.38237700  1
  C  2265  1  0.59368500  0.35601400  0.38852700  1
  C  2266  1  0.57884700  0.33886300  0.39464900  1
  C  2269  1  0.57500200  0.30002600  0.40300900  1
  C  2270  1  0.57379700  0.27993200  0.39300000  1
  C  2271  1  0.56527600  0.26185500  0.40387200  1
  C  2272  1  0.55900600  0.26413900  0.42520400  1
  C  2273  1  0.56098100  0.28350600  0.43576500  1
  C  2274  1  0.56863100  0.30130100  0.42443700  1
  C  2281  1  0.83801900  0.30620500  0.14623100  1
  C  2282  1  0.86224600  0.31167000  0.14286800  1
  C  2283  1  0.87730900  0.31793700  0.15942500  1
  C  2284  1  0.86806000  0.31882300  0.17993300  1
  C  2285  1  0.84424000  0.31288400  0.18437000  1
  C  2286  1  0.82937000  0.30641200  0.16738300  1
  C  2289  1  0.82559500  0.29653100  0.12894300  1
  C  2290  1  0.82506300  0.30507600  0.10816700  1
  C  2291  1  0.81728300  0.29285400  0.09070200  1
  C  2292  1  0.81035600  0.27183800  0.09428000  1
  C  2293  1  0.81120300  0.26294600  0.11448600  1
  C  2294  1  0.81890700  0.27528500  0.13152200  1
  C  2301  1  0.33800200  0.56358300  0.38075100  1
  C  2302  1  0.36223400  0.55812100  0.38411700  1
  C  2303  1  0.37729500  0.55188600  0.36754600  1
  C  2304  1  0.36804600  0.55100500  0.34704100  1
  C  2305  1  0.34422400  0.55693300  0.34260800  1
  C  2306  1  0.32935800  0.56340100  0.35959800  1
  C  2309  1  0.32567800  0.57337300  0.39803500  1
  C  2310  1  0.32511200  0.56483700  0.41881600  1
  C  2311  1  0.31738500  0.57711700  0.43626200  1
  C  2312  1  0.31039100  0.59811000  0.43264400  1
  C  2313  1  0.31122900  0.60695200  0.41241500  1
  C  2314  1  0.31894900  0.59459700  0.39540000  1
  C  2321  1  0.59268200  0.55127200  0.39542200  1
  C  2322  1  0.56862200  0.55475200  0.38944500  1
  C  2323  1  0.55321100  0.53813600  0.38402700  1
  C  2324  1  0.56179300  0.51740100  0.38497500  1
  C  2325  1  0.58527400  0.51286800  0.39178000  1
  C  2326  1  0.60069900  0.52996500  0.39696600  1
  C  2329  1  0.60541000  0.56904500  0.40391100  1
  C  2330  1  0.60663300  0.58904700  0.39370500  1
  C  2331  1  0.61510700  0.60726900  0.40438300  1
  C  2332  1  0.62132900  0.60525400  0.42575300  1
  C  2333  1  0.61944600  0.58599200  0.43649300  1
  C  2334  1  0.61170600  0.56810000  0.42538300  1
  C  2341  1  0.09267700  0.31856800  0.13154400  1
  C  2342  1  0.06861000  0.31510300  0.13752100  1
  C  2343  1  0.05321900  0.33174100  0.14291800  1
  C  2344  1  0.06182500  0.35246800  0.14198700  1
  C  2345  1  0.08531200  0.35697800  0.13517900  1
  C  2346  1  0.10070600  0.33986700  0.12996700  1
  C  2349  1  0.10529100  0.30077600  0.12295800  1
  C  2350  1  0.10655700  0.28078600  0.13318600  1
  C  2351  1  0.11496200  0.26255800  0.12247600  1
  C  2352  1  0.12123300  0.26458500  0.10111800  1
  C  2353  1  0.11934900  0.28384900  0.09038200  1
  C  2354  1  0.11159200  0.30173600  0.10149000  1
  C  2361  1  0.84229700  0.30516900  0.37946000  1
  C  2362  1  0.81824400  0.31096400  0.38324300  1
  C  2363  1  0.80264400  0.31665300  0.36686500  1
  C  2364  1  0.81103500  0.31620500  0.34606700  1
  C  2365  1  0.83452500  0.30964300  0.34121700  1
  C  2366  1  0.85014600  0.30420500  0.35808300  1
  C  2369  1  0.85504200  0.29585000  0.39678200  1
  C  2370  1  0.85655600  0.30501700  0.41725800  1
  C  2371  1  0.86515500  0.29338200  0.43486900  1
  C  2372  1  0.87149300  0.27213000  0.43168700  1
  C  2373  1  0.86938700  0.26254400  0.41188300  1
  C  2374  1  0.86105100  0.27439400  0.39475600  1
  C  2381  1  0.34224400  0.56456600  0.14749800  1
  C  2382  1  0.31819300  0.55876300  0.14369300  1
  C  2383  1  0.30257800  0.55309900  0.16007300  1
  C  2384  1  0.31094800  0.55355300  0.18087400  1
  C  2385  1  0.33443300  0.56012500  0.18573400  1
  C  2386  1  0.35006200  0.56557200  0.16888000  1
  C  2389  1  0.35488100  0.57400900  0.13017600  1
  C  2390  1  0.35647100  0.56483900  0.10970100  1
  C  2391  1  0.36501800  0.57652700  0.09210600  1
  C  2392  1  0.37139800  0.59776700  0.09532800  1
  C  2393  1  0.36926600  0.60731500  0.11514700  1
  C  2394  1  0.36090500  0.59544900  0.13225300  1
  C  2401  1  0.09268400  0.31802000  0.89188400  1
  C  2402  1  0.06850600  0.31449900  0.88637500  1
  C  2403  1  0.05336200  0.33100500  0.88008000  1
  C  2404  1  0.06251400  0.35157300  0.87923100  1
  C  2405  1  0.08628400  0.35610200  0.88524100  1
  C  2406  1  0.10123100  0.33919700  0.89175200  1
  C  2409  1  0.10516200  0.30088300  0.90166400  1
  C  2410  1  0.10683600  0.28031700  0.89275000  1
  C  2411  1  0.11536700  0.26288100  0.90466700  1
  C  2412  1  0.12142300  0.26639200  0.92592400  1
  C  2413  1  0.11924200  0.28635200  0.93521300  1
  C  2414  1  0.11104100  0.30333200  0.92307100  1
  C  2421  1  0.59261900  0.55192000  0.63508000  1
  C  2422  1  0.56844500  0.55544600  0.64061100  1
  C  2423  1  0.55330400  0.53892300  0.64687200  1
  C  2424  1  0.56245200  0.51835500  0.64769400  1
  C  2425  1  0.58621600  0.51383200  0.64166800  1
  C  2426  1  0.60115700  0.53074200  0.63515700  1
  C  2429  1  0.60498900  0.56906500  0.62519900  1
  C  2430  1  0.60673000  0.58962300  0.63412800  1
  C  2431  1  0.61520300  0.60705400  0.62217300  1
  C  2432  1  0.62127900  0.60352200  0.60092200  1
  C  2433  1  0.61908600  0.58355600  0.59164600  1
  C  2434  1  0.61087200  0.56659000  0.60380200  1
  C  2441  1  0.34244600  0.56351200  0.88072400  1
  C  2442  1  0.31822700  0.55799700  0.88405600  1
  C  2443  1  0.30322100  0.55164500  0.86749200  1
  C  2444  1  0.31253200  0.55072700  0.84700600  1
  C  2445  1  0.33634300  0.55669900  0.84259600  1
  C  2446  1  0.35115100  0.56325500  0.85959000  1
  C  2449  1  0.35478800  0.57328100  0.89800600  1
  C  2450  1  0.35526800  0.56481100  0.91881200  1
  C  2451  1  0.36293400  0.57712400  0.93625000  1
  C  2452  1  0.36986000  0.59813100  0.93261100  1
  C  2453  1  0.36907200  0.60695900  0.91236800  1
  C  2454  1  0.36145300  0.59452600  0.89536500  1
  C  2461  1  0.84244600  0.30645800  0.64623700  1
  C  2462  1  0.81822100  0.31196400  0.64289800  1
  C  2463  1  0.80321000  0.31828100  0.65947500  1
  C  2464  1  0.81251600  0.31919800  0.67995900  1
  C  2465  1  0.83633000  0.31323800  0.68437000  1
  C  2466  1  0.85114100  0.30669000  0.66737400  1
  C  2469  1  0.85469400  0.29657700  0.62896200  1
  C  2470  1  0.85521000  0.30503900  0.60815100  1
  C  2471  1  0.86282600  0.29267700  0.59072700  1
  C  2472  1  0.86980800  0.27168900  0.59441000  1
  C  2473  1  0.86902500  0.26290000  0.61467100  1
  C  2474  1  0.86140000  0.27535500  0.63165500  1
  C  2481  1  0.58745700  0.31887900  0.63386000  1
  C  2482  1  0.61145600  0.31507000  0.63980500  1
  C  2483  1  0.62701900  0.33146000  0.64557300  1
  C  2484  1  0.61862900  0.35227400  0.64503200  1
  C  2485  1  0.59520100  0.35710400  0.63829400  1
  C  2486  1  0.57960600  0.34025000  0.63279300  1
  C  2489  1  0.57480300  0.30159900  0.62443000  1
  C  2490  1  0.57291400  0.28120700  0.63373100  1
  C  2491  1  0.56452400  0.26353800  0.62207100  1
  C  2492  1  0.55867400  0.26661900  0.60070700  1
  C  2493  1  0.56103500  0.28637700  0.59105200  1
  C  2494  1  0.56927200  0.30354600  0.60289200  1
  C  2501  1  0.08747900  0.55104700  0.89304700  1
  C  2502  1  0.11148500  0.55484300  0.88710100  1
  C  2503  1  0.12702800  0.53842800  0.88135400  1
  C  2504  1  0.11861200  0.51762400  0.88187700  1
  C  2505  1  0.09517900  0.51281800  0.88861200  1
  C  2506  1  0.07961600  0.52968400  0.89414300  1
  C  2509  1  0.07496200  0.56834300  0.90259500  1
  C  2510  1  0.07301300  0.58872700  0.89328500  1
  C  2511  1  0.06468800  0.60639200  0.90499200  1
  C  2512  1  0.05881500  0.60327900  0.92634900  1
  C  2513  1  0.06118400  0.58351200  0.93598500  1
  C  2514  1  0.06942600  0.56635900  0.92412300  1
  C  2521  1  0.33755400  0.56463000  0.64752800  1
  C  2522  1  0.36157300  0.55871800  0.64374500  1
  C  2523  1  0.37711400  0.55286800  0.66010800  1
  C  2524  1  0.36869100  0.55327000  0.68089900  1
  C  2525  1  0.34524500  0.55994200  0.68575500  1
  C  2526  1  0.32968700  0.56554600  0.66890100  1
  C  2529  1  0.32489900  0.57409400  0.63022900  1
  C  2530  1  0.32338400  0.56503500  0.60970700  1
  C  2531  1  0.31486400  0.57678900  0.59215100  1
  C  2532  1  0.30855400  0.59803500  0.59544300  1
  C  2533  1  0.31068800  0.60755400  0.61528800  1
  C  2534  1  0.31893600  0.59555000  0.63235600  1
  C  2541  1  0.83759100  0.30539500  0.87946000  1
  C  2542  1  0.86160400  0.31132100  0.88326800  1
  C  2543  1  0.87716200  0.31714400  0.86690300  1
  C  2544  1  0.86876500  0.31673000  0.84610800  1
  C  2545  1  0.84532900  0.31004200  0.84123900  1
  C  2546  1  0.82975900  0.30443300  0.85808100  1
  C  2549  1  0.82503800  0.29581400  0.89675800  1
  C  2550  1  0.82344300  0.30488200  0.91727300  1
  C  2551  1  0.81495700  0.29308800  0.93481800  1
  C  2552  1  0.80862500  0.27185200  0.93149300  1
  C  2553  1  0.81079500  0.26235900  0.91163800  1
  C  2554  1  0.81906300  0.27437200  0.89458700  1
  C  2561  1  0.56449300  0.24224300  0.62958900  1
  C  2562  1  0.54388700  0.22948400  0.62734900  1
  C  2563  1  0.54495400  0.20750600  0.62993900  1
  C  2564  1  0.56670700  0.19705600  0.63477100  1
  C  2565  1  0.58712900  0.21001700  0.63769000  1
  C  2566  1  0.58611500  0.23203200  0.63506300  1
  C  2569  1  0.56821000  0.17435500  0.63479800  1
  C  2570  1  0.54902300  0.16147900  0.64177800  1
  C  2571  1  0.54932600  0.13943500  0.63927000  1
  C  2572  1  0.56912700  0.12919800  0.63003300  1
  C  2573  1  0.58864900  0.14179300  0.62357700  1
  C  2574  1  0.58822500  0.16380800  0.62599900  1
  C  2581  1  0.06461800  0.62768800  0.89746300  1
  C  2582  1  0.04401500  0.64043200  0.89980900  1
  C  2583  1  0.04505700  0.66241100  0.89720700  1
  C  2584  1  0.06676200  0.67286600  0.89222100  1
  C  2585  1  0.08716300  0.65990900  0.88916700  1
  C  2586  1  0.08618900  0.63790000  0.89184500  1
  C  2589  1  0.06825500  0.69556800  0.89217900  1
  C  2590  1  0.04898600  0.70843700  0.88535000  1
  C  2591  1  0.04927700  0.73047700  0.88789200  1
  C  2592  1  0.06918100  0.74070300  0.89697300  1
  C  2593  1  0.08878000  0.72813600  0.90327300  1
  C  2594  1  0.08834500  0.70612300  0.90084000  1
  C  2601  1  0.31528100  0.80281900  0.45639000  1
  C  2602  1  0.29451800  0.80156000  0.46907300  1
  C  2603  1  0.29567300  0.80418200  0.49102200  1
  C  2604  1  0.31765600  0.80807300  0.50148700  1
  C  2605  1  0.33823400  0.81018200  0.48856300  1
  C  2606  1  0.33714600  0.80750200  0.46657800  1
  C  2609  1  0.31915300  0.80778200  0.52416600  1
  C  2610  1  0.30036600  0.81538800  0.53713700  1
  C  2611  1  0.30052000  0.81255200  0.55912500  1
  C  2612  1  0.31976200  0.80228400  0.56919800  1
  C  2613  1  0.33891300  0.79519600  0.55651500  1
  C  2614  1  0.33863900  0.79796100  0.53456300  1
  C  2621  1  0.81527400  0.06702200  0.07056400  1
  C  2622  1  0.79452600  0.06828500  0.05785200  1
  C  2623  1  0.79570800  0.06569000  0.03589800  1
  C  2624  1  0.81770400  0.06180900  0.02545200  1
  C  2625  1  0.83826600  0.05969400  0.03839300  1
  C  2626  1  0.83714900  0.06238800  0.06037600  1
  C  2629  1  0.81922600  0.06212300  0.00277500  1
  C  2630  1  0.80045900  0.05451300  0.98978000  1
  C  2631  1  0.80061300  0.05739900  0.96779600  1
  C  2632  1  0.81986500  0.06769600  0.95777300  1
  C  2633  1  0.83900000  0.07478600  0.97046300  1
  C  2634  1  0.83870500  0.07198500  0.99240800  1
  C  2641  1  0.11550800  0.24147200  0.89746900  1
  C  2642  1  0.13614500  0.22880200  0.89998700  1
  C  2643  1  0.13522100  0.20680700  0.89751400  1
  C  2644  1  0.11359400  0.19624400  0.89248900  1
  C  2645  1  0.09315100  0.20911600  0.88928500  1
  C  2646  1  0.09401800  0.23114900  0.89180500  1
  C  2649  1  0.11222100  0.17353400  0.89251900  1
  C  2650  1  0.13162800  0.16071900  0.88589700  1
  C  2651  1  0.13141900  0.13868800  0.88850400  1
  C  2652  1  0.11148500  0.12838900  0.89745500  1
  C  2653  1  0.09174800  0.14091400  0.90352700  1
  C  2654  1  0.09209000  0.16292300  0.90103000  1
  C  2661  1  0.61539500  0.62846300  0.62938800  1
  C  2662  1  0.63603100  0.64111500  0.62676700  1
  C  2663  1  0.63514500  0.66311000  0.62926400  1
  C  2664  1  0.61357400  0.67368200  0.63445000  1
  C  2665  1  0.59315100  0.66082100  0.63778600  1
  C  2666  1  0.59396800  0.63879500  0.63520300  1
  C  2669  1  0.61222600  0.69639600  0.63445300  1
  C  2670  1  0.63172300  0.70918900  0.64092000  1
  C  2671  1  0.63153300  0.73122000  0.63829300  1
  C  2672  1  0.61150000  0.74152500  0.62952800  1
  C  2673  1  0.59167700  0.72904100  0.62361000  1
  C  2674  1  0.59201900  0.70703200  0.62610100  1
  C  2681  1  0.36486200  0.80292700  0.06948400  1
  C  2682  1  0.38566100  0.80145600  0.05687000  1
  C  2683  1  0.38463000  0.80401700  0.03491000  1
  C  2684  1  0.36274200  0.80808700  0.02435900  1
  C  2685  1  0.34213800  0.81042400  0.03721600  1
  C  2686  1  0.34310200  0.80779500  0.05921300  1
  C  2689  1  0.36135200  0.80776700  0.00167200  1
  C  2690  1  0.38034600  0.81506400  0.98875500  1
  C  2691  1  0.38028000  0.81214100  0.96677800  1
  C  2692  1  0.36090500  0.80212400  0.95666000  1
  C  2693  1  0.34153500  0.79537100  0.96927200  1
  C  2694  1  0.34174100  0.79820100  0.99121700  1
  C  2701  1  0.86483800  0.06687200  0.45744000  1
  C  2702  1  0.88562100  0.06834100  0.47008500  1
  C  2703  1  0.88455400  0.06581800  0.49205000  1
  C  2704  1  0.86265000  0.06177700  0.50258000  1
  C  2705  1  0.84206200  0.05944100  0.48970600  1
  C  2706  1  0.84306000  0.06207200  0.46771000  1
  C  2709  1  0.86122800  0.06213400  0.52526500  1
  C  2710  1  0.88019200  0.05482700  0.53821800  1
  C  2711  1  0.88011300  0.05780700  0.56018900  1
  C  2712  1  0.86072900  0.06786700  0.57025700  1
  C  2713  1  0.84139600  0.07463300  0.55761800  1
  C  2714  1  0.84162700  0.07176000  0.53568100  1
  C  2721  1  0.61454100  0.62825100  0.39614700  1
  C  2722  1  0.63545800  0.64081200  0.39627100  1
  C  2723  1  0.63427300  0.66283400  0.39402200  1
  C  2724  1  0.61208200  0.67345400  0.39187900  1
  C  2725  1  0.59125100  0.66069900  0.39102900  1
  C  2726  1  0.59240200  0.63864400  0.39319600  1
  C  2729  1  0.61076400  0.69611600  0.39271200  1
  C  2730  1  0.62823300  0.70921600  0.38316900  1
  C  2731  1  0.62822900  0.73124200  0.38597800  1
  C  2732  1  0.61066200  0.74112600  0.39849600  1
  C  2733  1  0.59286400  0.72826300  0.40768800  1
  C  2734  1  0.59286600  0.70631700  0.40477700  1
  C  2741  1  0.11440400  0.24157900  0.13073600  1
  C  2742  1  0.13534000  0.22903900  0.13055400  1
  C  2743  1  0.13417300  0.20701600  0.13280200  1
  C  2744  1  0.11199500  0.19639000  0.13503300  1
  C  2745  1  0.09116400  0.20913400  0.13597500  1
  C  2746  1  0.09228700  0.23118500  0.13376800  1
  C  2749  1  0.11068600  0.17372700  0.13419000  1
  C  2750  1  0.12819700  0.16062600  0.14367300  1
  C  2751  1  0.12820300  0.13860300  0.14083100  1
  C  2752  1  0.11058000  0.12873000  0.12836300  1
  C  2753  1  0.09274900  0.14158900  0.11923000  1
  C  2754  1  0.09275800  0.16353200  0.12215800  1
  C  2761  1  0.06549400  0.62903000  0.13121100  1
  C  2762  1  0.04452300  0.64151600  0.13079100  1
  C  2763  1  0.04556700  0.66355000  0.13293800  1
  C  2764  1  0.06766800  0.67426700  0.13530500  1
  C  2765  1  0.08853900  0.66158700  0.13647600  1
  C  2766  1  0.08753200  0.63951700  0.13439400  1
  C  2769  1  0.06888000  0.69693900  0.13439000  1
  C  2770  1  0.05108100  0.71000800  0.14350500  1
  C  2771  1  0.05099500  0.73201600  0.14054500  1
  C  2772  1  0.06883200  0.74192000  0.12834500  1
  C  2773  1  0.08696100  0.72909900  0.11960600  1
  C  2774  1  0.08702400  0.70717000  0.12263800  1
  C  2781  1  0.56564700  0.24080200  0.39578800  1
  C  2782  1  0.54465600  0.22833800  0.39626800  1
  C  2783  1  0.54568200  0.20630300  0.39412300  1
  C  2784  1  0.56776600  0.19557600  0.39166600  1
  C  2785  1  0.58863800  0.20824500  0.39039700  1
  C  2786  1  0.58765900  0.23031000  0.39251700  1
  C  2789  1  0.56896700  0.17290600  0.39259400  1
  C  2790  1  0.55112200  0.15983300  0.38355700  1
  C  2791  1  0.55102400  0.13783100  0.38655900  1
  C  2792  1  0.56891900  0.12794000  0.39870300  1
  C  2793  1  0.58709100  0.14075900  0.40736900  1
  C  2794  1  0.58715000  0.16268300  0.40431100  1
  C  2801  1  0.81524700  0.30030500  0.95620500  1
  C  2802  1  0.79441900  0.29899800  0.96880600  1
  C  2803  1  0.79549300  0.30121900  0.99082200  1
  C  2804  1  0.81749400  0.30454700  0.00144800  1
  C  2805  1  0.83820900  0.30641500  0.98866600  1
  C  2806  1  0.83716500  0.30428800  0.96661300  1
  C  2809  1  0.81883500  0.30416900  0.02413300  1
  C  2810  1  0.80057900  0.31279900  0.03704000  1
  C  2811  1  0.80075800  0.31041700  0.05909700  1
  C  2812  1  0.81938300  0.29939300  0.06927200  1
  C  2813  1  0.83792400  0.29111000  0.05660700  1
  C  2814  1  0.83770900  0.29355300  0.03460700  1
  C  2821  1  0.31524700  0.56958000  0.57076500  1
  C  2822  1  0.29442700  0.57085000  0.55814000  1
  C  2823  1  0.29553000  0.56865400  0.53612200  1
  C  2824  1  0.31754800  0.56537800  0.52551100  1
  C  2825  1  0.33825800  0.56354700  0.53830700  1
  C  2826  1  0.33718300  0.56568500  0.56035700  1
  C  2829  1  0.31890900  0.56577600  0.50283000  1
  C  2830  1  0.30070500  0.55709300  0.48989900  1
  C  2831  1  0.30088600  0.55950900  0.46784300  1
  C  2832  1  0.31947700  0.57061000  0.45770200  1
  C  2833  1  0.33796400  0.57894600  0.47038600  1
  C  2834  1  0.33773700  0.57648000  0.49238100  1
  C  2841  1  0.86068200  0.29914200  0.56927300  1
  C  2842  1  0.87898700  0.31064300  0.55917700  1
  C  2843  1  0.87911000  0.31313900  0.53712800  1
  C  2844  1  0.86110800  0.30418000  0.52416900  1
  C  2845  1  0.84255000  0.29308400  0.53457400  1
  C  2846  1  0.84238100  0.29053400  0.55655900  1
  C  2849  1  0.86243700  0.30469300  0.50149200  1
  C  2850  1  0.88449300  0.30174200  0.49085100  1
  C  2851  1  0.88560300  0.29963500  0.46882500  1
  C  2852  1  0.86474900  0.30066000  0.45622400  1
  C  2853  1  0.84276100  0.30423800  0.46666900  1
  C  2854  1  0.84167900  0.30628800  0.48872600  1
  C  2861  1  0.36075600  0.57065100  0.95769700  1
  C  2862  1  0.37916300  0.55930500  0.96783000  1
  C  2863  1  0.37927400  0.55681700  0.98987900  1
  C  2864  1  0.36116100  0.56564100  0.00280900  1
  C  2865  1  0.34250000  0.57657600  0.99237300  1
  C  2866  1  0.34235700  0.57912700  0.97038800  1
  C  2869  1  0.36245700  0.56513300  0.02549100  1
  C  2870  1  0.38448300  0.56820500  0.03615400  1
  C  2871  1  0.38554100  0.57037300  0.05817700  1
  C  2872  1  0.36466900  0.56925100  0.07074300  1
  C  2873  1  0.34272000  0.56553300  0.06029100  1
  C  2874  1  0.34169200  0.56343700  0.03823700  1
  C  2881  1  0.55918900  0.08111100  0.45773500  1
  C  2882  1  0.53747300  0.08522100  0.46831200  1
  C  2883  1  0.53653900  0.08470600  0.49036200  1
  C  2884  1  0.55746500  0.08067300  0.50216500  1
  C  2885  1  0.57912800  0.07644000  0.49151900  1
  C  2886  1  0.57995300  0.07651300  0.46953100  1
  C  2889  1  0.55738000  0.08241200  0.52427100  1
  C  2890  1  0.54256100  0.06953900  0.53681200  1
  C  2891  1  0.54362800  0.07082800  0.55883400  1
  C  2892  1  0.55905000  0.08539700  0.56869900  1
  C  2893  1  0.57359500  0.09844600  0.55605400  1
  C  2894  1  0.57283200  0.09693100  0.53412700  1
  C  2901  1  0.05917600  0.78870600  0.06929600  1
  C  2902  1  0.03743000  0.78477500  0.05870200  1
  C  2903  1  0.03653500  0.78528600  0.03664900  1
  C  2904  1  0.05751500  0.78916200  0.02486700  1
  C  2905  1  0.07920500  0.79323000  0.03553400  1
  C  2906  1  0.08000800  0.79312900  0.05752300  1
  C  2909  1  0.05743200  0.78744700  0.00275500  1
  C  2910  1  0.04266300  0.80036900  0.99021800  1
  C  2911  1  0.04374800  0.79910500  0.96819500  1
  C  2912  1  0.05911600  0.78449600  0.95832100  1
  C  2913  1  0.07360800  0.77139900  0.97096400  1
  C  2914  1  0.07282500  0.77288500  0.99289100  1
  C  2921  1  0.30895500  0.62961300  0.61709600  1
  C  2922  1  0.28715600  0.64018100  0.61328200  1
  C  2923  1  0.28624500  0.66225400  0.61363900  1
  C  2924  1  0.30726400  0.67408700  0.61721500  1
  C  2925  1  0.32901200  0.66344900  0.62115200  1
  C  2926  1  0.32982500  0.64144200  0.62123700  1
  C  2929  1  0.30712800  0.69621500  0.61544600  1
  C  2930  1  0.29245300  0.70876300  0.62843900  1
  C  2931  1  0.29355100  0.73080500  0.62719600  1
  C  2932  1  0.30887400  0.74070000  0.61257000  1
  C  2933  1  0.32325300  0.72804500  0.59938700  1
  C  2934  1  0.32244800  0.70609500  0.60084200  1
  C  2941  1  0.80902000  0.24029700  0.90979700  1
  C  2942  1  0.78726300  0.22973300  0.91380700  1
  C  2943  1  0.78633200  0.20766100  0.91344200  1
  C  2944  1  0.80729100  0.19582200  0.90963000  1
  C  2945  1  0.82899200  0.20644900  0.90548000  1
  C  2946  1  0.82982700  0.22845500  0.90543700  1
  C  2949  1  0.80716700  0.17369700  0.91141000  1
  C  2950  1  0.79237900  0.16114100  0.89852500  1
  C  2951  1  0.79350200  0.13909900  0.89977400  1
  C  2952  1  0.80893300  0.12922300  0.91432400  1
  C  2953  1  0.82342300  0.14188900  0.92740200  1
  C  2954  1  0.82259800  0.16383700  0.92593500  1
  C  2961  1  0.12098600  0.08091900  0.07017200  1
  C  2962  1  0.14274700  0.08501400  0.05966000  1
  C  2963  1  0.14377300  0.08447500  0.03761600  1
  C  2964  1  0.12288600  0.08046900  0.02575600  1
  C  2965  1  0.10117900  0.07623200  0.03633100  1
  C  2966  1  0.10026800  0.07630700  0.05831800  1
  C  2969  1  0.12305600  0.08225200  0.00365800  1
  C  2970  1  0.13774900  0.06924100  0.99115000  1
  C  2971  1  0.13671400  0.07051700  0.96912900  1
  C  2972  1  0.12145700  0.08520100  0.95923200  1
  C  2973  1  0.10708000  0.09842100  0.97184600  1
  C  2974  1  0.10780100  0.09691500  0.99377900  1
  C  2981  1  0.62095900  0.78885000  0.45673500  1
  C  2982  1  0.64280700  0.78517400  0.46725700  1
  C  2983  1  0.64378000  0.78569800  0.48930500  1
  C  2984  1  0.62278200  0.78930200  0.50114800  1
  C  2985  1  0.60099200  0.79313800  0.49054900  1
  C  2986  1  0.60010800  0.79303900  0.46856200  1
  C  2989  1  0.62297900  0.78755800  0.52325600  1
  C  2990  1  0.63753700  0.80070300  0.53574700  1
  C  2991  1  0.63650400  0.79946500  0.55777000  1
  C  2992  1  0.62141000  0.78467200  0.56769900  1
  C  2993  1  0.60717400  0.77131900  0.55510100  1
  C  2994  1  0.60789600  0.77277700  0.53316600  1
  C  3001  1  0.37097800  0.62894100  0.91003600  1
  C  3002  1  0.39284600  0.63946400  0.91362500  1
  C  3003  1  0.39382700  0.66153200  0.91307600  1
  C  3004  1  0.37281300  0.67339500  0.90956600  1
  C  3005  1  0.35099900  0.66278500  0.90583500  1
  C  3006  1  0.35010900  0.64077800  0.90592600  1
  C  3009  1  0.37303300  0.69552900  0.91125200  1
  C  3010  1  0.38758100  0.70798200  0.89806200  1
  C  3011  1  0.38656200  0.73003000  0.89922100  1
  C  3012  1  0.37145700  0.74003200  0.91395000  1
  C  3013  1  0.35723600  0.72747200  0.92735300  1
  C  3014  1  0.35795400  0.70551000  0.92598000  1
  C  3021  1  0.87102400  0.24091800  0.61705500  1
  C  3022  1  0.89276800  0.23038600  0.61291900  1
  C  3023  1  0.89378500  0.20831900  0.61348200  1
  C  3024  1  0.87291300  0.19646300  0.61758900  1
  C  3025  1  0.85122900  0.20706100  0.62188000  1
  C  3026  1  0.85031900  0.22906700  0.62174500  1
  C  3029  1  0.87307400  0.17433800  0.61586800  1
  C  3030  1  0.88784400  0.16185100  0.62883000  1
  C  3031  1  0.88675700  0.13980600  0.62764900  1
  C  3032  1  0.87139600  0.12986000  0.61308700  1
  C  3033  1  0.85695000  0.14245600  0.59990900  1
  C  3034  1  0.85772000  0.16441300  0.60132000  1
  C  3041  1  0.87078200  0.24049600  0.41026300  1
  C  3042  1  0.89290200  0.22990200  0.41185200  1
  C  3043  1  0.89364000  0.20782300  0.41149400  1
  C  3044  1  0.87223400  0.19604200  0.41013000  1
  C  3045  1  0.85015800  0.20677100  0.40842200  1
  C  3046  1  0.84943300  0.22877800  0.40837000  1
  C  3049  1  0.87252100  0.17387800  0.41164000  1
  C  3050  1  0.88613900  0.16149100  0.39764300  1
  C  3051  1  0.88519500  0.13943700  0.39870300  1
  C  3052  1  0.87103800  0.12932800  0.41407000  1
  C  3053  1  0.85771900  0.14181200  0.42823500  1
  C  3054  1  0.85841900  0.16377800  0.42702100  1
  C  3061  1  0.37073000  0.62936400  0.11681200  1
  C  3062  1  0.39281900  0.63994300  0.11479700  1
  C  3063  1  0.39360000  0.66202000  0.11515100  1
  C  3064  1  0.37225100  0.67381700  0.11694900  1
  C  3065  1  0.35020700  0.66311800  0.11908700  1
  C  3066  1  0.34945300  0.64111400  0.11912800  1
  C  3069  1  0.37252600  0.69597200  0.11540200  1
  C  3070  1  0.38632700  0.70837400  0.12924600  1
  C  3071  1  0.38534800  0.73042500  0.12817300  1
  C  3072  1  0.37101000  0.74050300  0.11291500  1
  C  3073  1  0.35751900  0.72800100  0.09889400  1
  C  3074  1  0.35823500  0.70603800  0.10013500  1
  C  3081  1  0.80948600  0.24096400  0.11671400  1
  C  3082  1  0.78745100  0.23043100  0.11410700  1
  C  3083  1  0.78655400  0.20836300  0.11466800  1
  C  3084  1  0.80777400  0.19652700  0.11721400  1
  C  3085  1  0.82976400  0.20716800  0.11995100  1
  C  3086  1  0.83060400  0.22917400  0.11983200  1
  C  3089  1  0.80748400  0.17438000  0.11569700  1
  C  3090  1  0.79346500  0.16204200  0.12942300  1
  C  3091  1  0.79442100  0.13998900  0.12840800  1
  C  3092  1  0.80895800  0.12986200  0.11333000  1
  C  3093  1  0.82264200  0.14229600  0.09939900  1
  C  3094  1  0.82197400  0.16426700  0.10060700  1
  C  3101  1  0.30945800  0.62893400  0.41014100  1
  C  3102  1  0.28747900  0.63947000  0.41309300  1
  C  3103  1  0.28656200  0.66154000  0.41252500  1
  C  3104  1  0.30771900  0.67336900  0.40960400  1
  C  3105  1  0.32964800  0.66273800  0.40651400  1
  C  3106  1  0.33050000  0.64073200  0.40666300  1
  C  3109  1  0.30746100  0.69551000  0.41114600  1
  C  3110  1  0.29331500  0.70787000  0.39754300  1
  C  3111  1  0.29432500  0.72992100  0.39856500  1
  C  3112  1  0.30900500  0.74001100  0.41356000  1
  C  3113  1  0.32281300  0.72755400  0.42737400  1
  C  3114  1  0.32210700  0.70558400  0.42614500  1
  C  3121  1  0.05974100  0.58187700  0.95801100  1
  C  3122  1  0.03760600  0.58368900  0.96854000  1
  C  3123  1  0.03676900  0.58326700  0.99059100  1
  C  3124  1  0.05810400  0.58160900  0.00241600  1
  C  3125  1  0.08019900  0.57968400  0.99176200  1
  C  3126  1  0.08101200  0.57968700  0.96977600  1
  C  3129  1  0.05773100  0.58308800  0.02455600  1
  C  3130  1  0.04392100  0.56916100  0.03686400  1
  C  3131  1  0.04472400  0.57022700  0.05890100  1
  C  3132  1  0.05890800  0.58554500  0.06906000  1
  C  3133  1  0.07243100  0.59963200  0.05665400  1
  C  3134  1  0.07188700  0.59840400  0.03470800  1
  C  3141  1  0.55967200  0.28796600  0.56902200  1
  C  3142  1  0.53752500  0.28648100  0.55846500  1
  C  3143  1  0.53674900  0.28687500  0.53641100  1
  C  3144  1  0.55813800  0.28821200  0.52461600  1
  C  3145  1  0.58024200  0.28982900  0.53530800  1
  C  3146  1  0.58100800  0.28981800  0.55729700  1
  C  3149  1  0.55778300  0.28674400  0.50246700  1
  C  3150  1  0.54409900  0.30075600  0.49014500  1
  C  3151  1  0.54493700  0.29970100  0.46810800  1
  C  3152  1  0.55901100  0.28429800  0.45795600  1
  C  3153  1  0.57240200  0.27012800  0.47037800  1
  C  3154  1  0.57181500  0.27133900  0.49232400  1
  C  3161  1  0.62076000  0.58153700  0.56965100  1
  C  3162  1  0.64281300  0.58421200  0.55916100  1
  C  3163  1  0.64375300  0.58377700  0.53711500  1
  C  3164  1  0.62255600  0.58129000  0.52525300  1
  C  3165  1  0.60054700  0.57850200  0.53583700  1
  C  3166  1  0.59966700  0.57848000  0.55782400  1
  C  3169  1  0.62291400  0.58287400  0.50313400  1
  C  3170  1  0.63695000  0.56915200  0.49080400  1
  C  3171  1  0.63605800  0.57022200  0.46877300  1
  C  3172  1  0.62157300  0.58535800  0.45866500  1
  C  3173  1  0.60787200  0.59928600  0.47109200  1
  C  3174  1  0.60847400  0.59802300  0.49304100  1
  C  3181  1  0.12083800  0.28833300  0.95721000  1
  C  3182  1  0.14291200  0.28590800  0.96772600  1
  C  3183  1  0.14379600  0.28631600  0.98977500  1
  C  3184  1  0.12254200  0.28855400  0.00161100  1
  C  3185  1  0.10051500  0.29111000  0.99099200  1
  C  3186  1  0.09967500  0.29112300  0.96900600  1
  C  3189  1  0.12288300  0.28697800  0.02373500  1
  C  3190  1  0.13683400  0.30075600  0.03607800  1
  C  3191  1  0.13590600  0.29969500  0.05810900  1
  C  3192  1  0.12149800  0.28449600  0.06821000  1
  C  3193  1  0.10788700  0.27051400  0.05576600  1
  C  3194  1  0.10852600  0.27176400  0.03381800  1
  C  3201  1  0.65192500  0.04159600  0.64654000  1
  C  3202  1  0.66346700  0.03532100  0.66520300  1
  C  3203  1  0.68838100  0.03749500  0.66727600  1
  C  3204  1  0.70236400  0.04564500  0.65063800  1
  C  3205  1  0.69065500  0.05172400  0.63191700  1
  C  3206  1  0.66574100  0.04981100  0.62990400  1
  C  3209  1  0.72758800  0.04777400  0.65262200  1
  C  3210  1  0.74161100  0.03165800  0.66172700  1
  C  3211  1  0.76646600  0.03405100  0.66408300  1
  C  3212  1  0.77791000  0.05250500  0.65705000  1
  C  3213  1  0.76407400  0.06857400  0.64778300  1
  C  3214  1  0.73921700  0.06625000  0.64567500  1
  C  3221  1  0.15194900  0.82829500  0.88041700  1
  C  3222  1  0.16347600  0.83455000  0.86173900  1
  C  3223  1  0.18838700  0.83235600  0.85964900  1
  C  3224  1  0.20237700  0.82420400  0.87628100  1
  C  3225  1  0.19068200  0.81814600  0.89501700  1
  C  3226  1  0.16577400  0.82008900  0.89705100  1
  C  3229  1  0.22759800  0.82205200  0.87427800  1
  C  3230  1  0.24162800  0.83815600  0.86516000  1
  C  3231  1  0.26648300  0.83575200  0.86280700  1
  C  3232  1  0.27791800  0.81729300  0.86984700  1
  C  3233  1  0.26406500  0.80122800  0.87910200  1
  C  3234  1  0.23921200  0.80356800  0.88121900  1
  C  3241  1  0.40211300  0.81778300  0.65697900  1
  C  3242  1  0.41374600  0.83639900  0.66331100  1
  C  3243  1  0.43866400  0.83840200  0.66110400  1
  C  3244  1  0.45255700  0.82173900  0.65286200  1
  C  3245  1  0.44075700  0.80305900  0.64674400  1
  C  3246  1  0.41583900  0.80111800  0.64868800  1
  C  3249  1  0.47777500  0.82368100  0.65064100  1
  C  3250  1  0.49190500  0.83272100  0.66671300  1
  C  3251  1  0.51674400  0.83508700  0.66420700  1
  C  3252  1  0.52806700  0.82813000  0.64567900  1
  C  3253  1  0.51412300  0.81891600  0.62966000  1
  C  3254  1  0.48928100  0.81679800  0.63209900  1
  C  3261  1  0.90209160  0.05209600  0.86997800  1
  C  3262  1  0.91373460  0.03347900  0.86366200  1
  C  3263  1  0.93865260  0.03148900  0.86587400  1
  C  3264  1  0.95253560  0.04816500  0.87410600  1
  C  3265  1  0.94072460  0.06684300  0.88021200  1
  C  3266  1  0.91580860  0.06877600  0.87825100  1
  C  3269  1  0.97775460  0.04623400  0.87633000  1
  C  3270  1  0.99188659  0.03719100  0.86026300  1
  C  3271  1  0.01672800  0.03483600  0.86276900  1
  C  3272  1  0.02804900  0.04179900  0.88129600  1
  C  3273  1  0.01409700  0.05100000  0.89731600  1
  C  3274  1  0.98925660  0.05311900  0.89487300  1
  C  3281  1  0.52794200  0.82781000  0.37749800  1
  C  3282  1  0.51586600  0.83379400  0.35899700  1
  C  3283  1  0.49086700  0.83184400  0.35760500  1
  C  3284  1  0.47733400  0.82422200  0.37476800  1
  C  3285  1  0.48957700  0.81836000  0.39329400  1
  C  3286  1  0.51457000  0.82006400  0.39463600  1
  C  3289  1  0.45202100  0.82242900  0.37349300  1
  C  3290  1  0.43800600  0.83859500  0.36447000  1
  C  3291  1  0.41307500  0.83643300  0.36258100  1
  C  3292  1  0.40154500  0.81816800  0.37000200  1
  C  3293  1  0.41537300  0.80210800  0.37930100  1
  C  3294  1  0.44030400  0.80420600  0.38096400  1
  C  3301  1  0.02790500  0.04208900  0.14951000  1
  C  3302  1  0.01583800  0.03613000  0.16802300  1
  C  3303  1  0.99084059  0.03809800  0.16942700  1
  C  3304  1  0.97730460  0.04571900  0.15226300  1
  C  3305  1  0.98954060  0.05155900  0.13372800  1
  C  3306  1  0.01452900  0.04982100  0.13236900  1
  C  3309  1  0.95199360  0.04752600  0.15354800  1
  C  3310  1  0.93797360  0.03136500  0.16257100  1
  C  3311  1  0.91304160  0.03352800  0.16444700  1
  C  3312  1  0.90151360  0.05178900  0.15701700  1
  C  3313  1  0.91535360  0.06785600  0.14774100  1
  C  3314  1  0.94028560  0.06575400  0.14608000  1
  C  3321  1  0.77865000  0.05143300  0.37027300  1
  C  3322  1  0.76690500  0.03301200  0.36353800  1
  C  3323  1  0.74191900  0.03124900  0.36527500  1
  C  3324  1  0.72806400  0.04797000  0.37344200  1
  C  3325  1  0.73998000  0.06639800  0.38011900  1
  C  3326  1  0.76496500  0.06809900  0.37862700  1
  C  3329  1  0.70274900  0.04636700  0.37491000  1
  C  3330  1  0.68907500  0.03785800  0.35825600  1
  C  3331  1  0.66413400  0.03569500  0.36003900  1
  C  3332  1  0.65225500  0.04233100  0.37841500  1
  C  3333  1  0.66574300  0.05108500  0.39498800  1
  C  3334  1  0.69068500  0.05302000  0.39325800  1
  C  3341  1  0.27868800  0.81841600  0.15666400  1
  C  3342  1  0.26693900  0.83684100  0.16338500  1
  C  3343  1  0.24195200  0.83859600  0.16164600  1
  C  3344  1  0.22810400  0.82186700  0.15348800  1
  C  3345  1  0.24002500  0.80343700  0.14682100  1
  C  3346  1  0.26500900  0.80173600  0.14833100  1
  C  3349  1  0.20278700  0.82346500  0.15201800  1
  C  3350  1  0.18911500  0.83197800  0.16866900  1
  C  3351  1  0.16417400  0.83413800  0.16688800  1
  C  3352  1  0.15229100  0.82749500  0.14851600  1
  C  3353  1  0.16578100  0.81875200  0.13194000  1
  C  3354  1  0.19072200  0.81681100  0.13367000  1
  C  3361  1  0.15149800  0.54182600  0.14694800  1
  C  3362  1  0.16319800  0.53517500  0.16540700  1
  C  3363  1  0.18817300  0.53698400  0.16723300  1
  C  3364  1  0.20206800  0.54513000  0.15053600  1
  C  3365  1  0.19019300  0.55170700  0.13206400  1
  C  3366  1  0.16521800  0.55015100  0.13030100  1
  C  3369  1  0.22737900  0.54666600  0.15219300  1
  C  3370  1  0.24107600  0.53008600  0.16084000  1
  C  3371  1  0.26601000  0.53192700  0.16302300  1
  C  3372  1  0.27786800  0.55028400  0.15626100  1
  C  3373  1  0.26436100  0.56678400  0.14738000  1
  C  3374  1  0.23942300  0.56500200  0.14543200  1
  C  3381  1  0.65157100  0.32801100  0.38001300  1
  C  3382  1  0.66325700  0.33463600  0.36153800  1
  C  3383  1  0.68822800  0.33280900  0.35969700  1
  C  3384  1  0.70213100  0.32466600  0.37639000  1
  C  3385  1  0.69027000  0.31811500  0.39487600  1
  C  3386  1  0.66530000  0.31970300  0.39666100  1
  C  3389  1  0.72743800  0.32310500  0.37471200  1
  C  3390  1  0.74114400  0.33967100  0.36604900  1
  C  3391  1  0.76607800  0.33781700  0.36386800  1
  C  3392  1  0.77792700  0.31946200  0.37064300  1
  C  3393  1  0.76440500  0.30296500  0.37951800  1
  C  3394  1  0.73947100  0.30476400  0.38147400  1
  C  3401  1  0.90220660  0.32017600  0.15621600  1
  C  3402  1  0.91420260  0.33871300  0.16225300  1
  C  3403  1  0.93918660  0.34022100  0.16024500  1
  C  3404  1  0.95278660  0.32313500  0.15250900  1
  C  3405  1  0.94062460  0.30456100  0.14662100  1
  C  3406  1  0.91564360  0.30310600  0.14838100  1
  C  3409  1  0.97808260  0.32453400  0.15061200  1
  C  3410  1  0.99214059  0.33357800  0.16672600  1
  C  3411  1  0.01705700  0.33554100  0.16448000  1
  C  3412  1  0.02852900  0.32817600  0.14617900  1
  C  3413  1  0.01465600  0.31887900  0.13015700  1
  C  3414  1  0.98974160  0.31714700  0.13233900  1
  C  3421  1  0.40219500  0.54966400  0.37076300  1
  C  3422  1  0.41419400  0.53112000  0.36475200  1
  C  3423  1  0.43918000  0.52962400  0.36676000  1
  C  3424  1  0.45277400  0.54672500  0.37447000  1
  C  3425  1  0.44060600  0.56530200  0.38033500  1
  C  3426  1  0.41562700  0.56675300  0.37856300  1
  C  3429  1  0.47807100  0.54533400  0.37636200  1
  C  3430  1  0.49212400  0.53627900  0.36024900  1
  C  3431  1  0.51704000  0.53432300  0.36248700  1
  C  3432  1  0.52852100  0.54170200  0.38077900  1
  C  3433  1  0.51465100  0.55099500  0.39680400  1
  C  3434  1  0.48973500  0.55273200  0.39462700  1
  C  3441  1  0.02846200  0.32775700  0.87786300  1
  C  3442  1  0.01637700  0.33416200  0.85950600  1
  C  3443  1  0.99134759  0.33250800  0.85817400  1
  C  3444  1  0.97779560  0.32475400  0.87526400  1
  C  3445  1  0.99004259  0.31837500  0.89361300  1
  C  3446  1  0.01506600  0.31980200  0.89489400  1
  C  3449  1  0.95244460  0.32340000  0.87409900  1
  C  3450  1  0.93871760  0.34000400  0.86554400  1
  C  3451  1  0.91374260  0.33826800  0.86368700  1
  C  3452  1  0.90188460  0.31999100  0.87066700  1
  C  3453  1  0.91543260  0.30350200  0.87953000  1
  C  3454  1  0.94040560  0.30518600  0.88117800  1
  C  3461  1  0.52840800  0.54218700  0.64910100  1
  C  3462  1  0.51634500  0.53580800  0.66747900  1
  C  3463  1  0.49132100  0.53748300  0.66883400  1
  C  3464  1  0.47775300  0.54523400  0.65175200  1
  C  3465  1  0.48998000  0.55158400  0.63338300  1
  C  3466  1  0.51499800  0.55012300  0.63207200  1
  C  3469  1  0.45240700  0.54660900  0.65294500  1
  C  3470  1  0.43867400  0.53001800  0.66151500  1
  C  3471  1  0.41369900  0.53176400  0.66337600  1
  C  3472  1  0.40184500  0.55003800  0.65638200  1
  C  3473  1  0.41540500  0.56652500  0.64752900  1
  C  3474  1  0.44037600  0.56483000  0.64587000  1
  C  3481  1  0.27830000  0.54944000  0.87061300  1
  C  3482  1  0.26626200  0.53100700  0.86431700  1
  C  3483  1  0.24123600  0.52964300  0.86597000  1
  C  3484  1  0.22764600  0.54677200  0.87361300  1
  C  3485  1  0.23984400  0.56520800  0.87984900  1
  C  3486  1  0.26486200  0.56652200  0.87842600  1
  C  3489  1  0.20230400  0.54556800  0.87501000  1
  C  3490  1  0.18856400  0.53689300  0.85849000  1
  C  3491  1  0.16358900  0.53505000  0.86025600  1
  C  3492  1  0.15174900  0.54216100  0.87847600  1
  C  3493  1  0.16531300  0.55112600  0.89488900  1
  C  3494  1  0.19028500  0.55276000  0.89317700  1
  C  3501  1  0.77828800  0.32046800  0.65633900  1
  C  3502  1  0.76624800  0.33891000  0.66260200  1
  C  3503  1  0.74122100  0.34026600  0.66094100  1
  C  3504  1  0.72763600  0.32312100  0.65332200  1
  C  3505  1  0.73984200  0.30467900  0.64711400  1
  C  3506  1  0.76485800  0.30336700  0.64856000  1
  C  3509  1  0.70229600  0.32432200  0.65191800  1
  C  3510  1  0.68855400  0.33301500  0.66842800  1
  C  3511  1  0.66358100  0.33485900  0.66666667  1
  C  3512  1  0.65173900  0.32772900  0.64844500  1
  C  3513  1  0.66530900  0.31876100  0.63203700  1
  C  3514  1  0.69027900  0.31711800  0.63375500  1
  C  3521  1  0.59050100  0.87873800  0.63195700  1
  C  3522  1  0.60364300  0.88993200  0.64722500  1
  C  3523  1  0.60370400  0.91212310  0.64748400  1
  C  3524  1  0.59035900  0.92413310  0.63277000  1
  C  3525  1  0.57785100  0.91272310  0.61713700  1
  C  3526  1  0.57783100  0.89058700  0.61678400  1
  C  3529  1  0.58868500  0.94676210  0.63402500  1
  C  3530  1  0.58765200  0.95729010  0.65361300  1
  C  3531  1  0.58726300  0.97939210  0.65495900  1
  C  3532  1  0.58738800  0.99207309  0.63674100  1
  C  3533  1  0.58771800  0.98175210  0.61710900  1
  C  3534  1  0.58819800  0.95960510  0.61581900  1
  C  3541  1  0.09041700  0.99116209  0.89505000  1
  C  3542  1  0.10362700  0.97999110  0.87981000  1
  C  3543  1  0.10370600  0.95780010  0.87955400  1
  C  3544  1  0.09034700  0.94578010  0.89425100  1
  C  3545  1  0.07780000  0.95717810  0.90987000  1
  C  3546  1  0.07773400  0.97931410  0.91020700  1
  C  3549  1  0.08871600  0.92315010  0.89300600  1
  C  3550  1  0.08771700  0.91261210  0.87342200  1
  C  3551  1  0.08735700  0.89050800  0.87209000  1
  C  3552  1  0.08743000  0.87782100  0.89031000  1
  C  3553  1  0.08776700  0.88816700  0.90992700  1
  C  3554  1  0.08822200  0.91031210  0.91121500  1
  C  3561  1  0.34060400  0.80373000  0.81948700  1
  C  3562  1  0.35357900  0.81908400  0.80826200  1
  C  3563  1  0.35362200  0.81927300  0.78609100  1
  C  3564  1  0.34042800  0.80440000  0.77414600  1
  C  3565  1  0.32810800  0.78867200  0.78559700  1
  C  3566  1  0.32810400  0.78838400  0.80771400  1
  C  3569  1  0.33870900  0.80559000  0.75154100  1
  C  3570  1  0.33742900  0.82516400  0.74098100  1
  C  3571  1  0.33701700  0.82646100  0.71889600  1
  C  3572  1  0.33735200  0.80820000  0.70627200  1
  C  3573  1  0.33793500  0.78857500  0.71662400  1
  C  3574  1  0.33843500  0.78733500  0.73875200  1
  C  3581  1  0.84053100  0.06613700  0.70744300  1
  C  3582  1  0.85352100  0.05079300  0.71867800  1
  C  3583  1  0.85357100  0.05060600  0.74085000  1
  C  3584  1  0.84037000  0.06547500  0.75279600  1
  C  3585  1  0.82803900  0.08119300  0.74134400  1
  C  3586  1  0.82801100  0.08145900  0.71922900  1
  C  3589  1  0.83868200  0.06430200  0.77540500  1
  C  3590  1  0.83743900  0.04473400  0.78598500  1
  C  3591  1  0.83705700  0.04345800  0.80807100  1
  C  3592  1  0.83734400  0.06173500  0.82068300  1
  C  3593  1  0.83792100  0.08134200  0.81030900  1
  C  3594  1  0.83839700  0.08256600  0.78818100  1
  C  3601  1  0.59020300  0.99105509  0.39054900  1
  C  3602  1  0.57634700  0.98000510  0.37567500  1
  C  3603  1  0.57607800  0.95781910  0.37539100  1
  C  3604  1  0.58985100  0.94570310  0.38971100  1
  C  3605  1  0.60305000  0.95698510  0.40499300  1
  C  3606  1  0.60327900  0.97910810  0.40537600  1
  C  3609  1  0.59125100  0.92307910  0.38841600  1
  C  3610  1  0.59147700  0.91256010  0.36880500  1
  C  3611  1  0.59169500  0.89046300  0.36745500  1
  C  3612  1  0.59220900  0.87780000  0.38567600  1
  C  3613  1  0.59268500  0.88810800  0.40531100  1
  C  3614  1  0.59233600  0.91024710  0.40660900  1
  C  3621  1  0.09030800  0.87880900  0.13637300  1
  C  3622  1  0.07633900  0.88982700  0.15119200  1
  C  3623  1  0.07603800  0.91201410  0.15148200  1
  C  3624  1  0.08985700  0.92415110  0.13721400  1
  C  3625  1  0.10313800  0.91289310  0.12196800  1
  C  3626  1  0.10342700  0.89077200  0.12159300  1
  C  3629  1  0.09120500  0.94677610  0.13851200  1
  C  3630  1  0.09134600  0.95729410  0.15812500  1
  C  3631  1  0.09153400  0.97939210  0.15947500  1
  C  3632  1  0.09214000  0.99207109  0.14126000  1
  C  3633  1  0.09265500  0.98175010  0.12163400  1
  C  3634  1  0.09233700  0.95961310  0.12032700  1
  C  3641  1  0.83914400  0.06578200  0.20750000  1
  C  3642  1  0.82604100  0.05056300  0.21879600  1
  C  3643  1  0.82611300  0.05039900  0.24096700  1
  C  3644  1  0.83954700  0.06516400  0.25283800  1
  C  3645  1  0.85197600  0.08077800  0.24132600  1
  C  3646  1  0.85187200  0.08103700  0.21920700  1
  C  3649  1  0.84140900  0.06394700  0.27543200  1
  C  3650  1  0.84262700  0.04435100  0.28595400  1
  C  3651  1  0.84317800  0.04301800  0.30803100  1
  C  3652  1  0.84303100  0.06125900  0.32068900  1
  C  3653  1  0.84253000  0.08090500  0.31037000  1
  C  3654  1  0.84190300  0.08218300  0.28824500  1
  C  3661  1  0.33925900  0.80408700  0.31946300  1
  C  3662  1  0.32613800  0.81929600  0.30816000  1
  C  3663  1  0.32620100  0.81946100  0.28599100  1
  C  3664  1  0.33963800  0.80470200  0.27411300  1
  C  3665  1  0.35208600  0.78909900  0.28562400  1
  C  3666  1  0.35201000  0.78886100  0.30774300  1
  C  3669  1  0.34146500  0.80590400  0.25151600  1
  C  3670  1  0.34265200  0.82549200  0.24097800  1
  C  3671  1  0.34317100  0.82680500  0.21889800  1
  C  3672  1  0.34307500  0.80855700  0.20623900  1
  C  3673  1  0.34256100  0.78893100  0.21658900  1
  C  3674  1  0.34196100  0.78766200  0.23871400  1
  C  3681  1  0.09092900  0.37872600  0.13224500  1
  C  3682  1  0.10398700  0.38999800  0.14751200  1
  C  3683  1  0.10394900  0.41219100  0.14773700  1
  C  3684  1  0.09058500  0.42414100  0.13298700  1
  C  3685  1  0.07817800  0.41265800  0.11734300  1
  C  3686  1  0.07824900  0.39051800  0.11702900  1
  C  3689  1  0.08878000  0.44676800  0.13423700  1
  C  3690  1  0.08763400  0.45728700  0.15382700  1
  C  3691  1  0.08712000  0.47938800  0.15518500  1
  C  3692  1  0.08723100  0.49208900  0.13698000  1
  C  3693  1  0.08767400  0.48177400  0.11734300  1
  C  3694  1  0.08826800  0.45962600  0.11604100  1
  C  3701  1  0.59084800  0.49111200  0.39474000  1
  C  3702  1  0.60398500  0.47986500  0.37950500  1
  C  3703  1  0.60397400  0.45767100  0.37928400  1
  C  3704  1  0.59058700  0.44571000  0.39401200  1
  C  3705  1  0.57812700  0.45717800  0.40963600  1
  C  3706  1  0.57814500  0.47931700  0.40993200  1
  C  3709  1  0.58883200  0.42308000  0.39277000  1
  C  3710  1  0.58773600  0.41255000  0.37318400  1
  C  3711  1  0.58725600  0.39044700  0.37184000  1
  C  3712  1  0.58730400  0.37774000  0.39004900  1
  C  3713  1  0.58774100  0.38808100  0.40967000  1
  C  3714  1  0.58830500  0.41022800  0.41097000  1
  C  3721  1  0.83991000  0.30691200  0.31940300  1
  C  3722  1  0.85374500  0.32177900  0.30831100  1
  C  3723  1  0.85399000  0.32203100  0.28613700  1
  C  3724  1  0.84022900  0.30767800  0.27404300  1
  C  3725  1  0.82705100  0.29239900  0.28536700  1
  C  3726  1  0.82682200  0.29206200  0.30748300  1
  C  3729  1  0.83882500  0.30894300  0.25141400  1
  C  3730  1  0.83864900  0.32855300  0.24086500  1
  C  3731  1  0.83843800  0.32988600  0.21877900  1
  C  3732  1  0.83790400  0.31165000  0.20611500  1
  C  3733  1  0.83738300  0.29201500  0.21645500  1
  C  3734  1  0.83770000  0.29073300  0.23858700  1
  C  3741  1  0.33978200  0.56288300  0.20755000  1
  C  3742  1  0.35366300  0.54804100  0.21864100  1
  C  3743  1  0.35392500  0.54778800  0.24081600  1
  C  3744  1  0.34014300  0.56212000  0.25292000  1
  C  3745  1  0.32692400  0.57737300  0.24160300  1
  C  3746  1  0.32665900  0.57769400  0.21949000  1
  C  3749  1  0.33878200  0.56086700  0.27555200  1
  C  3750  1  0.33866400  0.54126500  0.28611400  1
  C  3751  1  0.33848700  0.53994900  0.30820200  1
  C  3752  1  0.33788200  0.55818900  0.32086800  1
  C  3753  1  0.33734600  0.57780700  0.31050000  1
  C  3754  1  0.33763500  0.57908000  0.28836900  1
  C  3761  1  0.08979000  0.49103800  0.89146400  1
  C  3762  1  0.07599300  0.47990100  0.87661400  1
  C  3763  1  0.07583500  0.45771800  0.87638500  1
  C  3764  1  0.08967600  0.44570400  0.89073500  1
  C  3765  1  0.10278500  0.45706200  0.90601700  1
  C  3766  1  0.10291100  0.47918700  0.90633900  1
  C  3769  1  0.09126100  0.42310200  0.88942200  1
  C  3770  1  0.09175700  0.41263500  0.86979000  1
  C  3771  1  0.09212000  0.39054600  0.86839200  1
  C  3772  1  0.09250000  0.37785200  0.88659100  1
  C  3773  1  0.09273100  0.38811100  0.90625600  1
  C  3774  1  0.09225800  0.41024700  0.90760000  1
  C  3781  1  0.58985600  0.37889100  0.63542500  1
  C  3782  1  0.57597600  0.39000300  0.65023600  1
  C  3783  1  0.57579700  0.41218700  0.65046700  1
  C  3784  1  0.58966400  0.42421500  0.63614800  1
  C  3785  1  0.60283000  0.41287400  0.62089000  1
  C  3786  1  0.60300500  0.39074900  0.62058100  1
  C  3789  1  0.59120600  0.44682000  0.63745800  1
  C  3790  1  0.59165200  0.45729000  0.65708900  1
  C  3791  1  0.59198700  0.47937900  0.65848000  1
  C  3792  1  0.59243300  0.49208600  0.64028300  1
  C  3793  1  0.59266900  0.48180700  0.62063000  1
  C  3794  1  0.59222200  0.45967300  0.61928100  1
  C  3801  1  0.33990900  0.56268500  0.70757200  1
  C  3802  1  0.32628200  0.54772400  0.71873300  1
  C  3803  1  0.32619400  0.54746200  0.74090800  1
  C  3804  1  0.33993900  0.56188800  0.75293200  1
  C  3805  1  0.35292400  0.57724300  0.74154200  1
  C  3806  1  0.35298300  0.57759900  0.71942700  1
  C  3809  1  0.34150800  0.56062700  0.77555400  1
  C  3810  1  0.34185300  0.54102000  0.78610900  1
  C  3811  1  0.34218800  0.53969500  0.80819400  1
  C  3812  1  0.34268600  0.55793600  0.82085000  1
  C  3813  1  0.34305100  0.57757100  0.81050200  1
  C  3814  1  0.34261100  0.57884100  0.78837200  1
  C  3821  1  0.84003000  0.30726900  0.81942000  1
  C  3822  1  0.82633700  0.32219300  0.80826200  1
  C  3823  1  0.82622700  0.32245700  0.78608500  1
  C  3824  1  0.84000900  0.30806900  0.77404900  1
  C  3825  1  0.85305600  0.29274800  0.78543000  1
  C  3826  1  0.85315600  0.29241000  0.80754500  1
  C  3829  1  0.84152900  0.30932000  0.75142500  1
  C  3830  1  0.84179200  0.32891900  0.74085800  1
  C  3831  1  0.84208900  0.33022600  0.71877100  1
  C  3832  1  0.84267700  0.31198200  0.70611000  1
  C  3833  1  0.84308000  0.29236600  0.71648600  1
  C  3834  1  0.84267300  0.29110100  0.73861500  1
  O  17  1  0.98623300  0.08968000  0.62525200  1
  O  18  1  0.01173500  0.15467900  0.65381100  1
  O  37  1  0.48629300  0.90580300  0.90180600  1
  O  38  1  0.51175400  0.84081600  0.87318300  1
  O  57  1  0.73619000  0.85984700  0.67138400  1
  O  58  1  0.76213500  0.88862700  0.60668300  1
  O  77  1  0.23618900  0.13566100  0.85557500  1
  O  78  1  0.26212200  0.10687500  0.92029900  1
  O  97  1  0.55287500  0.08880800  0.90378700  1
  O  98  1  0.52857600  0.15361300  0.87396300  1
  O  117  1  0.05288700  0.90666000  0.62314700  1
  O  118  1  0.02859300  0.84190200  0.65300500  1
  O  137  1  0.80297100  0.85807100  0.85443700  1
  O  138  1  0.77827500  0.88817500  0.91890400  1
  O  157  1  0.30292900  0.13739300  0.67250600  1
  O  158  1  0.27825700  0.10731100  0.60799300  1
  O  177  1  0.05323300  0.90634700  0.39759400  1
  O  178  1  0.02805700  0.83963700  0.37238600  1
  O  197  1  0.55315700  0.08911100  0.12933400  1
  O  198  1  0.52801000  0.15585000  0.15453300  1
  O  217  1  0.30382400  0.13556400  0.35541800  1
  O  218  1  0.28081200  0.10622200  0.41988100  1
  O  237  1  0.80385000  0.85986100  0.17150000  1
  O  238  1  0.78085400  0.88920500  0.10703000  1
  O  257  1  0.48689000  0.90728100  0.12739500  1
  O  258  1  0.51067200  0.84083500  0.15405700  1
  O  277  1  0.98686300  0.08820700  0.39959900  1
  O  278  1  0.01068600  0.15463400  0.37294900  1
  O  297  1  0.23628600  0.13731000  0.17264700  1
  O  298  1  0.25838000  0.10663500  0.10845600  1
  O  317  1  0.73636700  0.85814000  0.35429800  1
  O  318  1  0.75837700  0.88883600  0.41851500  1
  O  337  1  0.48594100  0.58962700  0.12546600  1
  O  338  1  0.50936800  0.65435300  0.15468000  1
  O  357  1  0.98604100  0.40578500  0.40156700  1
  O  358  1  0.00943600  0.34107600  0.37230600  1
  O  377  1  0.23651200  0.36254800  0.17173300  1
  O  378  1  0.26181800  0.38816900  0.10509400  1
  O  397  1  0.73650700  0.63288300  0.35525000  1
  O  398  1  0.76184300  0.60733800  0.42192600  1
  O  417  1  0.05329600  0.58879800  0.40343400  1
  O  418  1  0.03060000  0.65324100  0.37297400  1
  O  437  1  0.55329600  0.40660300  0.12346900  1
  O  438  1  0.53057200  0.34218800  0.15392900  1
  O  457  1  0.30274800  0.36070700  0.35383100  1
  O  458  1  0.28072200  0.38850400  0.41970700  1
  O  477  1  0.80264800  0.63470500  0.17314000  1
  O  478  1  0.78071000  0.60693300  0.10722900  1
  O  497  1  0.55353600  0.40642700  0.89860200  1
  O  498  1  0.53149400  0.34042900  0.87201300  1
  O  517  1  0.05344300  0.58911200  0.62825900  1
  O  518  1  0.03146500  0.65511000  0.65487900  1
  O  537  1  0.80353600  0.63275200  0.85526100  1
  O  538  1  0.77808700  0.60731000  0.92194300  1
  O  557  1  0.30352000  0.36276900  0.67170400  1
  O  558  1  0.27805800  0.38813600  0.60499100  1
  O  577  1  0.98661600  0.40730400  0.62629500  1
  O  578  1  0.00753600  0.34173200  0.65456700  1
  O  597  1  0.48663000  0.58825100  0.90067300  1
  O  598  1  0.50756000  0.65380800  0.87243700  1
  O  617  1  0.73665700  0.63473100  0.67316600  1
  O  618  1  0.75861300  0.60712300  0.60717200  1
  O  637  1  0.23674800  0.36079500  0.85380600  1
  O  638  1  0.25860200  0.38840200  0.91982500  1
  O  1937  1  0.55646400  0.02688300  0.62525200  1
  O  1938  1  0.58196600  0.09188200  0.65381100  1
  O  1957  1  0.05652400  0.84300600  0.90180600  1
  O  1958  1  0.08198500  0.77801900  0.87318300  1
  O  1977  1  0.30642100  0.79705000  0.67138400  1
  O  1978  1  0.33236600  0.82583000  0.60668300  1
  O  1997  1  0.80642000  0.07286400  0.85557500  1
  O  1998  1  0.83235300  0.04407800  0.92029900  1
  O  2017  1  0.12310600  0.02601100  0.90378700  1
  O  2018  1  0.09880700  0.09081600  0.87396300  1
  O  2037  1  0.62311800  0.84386300  0.62314700  1
  O  2038  1  0.59882400  0.77910500  0.65300500  1
  O  2057  1  0.37320200  0.79527400  0.85443700  1
  O  2058  1  0.34850600  0.82537800  0.91890400  1
  O  2077  1  0.87316000  0.07459600  0.67250600  1
  O  2078  1  0.84848800  0.04451400  0.60799300  1
  O  2097  1  0.62346400  0.84355000  0.39759400  1
  O  2098  1  0.59828800  0.77684000  0.37238600  1
  O  2117  1  0.12338800  0.02631400  0.12933400  1
  O  2118  1  0.09824100  0.09305300  0.15453300  1
  O  2137  1  0.87405500  0.07276700  0.35541800  1
  O  2138  1  0.85104300  0.04342500  0.41988100  1
  O  2157  1  0.37408100  0.79706400  0.17150000  1
  O  2158  1  0.35108500  0.82640800  0.10703000  1
  O  2177  1  0.05712100  0.84448400  0.12739500  1
  O  2178  1  0.08090300  0.77803800  0.15405700  1
  O  2197  1  0.55709400  0.02541000  0.39959900  1
  O  2198  1  0.58091700  0.09183700  0.37294900  1
  O  2217  1  0.80651700  0.07451300  0.17264700  1
  O  2218  1  0.82861100  0.04383800  0.10845600  1
  O  2237  1  0.30659800  0.79534300  0.35429800  1
  O  2238  1  0.32860800  0.82603900  0.41851500  1
  O  2257  1  0.05617200  0.52683000  0.12546600  1
  O  2258  1  0.07959900  0.59155600  0.15468000  1
  O  2277  1  0.55627200  0.34298800  0.40156700  1
  O  2278  1  0.57966700  0.27827900  0.37230600  1
  O  2297  1  0.80674300  0.29975100  0.17173300  1
  O  2298  1  0.83204900  0.32537200  0.10509400  1
  O  2317  1  0.30673800  0.57008600  0.35525000  1
  O  2318  1  0.33207400  0.54454100  0.42192600  1
  O  2337  1  0.62352700  0.52600100  0.40343400  1
  O  2338  1  0.60083100  0.59044400  0.37297400  1
  O  2357  1  0.12352700  0.34380600  0.12346900  1
  O  2358  1  0.10080300  0.27939100  0.15392900  1
  O  2377  1  0.87297900  0.29791000  0.35383100  1
  O  2378  1  0.85095300  0.32570700  0.41970700  1
  O  2397  1  0.37287900  0.57190800  0.17314000  1
  O  2398  1  0.35094100  0.54413600  0.10722900  1
  O  2417  1  0.12376700  0.34363000  0.89860200  1
  O  2418  1  0.10172500  0.27763200  0.87201300  1
  O  2437  1  0.62367400  0.52631500  0.62825900  1
  O  2438  1  0.60169600  0.59231300  0.65487900  1
  O  2457  1  0.37376700  0.56995500  0.85526100  1
  O  2458  1  0.34831800  0.54451300  0.92194300  1
  O  2477  1  0.87375100  0.29997200  0.67170400  1
  O  2478  1  0.84828900  0.32533900  0.60499100  1
  O  2497  1  0.55684700  0.34450700  0.62629500  1
  O  2498  1  0.57776700  0.27893500  0.65456700  1
  O  2517  1  0.05686100  0.52545400  0.90067300  1
  O  2518  1  0.07779100  0.59101100  0.87243700  1
  O  2537  1  0.30688800  0.57193400  0.67316600  1
  O  2538  1  0.32884400  0.54432600  0.60717200  1
  O  2557  1  0.80697900  0.29799800  0.85380600  1
  O  2558  1  0.82883300  0.32560500  0.91982500  1
