# generated using pymatgen
data_H21C36(N3O)2
_symmetry_space_group_name_H-M   'P 1'
_cell_length_a   59.31460000
_cell_length_b   59.31460000
_cell_length_c   59.31460000
_cell_angle_alpha   90.00000000
_cell_angle_beta   90.00000000
_cell_angle_gamma   90.00000000
_symmetry_Int_Tables_number   1
_chemical_formula_structural   H21C36(N3O)2
_chemical_formula_sum   'H756 C1296 N216 O72'
_cell_volume   208681.91718628
_cell_formula_units_Z   36
loop_
 _symmetry_equiv_pos_site_id
 _symmetry_equiv_pos_as_xyz
  1  'x, y, z'
loop_
 _atom_site_type_symbol
 _atom_site_label
 _atom_site_symmetry_multiplicity
 _atom_site_fract_x
 _atom_site_fract_y
 _atom_site_fract_z
 _atom_site_occupancy
  H  49  1  0.97253400  0.62442400  0.50126200  1
  H  50  1  0.97246800  0.58422000  0.50088300  1
  H  51  1  0.04128900  0.62456900  0.48286900  1
  H  52  1  0.04154900  0.58425000  0.48373700  1
  H  53  1  0.00774100  0.56924100  0.44734000  1
  H  54  1  0.00949800  0.53692100  0.41960100  1
  H  55  1  0.00913600  0.51037500  0.48312500  1
  H  56  1  0.00894700  0.48457300  0.51267800  1
  H  57  1  0.00651900  0.57660300  0.53799500  1
  H  58  1  0.00609800  0.54856400  0.57025400  1
  H  59  1  0.97234200  0.49344600  0.58333300  1
  H  60  1  0.97161300  0.49246200  0.62347200  1
  H  61  1  0.04083400  0.51285000  0.58501200  1
  H  62  1  0.03970800  0.51320700  0.62534600  1
  H  63  1  0.00830600  0.45797100  0.57618000  1
  H  64  1  0.00870100  0.42568600  0.54845800  1
  H  65  1  0.00985300  0.44629300  0.42556100  1
  H  66  1  0.01000700  0.41829000  0.45785300  1
  H  67  1  0.04192500  0.40917400  0.51404200  1
  H  68  1  0.03907100  0.36875700  0.51687900  1
  H  69  1  0.97350300  0.41243900  0.49436400  1
  H  70  1  0.97100500  0.37207800  0.49650000  1
  H  71  1  0.97407500  0.49920400  0.41294400  1
  H  72  1  0.97210900  0.49674100  0.37255100  1
  H  73  1  0.04105400  0.47930700  0.37005400  1
  H  74  1  0.04334600  0.48246100  0.41050200  1
  H  76  1  0.00697200  0.33702800  0.52236300  1
  H  78  1  0.00805200  0.47170600  0.33838500  1
  H  80  1  0.02265000  0.65797100  0.49585600  1
  H  82  1  0.02082600  0.49888400  0.65805300  1
  H  131  1  0.49539900  0.97167600  0.62388100  1
  H  132  1  0.49858300  0.97425400  0.58356800  1
  H  133  1  0.47869100  0.04076500  0.62717900  1
  H  134  1  0.48256900  0.04366400  0.58682800  1
  H  135  1  0.44672600  0.01050400  0.57011400  1
  H  136  1  0.41926200  0.01136100  0.53759900  1
  H  137  1  0.48307600  0.01245600  0.51161400  1
  H  138  1  0.51291000  0.00722800  0.48639600  1
  H  139  1  0.53714700  0.00900100  0.57853300  1
  H  140  1  0.56980200  0.00664000  0.55097700  1
  H  141  1  0.58335200  0.97171600  0.49609800  1
  H  142  1  0.62347800  0.97085100  0.49474100  1
  H  143  1  0.58542700  0.04035500  0.51488000  1
  H  144  1  0.62573300  0.03911500  0.51484300  1
  H  145  1  0.57667900  0.00767100  0.46033500  1
  H  146  1  0.54918300  0.00747700  0.42782700  1
  H  147  1  0.42611700  0.01015400  0.44705800  1
  H  148  1  0.45873700  0.00868400  0.41951400  1
  H  149  1  0.51386300  0.04099600  0.41173000  1
  H  150  1  0.51451900  0.03967200  0.37141300  1
  H  151  1  0.49468400  0.97245600  0.41360100  1
  H  152  1  0.49397200  0.97152700  0.37347900  1
  H  153  1  0.41328900  0.97541700  0.50075200  1
  H  154  1  0.37295200  0.97291000  0.49804200  1
  H  155  1  0.36979400  0.04134900  0.47884000  1
  H  156  1  0.41018500  0.04419800  0.48223700  1
  H  158  1  0.50034000  0.02069100  0.33875600  1
  H  160  1  0.33847500  0.00864500  0.47199100  1
  H  162  1  0.47044700  0.00698300  0.65837700  1
  H  164  1  0.65815800  0.02020300  0.50018000  1
  H  213  1  0.62370800  0.49530800  0.97169100  1
  H  214  1  0.58340100  0.49849900  0.97436700  1
  H  215  1  0.62717600  0.47863100  0.04077700  1
  H  216  1  0.58683000  0.48250700  0.04377400  1
  H  217  1  0.56999800  0.44665500  0.01065800  1
  H  218  1  0.53744600  0.41922500  0.01141900  1
  H  219  1  0.51152500  0.48306000  0.01257000  1
  H  220  1  0.48630500  0.51290500  0.00757000  1
  H  221  1  0.57848100  0.53707700  0.00916300  1
  H  222  1  0.55093500  0.56974600  0.00694200  1
  H  223  1  0.49586600  0.58318500  0.97214400  1
  H  224  1  0.49454200  0.62329500  0.97113800  1
  H  225  1  0.51505700  0.58549800  0.04066700  1
  H  226  1  0.51509700  0.62580500  0.03926000  1
  H  227  1  0.46030300  0.57669200  0.00829400  1
  H  228  1  0.42776600  0.54923000  0.00798400  1
  H  229  1  0.44692800  0.42614600  0.01006600  1
  H  230  1  0.41938900  0.45877900  0.00871600  1
  H  231  1  0.41156100  0.51379100  0.04124100  1
  H  232  1  0.37124900  0.51445500  0.03983900  1
  H  233  1  0.41356600  0.49482100  0.97264900  1
  H  234  1  0.37344700  0.49410200  0.97164700  1
  H  235  1  0.50051900  0.41349700  0.97530200  1
  H  236  1  0.49783200  0.37316400  0.97263000  1
  H  237  1  0.47882400  0.36970100  0.04111500  1
  H  238  1  0.48219300  0.41008400  0.04412500  1
  H  240  1  0.33863800  0.50032700  0.02077000  1
  H  242  1  0.47193100  0.33850300  0.00799700  1
  H  244  1  0.65828800  0.47037500  0.00686600  1
  H  246  1  0.50045100  0.65820500  0.02025300  1
  H  295  1  0.47287500  0.12439200  0.00282200  1
  H  296  1  0.47427900  0.08419500  0.00354300  1
  H  297  1  0.54147800  0.12654000  0.98387300  1
  H  298  1  0.54323400  0.08625200  0.98584300  1
  H  299  1  0.50938400  0.07167900  0.94972700  1
  H  300  1  0.50992600  0.04018400  0.92106600  1
  H  301  1  0.51037500  0.01184900  0.98385200  1
  H  302  1  0.51093600  0.98544600  0.01282800  1
  H  303  1  0.50952000  0.07668900  0.04045600  1
  H  304  1  0.50912100  0.04790200  0.07208200  1
  H  305  1  0.47361000  0.99349500  0.08257800  1
  H  306  1  0.47108900  0.99290500  0.12269700  1
  H  307  1  0.54247300  0.01107600  0.08710700  1
  H  308  1  0.53960400  0.01169600  0.12739100  1
  H  309  1  0.50965800  0.95712500  0.07560400  1
  H  310  1  0.50916300  0.92562300  0.04694300  1
  H  311  1  0.50903300  0.94940300  0.92460800  1
  H  312  1  0.50941700  0.92062100  0.95623600  1
  H  313  1  0.54245000  0.90996900  0.01052100  1
  H  314  1  0.53959500  0.86970100  0.01169200  1
  H  315  1  0.47349500  0.91425000  0.99325200  1
  H  316  1  0.47097600  0.87413300  0.99321500  1
  H  317  1  0.47437900  0.00382900  0.91298000  1
  H  318  1  0.47291700  0.00365200  0.87276300  1
  H  319  1  0.54147800  0.98460500  0.87025900  1
  H  320  1  0.54328600  0.98597900  0.91058000  1
  H  322  1  0.51854300  0.83744600  0.99895200  1
  H  324  1  0.52113600  0.99669300  0.83721700  1
  H  326  1  0.52127300  0.15972000  0.99547600  1
  H  328  1  0.51854700  0.99853500  0.15950100  1
  H  377  1  0.00287300  0.47307500  0.12441400  1
  H  378  1  0.00362500  0.47442100  0.08421200  1
  H  379  1  0.98382000  0.54165700  0.12645000  1
  H  380  1  0.98581900  0.54335500  0.08615800  1
  H  381  1  0.94976200  0.50927700  0.07173500  1
  H  382  1  0.92104400  0.50977000  0.04029200  1
  H  383  1  0.98378100  0.51050300  0.01185000  1
  H  384  1  0.01272800  0.51099700  0.98541900  1
  H  385  1  0.04049100  0.50966300  0.07660700  1
  H  386  1  0.07207900  0.50924000  0.04778000  1
  H  387  1  0.08245500  0.47363500  0.99338000  1
  H  388  1  0.12257000  0.47105700  0.99275700  1
  H  389  1  0.08709200  0.54250200  0.01091800  1
  H  390  1  0.12737100  0.53957800  0.01150400  1
  H  391  1  0.07545800  0.50970900  0.95699300  1
  H  392  1  0.04674000  0.50924900  0.92554000  1
  H  393  1  0.92444300  0.50918300  0.94949900  1
  H  394  1  0.95603000  0.50965000  0.92068000  1
  H  395  1  0.01041200  0.54264300  0.91005200  1
  H  396  1  0.01161800  0.53985800  0.86977300  1
  H  397  1  0.99293500  0.47372800  0.91418600  1
  H  398  1  0.99291300  0.47128800  0.87406400  1
  H  399  1  0.91288600  0.47435700  0.00385200  1
  H  400  1  0.87266800  0.47289000  0.00368700  1
  H  401  1  0.87014900  0.54149500  0.98480200  1
  H  402  1  0.91046800  0.54330600  0.98616800  1
  H  404  1  0.99892600  0.51883300  0.83743200  1
  H  406  1  0.83711500  0.52111900  0.99681600  1
  H  408  1  0.99542500  0.52148800  0.15966600  1
  H  410  1  0.15945000  0.51847100  0.99834200  1
  H  459  1  0.12442500  0.00185500  0.47273800  1
  H  460  1  0.08424200  0.00307600  0.47396900  1
  H  461  1  0.12600300  0.98170400  0.54100600  1
  H  462  1  0.08573400  0.98414000  0.54260100  1
  H  463  1  0.07041200  0.94894800  0.50749000  1
  H  464  1  0.03831700  0.92095000  0.50802500  1
  H  465  1  0.01141400  0.98432000  0.51079300  1
  H  466  1  0.98572600  0.01409000  0.51086700  1
  H  467  1  0.07752800  0.03946500  0.50993500  1
  H  468  1  0.04956600  0.07180700  0.50930400  1
  H  469  1  0.99663800  0.08334900  0.47221200  1
  H  470  1  0.99792200  0.12376700  0.46915400  1
  H  471  1  0.01275300  0.08816800  0.54148000  1
  H  472  1  0.01467200  0.12861800  0.53811000  1
  H  473  1  0.95884900  0.07742800  0.50727600  1
  H  474  1  0.92673900  0.04942300  0.50689000  1
  H  475  1  0.94756900  0.92660800  0.50952700  1
  H  476  1  0.91963300  0.95895200  0.50981300  1
  H  477  1  0.91028600  0.01395800  0.54151100  1
  H  478  1  0.87001000  0.01525300  0.53883200  1
  H  479  1  0.91413400  0.99521500  0.47292200  1
  H  480  1  0.87401700  0.99532400  0.47060100  1
  H  481  1  0.00105500  0.91414000  0.47333000  1
  H  482  1  0.99901000  0.87371200  0.47102400  1
  H  483  1  0.98075800  0.87055700  0.53969500  1
  H  484  1  0.98353000  0.91099100  0.54234700  1
  H  486  1  0.83764300  0.00191800  0.51827200  1
  H  488  1  0.97385400  0.83899500  0.50653900  1
  H  490  1  0.15939300  0.99352500  0.52122400  1
  H  492  1  0.02132200  0.15986000  0.50283200  1
  H  499  1  0.96304200  0.46664200  0.19794400  1
  H  504  1  0.01514300  0.51488000  0.19188900  1
  H  509  1  0.95558400  0.45787900  0.27681900  1
  H  510  1  0.95162800  0.45442700  0.23667300  1
  H  511  1  0.97421300  0.47616200  0.31007000  1
  H  512  1  0.02228900  0.52727600  0.29815600  1
  H  523  1  0.02951400  0.46366500  0.79878400  1
  H  528  1  0.97662100  0.51069700  0.80692100  1
  H  533  1  0.03466300  0.45565000  0.71965500  1
  H  534  1  0.03956900  0.45157000  0.75962400  1
  H  535  1  0.01547800  0.47449500  0.68738000  1
  H  536  1  0.96620200  0.52404600  0.70121000  1
  H  547  1  0.19816400  0.96256000  0.46589700  1
  H  552  1  0.19154500  0.01362100  0.51514600  1
  H  557  1  0.27710200  0.95605900  0.45702700  1
  H  558  1  0.23700200  0.95175200  0.45351500  1
  H  559  1  0.31017600  0.97465300  0.47565000  1
  H  560  1  0.29781700  0.02167400  0.52762000  1
  H  571  1  0.79802600  0.03065800  0.46292300  1
  H  576  1  0.80758600  0.97864200  0.51064500  1
  H  581  1  0.71875000  0.03421900  0.45554000  1
  H  582  1  0.75858000  0.03979500  0.45103400  1
  H  583  1  0.68697900  0.01478900  0.47499400  1
  H  584  1  0.70211000  0.96628100  0.52490200  1
  H  595  1  0.46644100  0.19801900  0.96312800  1
  H  600  1  0.51470900  0.19196800  0.01519700  1
  H  605  1  0.45785800  0.27689500  0.95548600  1
  H  606  1  0.45430300  0.23674900  0.95164000  1
  H  607  1  0.47623700  0.31016000  0.97401400  1
  H  608  1  0.52736700  0.29823800  0.02206600  1
  H  619  1  0.46367600  0.79844900  0.02939100  1
  H  624  1  0.51030400  0.80717300  0.97624000  1
  H  629  1  0.45642700  0.71921900  0.03435100  1
  H  630  1  0.45196900  0.75913300  0.03937100  1
  H  631  1  0.47555400  0.68716400  0.01503700  1
  H  632  1  0.52458900  0.70162600  0.96543500  1
  H  643  1  0.46657800  0.96344900  0.79929800  1
  H  648  1  0.51420500  0.01615800  0.80482800  1
  H  653  1  0.45768100  0.95522800  0.72053500  1
  H  654  1  0.45441700  0.95155600  0.76071900  1
  H  655  1  0.47556900  0.97383900  0.68707300  1
  H  656  1  0.52603000  0.02273500  0.69840400  1
  H  667  1  0.46369200  0.02917600  0.19836900  1
  H  672  1  0.51031900  0.97598500  0.18988600  1
  H  677  1  0.45649600  0.03456800  0.27756000  1
  H  678  1  0.45200600  0.03936200  0.23762300  1
  H  679  1  0.47561300  0.01541400  0.30969800  1
  H  680  1  0.52468500  0.96577000  0.29549700  1
  H  691  1  0.96458100  0.19522500  0.52596800  1
  H  696  1  0.01239000  0.19078800  0.47346000  1
  H  701  1  0.95692200  0.27384500  0.53735100  1
  H  702  1  0.95325500  0.23360500  0.53959900  1
  H  703  1  0.97426500  0.30781100  0.51922100  1
  H  704  1  0.01873700  0.29806800  0.46455000  1
  H  715  1  0.03041400  0.80132000  0.52550100  1
  H  720  1  0.97936500  0.80775200  0.47635600  1
  H  725  1  0.03676000  0.72234100  0.53524700  1
  H  726  1  0.04130800  0.76244600  0.53813000  1
  H  727  1  0.01781800  0.68932100  0.51754000  1
  H  728  1  0.96975600  0.70102600  0.46631500  1
  H  739  1  0.19825000  0.46361400  0.02901700  1
  H  744  1  0.18983000  0.51020600  0.97578400  1
  H  749  1  0.27743900  0.45647600  0.03455300  1
  H  750  1  0.23749600  0.45195800  0.03927600  1
  H  751  1  0.30959500  0.47561400  0.01545400  1
  H  752  1  0.29544500  0.52466300  0.96577200  1
  H  763  1  0.79921900  0.46662200  0.96342300  1
  H  768  1  0.80470400  0.51417200  0.01620800  1
  H  773  1  0.72046100  0.45772700  0.95513900  1
  H  774  1  0.76064900  0.45447500  0.95148500  1
  H  775  1  0.68698400  0.47557900  0.97376300  1
  H  776  1  0.69828100  0.52597100  0.02273500  1
  H  829  1  0.10740800  0.75929800  0.63613600  1
  H  830  1  0.10734200  0.71909400  0.63575700  1
  H  831  1  0.17616300  0.75944300  0.61774300  1
  H  832  1  0.17642300  0.71912400  0.61861100  1
  H  833  1  0.14261500  0.70411500  0.58221400  1
  H  834  1  0.14437200  0.67179500  0.55447500  1
  H  835  1  0.14401000  0.64524900  0.61799900  1
  H  836  1  0.14382100  0.61944700  0.64755200  1
  H  837  1  0.14139300  0.71147700  0.67286900  1
  H  838  1  0.14097200  0.68343800  0.70512800  1
  H  839  1  0.10721600  0.62832000  0.71820700  1
  H  840  1  0.10648700  0.62733600  0.75834600  1
  H  841  1  0.17570800  0.64772400  0.71988600  1
  H  842  1  0.17458200  0.64808100  0.76022000  1
  H  843  1  0.14318000  0.59284500  0.71105400  1
  H  844  1  0.14357500  0.56056000  0.68333200  1
  H  845  1  0.14472700  0.58116700  0.56043500  1
  H  846  1  0.14488100  0.55316400  0.59272700  1
  H  847  1  0.17679900  0.54404800  0.64891600  1
  H  848  1  0.17394500  0.50363100  0.65175300  1
  H  849  1  0.10837700  0.54731300  0.62923800  1
  H  850  1  0.10587900  0.50695200  0.63137400  1
  H  851  1  0.10894900  0.63407800  0.54781800  1
  H  852  1  0.10698300  0.63161500  0.50742500  1
  H  853  1  0.17592800  0.61418100  0.50492800  1
  H  854  1  0.17822000  0.61733500  0.54537600  1
  H  856  1  0.14184600  0.47190200  0.65723700  1
  H  858  1  0.14292600  0.60658000  0.47325900  1
  H  860  1  0.15752400  0.79284500  0.63073000  1
  H  862  1  0.15570000  0.63375800  0.79292700  1
  H  911  1  0.63027300  0.10655000  0.75875500  1
  H  912  1  0.63345700  0.10912800  0.71844200  1
  H  913  1  0.61356500  0.17563900  0.76205300  1
  H  914  1  0.61744300  0.17853800  0.72170200  1
  H  915  1  0.58160000  0.14537800  0.70498800  1
  H  916  1  0.55413600  0.14623500  0.67247300  1
  H  917  1  0.61795000  0.14733000  0.64648800  1
  H  918  1  0.64778400  0.14210200  0.62127000  1
  H  919  1  0.67202100  0.14387500  0.71340700  1
  H  920  1  0.70467600  0.14151400  0.68585100  1
  H  921  1  0.71822600  0.10659000  0.63097200  1
  H  922  1  0.75835200  0.10572500  0.62961500  1
  H  923  1  0.72030100  0.17522900  0.64975400  1
  H  924  1  0.76060700  0.17398900  0.64971700  1
  H  925  1  0.71155300  0.14254500  0.59520900  1
  H  926  1  0.68405700  0.14235100  0.56270100  1
  H  927  1  0.56099100  0.14502800  0.58193200  1
  H  928  1  0.59361100  0.14355800  0.55438800  1
  H  929  1  0.64873700  0.17587000  0.54660400  1
  H  930  1  0.64939300  0.17454600  0.50628700  1
  H  931  1  0.62955800  0.10733000  0.54847500  1
  H  932  1  0.62884600  0.10640100  0.50835300  1
  H  933  1  0.54816300  0.11029100  0.63562600  1
  H  934  1  0.50782600  0.10778400  0.63291600  1
  H  935  1  0.50466800  0.17622300  0.61371400  1
  H  936  1  0.54505900  0.17907200  0.61711100  1
  H  938  1  0.63521400  0.15556500  0.47363000  1
  H  940  1  0.47334900  0.14351900  0.60686500  1
  H  942  1  0.60532100  0.14185700  0.79325100  1
  H  944  1  0.79303200  0.15507700  0.63505400  1
  H  993  1  0.75858200  0.63018200  0.10656500  1
  H  994  1  0.71827500  0.63337300  0.10924100  1
  H  995  1  0.76205000  0.61350500  0.17565100  1
  H  996  1  0.72170400  0.61738100  0.17864800  1
  H  997  1  0.70487200  0.58152900  0.14553200  1
  H  998  1  0.67232000  0.55409900  0.14629300  1
  H  999  1  0.64639900  0.61793400  0.14744400  1
  H  1000  1  0.62117900  0.64777900  0.14244400  1
  H  1001  1  0.71335500  0.67195100  0.14403700  1
  H  1002  1  0.68580900  0.70462000  0.14181600  1
  H  1003  1  0.63074000  0.71805900  0.10701800  1
  H  1004  1  0.62941600  0.75816900  0.10601200  1
  H  1005  1  0.64993100  0.72037200  0.17554100  1
  H  1006  1  0.64997100  0.76067900  0.17413400  1
  H  1007  1  0.59517700  0.71156600  0.14316800  1
  H  1008  1  0.56264000  0.68410400  0.14285800  1
  H  1009  1  0.58180200  0.56102000  0.14494000  1
  H  1010  1  0.55426300  0.59365300  0.14359000  1
  H  1011  1  0.54643500  0.64866500  0.17611500  1
  H  1012  1  0.50612300  0.64932900  0.17471300  1
  H  1013  1  0.54844000  0.62969500  0.10752300  1
  H  1014  1  0.50832100  0.62897600  0.10652100  1
  H  1015  1  0.63539300  0.54837100  0.11017600  1
  H  1016  1  0.63270600  0.50803800  0.10750400  1
  H  1017  1  0.61369800  0.50457500  0.17598900  1
  H  1018  1  0.61706700  0.54495800  0.17899900  1
  H  1020  1  0.47351200  0.63520100  0.15564400  1
  H  1022  1  0.60680500  0.47337700  0.14287100  1
  H  1024  1  0.79316200  0.60524900  0.14174000  1
  H  1026  1  0.63532500  0.79307900  0.15512700  1
  H  1075  1  0.60774900  0.25926600  0.13769600  1
  H  1076  1  0.60915300  0.21906900  0.13841700  1
  H  1077  1  0.67635200  0.26141400  0.11874700  1
  H  1078  1  0.67810800  0.22112600  0.12071700  1
  H  1079  1  0.64425800  0.20655300  0.08460100  1
  H  1080  1  0.64480000  0.17505800  0.05594000  1
  H  1081  1  0.64524900  0.14672300  0.11872600  1
  H  1082  1  0.64581000  0.12032000  0.14770200  1
  H  1083  1  0.64439400  0.21156300  0.17533000  1
  H  1084  1  0.64399500  0.18277600  0.20695600  1
  H  1085  1  0.60848400  0.12836900  0.21745200  1
  H  1086  1  0.60596300  0.12777900  0.25757100  1
  H  1087  1  0.67734700  0.14595000  0.22198100  1
  H  1088  1  0.67447800  0.14657000  0.26226500  1
  H  1089  1  0.64453200  0.09199900  0.21047800  1
  H  1090  1  0.64403700  0.06049700  0.18181700  1
  H  1091  1  0.64390700  0.08427700  0.05948200  1
  H  1092  1  0.64429100  0.05549500  0.09111000  1
  H  1093  1  0.67732400  0.04484300  0.14539500  1
  H  1094  1  0.67446900  0.00457504  0.14656600  1
  H  1095  1  0.60836900  0.04912400  0.12812600  1
  H  1096  1  0.60585000  0.00900704  0.12808900  1
  H  1097  1  0.60925300  0.13870300  0.04785400  1
  H  1098  1  0.60779100  0.13852600  0.00763704  1
  H  1099  1  0.67635200  0.11947900  0.00513304  1
  H  1100  1  0.67816000  0.12085300  0.04545400  1
  H  1102  1  0.65341700  0.97232000  0.13382600  1
  H  1104  1  0.65601000  0.13156700  0.97209100  1
  H  1106  1  0.65614700  0.29459400  0.13035000  1
  H  1108  1  0.65342100  0.13340900  0.29437500  1
  H  1157  1  0.13774700  0.60794900  0.25928800  1
  H  1158  1  0.13849900  0.60929500  0.21908600  1
  H  1159  1  0.11869400  0.67653100  0.26132400  1
  H  1160  1  0.12069300  0.67822900  0.22103200  1
  H  1161  1  0.08463600  0.64415100  0.20660900  1
  H  1162  1  0.05591800  0.64464400  0.17516600  1
  H  1163  1  0.11865500  0.64537700  0.14672400  1
  H  1164  1  0.14760200  0.64587100  0.12029300  1
  H  1165  1  0.17536500  0.64453700  0.21148100  1
  H  1166  1  0.20695300  0.64411400  0.18265400  1
  H  1167  1  0.21732900  0.60850900  0.12825400  1
  H  1168  1  0.25744400  0.60593100  0.12763100  1
  H  1169  1  0.22196600  0.67737600  0.14579200  1
  H  1170  1  0.26224500  0.67445200  0.14637800  1
  H  1171  1  0.21033200  0.64458300  0.09186700  1
  H  1172  1  0.18161400  0.64412300  0.06041400  1
  H  1173  1  0.05931700  0.64405700  0.08437300  1
  H  1174  1  0.09090400  0.64452400  0.05555400  1
  H  1175  1  0.14528600  0.67751700  0.04492600  1
  H  1176  1  0.14649200  0.67473200  0.00464704  1
  H  1177  1  0.12780900  0.60860200  0.04906000  1
  H  1178  1  0.12778700  0.60616200  0.00893804  1
  H  1179  1  0.04776000  0.60923100  0.13872600  1
  H  1180  1  0.00754204  0.60776400  0.13856100  1
  H  1181  1  0.00502304  0.67636900  0.11967600  1
  H  1182  1  0.04534200  0.67818000  0.12104200  1
  H  1184  1  0.13380000  0.65370700  0.97230600  1
  H  1186  1  0.97198900  0.65599300  0.13169000  1
  H  1188  1  0.13029900  0.65636200  0.29454000  1
  H  1190  1  0.29432400  0.65334500  0.13321600  1
  H  1239  1  0.25929900  0.13672900  0.60761200  1
  H  1240  1  0.21911600  0.13795000  0.60884300  1
  H  1241  1  0.26087700  0.11657800  0.67588000  1
  H  1242  1  0.22060800  0.11901400  0.67747500  1
  H  1243  1  0.20528600  0.08382200  0.64236400  1
  H  1244  1  0.17319100  0.05582400  0.64289900  1
  H  1245  1  0.14628800  0.11919400  0.64566700  1
  H  1246  1  0.12060000  0.14896400  0.64574100  1
  H  1247  1  0.21240200  0.17433900  0.64480900  1
  H  1248  1  0.18444000  0.20668100  0.64417800  1
  H  1249  1  0.13151200  0.21822300  0.60708600  1
  H  1250  1  0.13279600  0.25864100  0.60402800  1
  H  1251  1  0.14762700  0.22304200  0.67635400  1
  H  1252  1  0.14954600  0.26349200  0.67298400  1
  H  1253  1  0.09372300  0.21230200  0.64215000  1
  H  1254  1  0.06161300  0.18429700  0.64176400  1
  H  1255  1  0.08244300  0.06148200  0.64440100  1
  H  1256  1  0.05450700  0.09382600  0.64468700  1
  H  1257  1  0.04516000  0.14883200  0.67638500  1
  H  1258  1  0.00488404  0.15012700  0.67370600  1
  H  1259  1  0.04900800  0.13008900  0.60779600  1
  H  1260  1  0.00889104  0.13019800  0.60547500  1
  H  1261  1  0.13592900  0.04901400  0.60820400  1
  H  1262  1  0.13388400  0.00858604  0.60589800  1
  H  1263  1  0.11563200  0.00543104  0.67456900  1
  H  1264  1  0.11840400  0.04586500  0.67722100  1
  H  1266  1  0.97251700  0.13679200  0.65314600  1
  H  1268  1  0.10872800  0.97386900  0.64141300  1
  H  1270  1  0.29426700  0.12839900  0.65609800  1
  H  1272  1  0.15619600  0.29473400  0.63770600  1
  H  1279  1  0.09791600  0.60151600  0.33281800  1
  H  1284  1  0.15001700  0.64975400  0.32676300  1
  H  1289  1  0.09045800  0.59275300  0.41169300  1
  H  1290  1  0.08650200  0.58930100  0.37154700  1
  H  1291  1  0.10908700  0.61103600  0.44494400  1
  H  1292  1  0.15716300  0.66215000  0.43303000  1
  H  1303  1  0.16438800  0.59853900  0.93365800  1
  H  1308  1  0.11149500  0.64557100  0.94179500  1
  H  1313  1  0.16953700  0.59052400  0.85452900  1
  H  1314  1  0.17444300  0.58644400  0.89449800  1
  H  1315  1  0.15035200  0.60936900  0.82225400  1
  H  1316  1  0.10107600  0.65892000  0.83608400  1
  H  1327  1  0.33303800  0.09743400  0.60077100  1
  H  1332  1  0.32641900  0.14849500  0.65002000  1
  H  1337  1  0.41197600  0.09093300  0.59190100  1
  H  1338  1  0.37187600  0.08662600  0.58838900  1
  H  1339  1  0.44505000  0.10952700  0.61052400  1
  H  1340  1  0.43269100  0.15654800  0.66249400  1
  H  1351  1  0.93290000  0.16553200  0.59779700  1
  H  1356  1  0.94246000  0.11351600  0.64551900  1
  H  1361  1  0.85362400  0.16909300  0.59041400  1
  H  1362  1  0.89345400  0.17466900  0.58590800  1
  H  1363  1  0.82185300  0.14966300  0.60986800  1
  H  1364  1  0.83698400  0.10115500  0.65977600  1
  H  1375  1  0.60131500  0.33289300  0.09800200  1
  H  1380  1  0.64958300  0.32684200  0.15007100  1
  H  1385  1  0.59273200  0.41176900  0.09036000  1
  H  1386  1  0.58917700  0.37162300  0.08651400  1
  H  1387  1  0.61111100  0.44503400  0.10888800  1
  H  1388  1  0.66224100  0.43311200  0.15694000  1
  H  1399  1  0.59855000  0.93332300  0.16426500  1
  H  1404  1  0.64517800  0.94204700  0.11111400  1
  H  1409  1  0.59130100  0.85409300  0.16922500  1
  H  1410  1  0.58684300  0.89400700  0.17424500  1
  H  1411  1  0.61042800  0.82203800  0.14991100  1
  H  1412  1  0.65946300  0.83650000  0.10030900  1
  H  1423  1  0.60145200  0.09832300  0.93417200  1
  H  1428  1  0.64907900  0.15103200  0.93970200  1
  H  1433  1  0.59255500  0.09010200  0.85540900  1
  H  1434  1  0.58929100  0.08643000  0.89559300  1
  H  1435  1  0.61044300  0.10871300  0.82194700  1
  H  1436  1  0.66090400  0.15760900  0.83327800  1
  H  1447  1  0.59856600  0.16405000  0.33324300  1
  H  1452  1  0.64519300  0.11085900  0.32476000  1
  H  1457  1  0.59137000  0.16944200  0.41243400  1
  H  1458  1  0.58688000  0.17423600  0.37249700  1
  H  1459  1  0.61048700  0.15028800  0.44457200  1
  H  1460  1  0.65955900  0.10064400  0.43037100  1
  H  1471  1  0.09945500  0.33009900  0.66084200  1
  H  1476  1  0.14726400  0.32566200  0.60833400  1
  H  1481  1  0.09179600  0.40871900  0.67222500  1
  H  1482  1  0.08812900  0.36847900  0.67447300  1
  H  1483  1  0.10913900  0.44268500  0.65409500  1
  H  1484  1  0.15361100  0.43294200  0.59942400  1
  H  1495  1  0.16528800  0.93619400  0.66037500  1
  H  1500  1  0.11423900  0.94262600  0.61123000  1
  H  1505  1  0.17163400  0.85721500  0.67012100  1
  H  1506  1  0.17618200  0.89732000  0.67300400  1
  H  1507  1  0.15269200  0.82419500  0.65241400  1
  H  1508  1  0.10463000  0.83590000  0.60118900  1
  H  1519  1  0.33312400  0.59848800  0.16389100  1
  H  1524  1  0.32470400  0.64508000  0.11065800  1
  H  1529  1  0.41231300  0.59135000  0.16942700  1
  H  1530  1  0.37237000  0.58683200  0.17415000  1
  H  1531  1  0.44446900  0.61048800  0.15032800  1
  H  1532  1  0.43031900  0.65953700  0.10064600  1
  H  1543  1  0.93409300  0.60149600  0.09829700  1
  H  1548  1  0.93957800  0.64904600  0.15108200  1
  H  1553  1  0.85533500  0.59260100  0.09001300  1
  H  1554  1  0.89552300  0.58934900  0.08635900  1
  H  1555  1  0.82185800  0.61045300  0.10863700  1
  H  1556  1  0.83315500  0.66084500  0.15760900  1
  H  1609  1  0.24228200  0.89417200  0.77101000  1
  H  1610  1  0.24221600  0.85396800  0.77063100  1
  H  1611  1  0.31103700  0.89431700  0.75261700  1
  H  1612  1  0.31129700  0.85399800  0.75348500  1
  H  1613  1  0.27748900  0.83898900  0.71708800  1
  H  1614  1  0.27924600  0.80666900  0.68934900  1
  H  1615  1  0.27888400  0.78012300  0.75287300  1
  H  1616  1  0.27869500  0.75432100  0.78242600  1
  H  1617  1  0.27626700  0.84635100  0.80774300  1
  H  1618  1  0.27584600  0.81831200  0.84000200  1
  H  1619  1  0.24209000  0.76319400  0.85308100  1
  H  1620  1  0.24136100  0.76221000  0.89322000  1
  H  1621  1  0.31058200  0.78259800  0.85476000  1
  H  1622  1  0.30945600  0.78295500  0.89509400  1
  H  1623  1  0.27805400  0.72771900  0.84592800  1
  H  1624  1  0.27844900  0.69543400  0.81820600  1
  H  1625  1  0.27960100  0.71604100  0.69530900  1
  H  1626  1  0.27975500  0.68803800  0.72760100  1
  H  1627  1  0.31167300  0.67892200  0.78379000  1
  H  1628  1  0.30881900  0.63850500  0.78662700  1
  H  1629  1  0.24325100  0.68218700  0.76411200  1
  H  1630  1  0.24075300  0.64182600  0.76624800  1
  H  1631  1  0.24382300  0.76895200  0.68269200  1
  H  1632  1  0.24185700  0.76648900  0.64229900  1
  H  1633  1  0.31080200  0.74905500  0.63980200  1
  H  1634  1  0.31309400  0.75220900  0.68025000  1
  H  1636  1  0.27672000  0.60677600  0.79211100  1
  H  1638  1  0.27780000  0.74145400  0.60813300  1
  H  1640  1  0.29239800  0.92771900  0.76560400  1
  H  1642  1  0.29057400  0.76863200  0.92780100  1
  H  1691  1  0.76514700  0.24142400  0.89362900  1
  H  1692  1  0.76833100  0.24400200  0.85331600  1
  H  1693  1  0.74843900  0.31051300  0.89692700  1
  H  1694  1  0.75231700  0.31341200  0.85657600  1
  H  1695  1  0.71647400  0.28025200  0.83986200  1
  H  1696  1  0.68901000  0.28110900  0.80734700  1
  H  1697  1  0.75282400  0.28220400  0.78136200  1
  H  1698  1  0.78265800  0.27697600  0.75614400  1
  H  1699  1  0.80689500  0.27874900  0.84828100  1
  H  1700  1  0.83955000  0.27638800  0.82072500  1
  H  1701  1  0.85310000  0.24146400  0.76584600  1
  H  1702  1  0.89322600  0.24059900  0.76448900  1
  H  1703  1  0.85517500  0.31010300  0.78462800  1
  H  1704  1  0.89548100  0.30886300  0.78459100  1
  H  1705  1  0.84642700  0.27741900  0.73008300  1
  H  1706  1  0.81893100  0.27722500  0.69757500  1
  H  1707  1  0.69586500  0.27990200  0.71680600  1
  H  1708  1  0.72848500  0.27843200  0.68926200  1
  H  1709  1  0.78361100  0.31074400  0.68147800  1
  H  1710  1  0.78426700  0.30942000  0.64116100  1
  H  1711  1  0.76443200  0.24220400  0.68334900  1
  H  1712  1  0.76372000  0.24127500  0.64322700  1
  H  1713  1  0.68303700  0.24516500  0.77050000  1
  H  1714  1  0.64270000  0.24265800  0.76779000  1
  H  1715  1  0.63954200  0.31109700  0.74858800  1
  H  1716  1  0.67993300  0.31394600  0.75198500  1
  H  1718  1  0.77008800  0.29043900  0.60850400  1
  H  1720  1  0.60822300  0.27839300  0.74173900  1
  H  1722  1  0.74019500  0.27673100  0.92812500  1
  H  1724  1  0.92790600  0.28995100  0.76992800  1
  H  1773  1  0.89345600  0.76505600  0.24143900  1
  H  1774  1  0.85314900  0.76824700  0.24411500  1
  H  1775  1  0.89692400  0.74837900  0.31052500  1
  H  1776  1  0.85657800  0.75225500  0.31352200  1
  H  1777  1  0.83974600  0.71640300  0.28040600  1
  H  1778  1  0.80719400  0.68897300  0.28116700  1
  H  1779  1  0.78127300  0.75280800  0.28231800  1
  H  1780  1  0.75605300  0.78265300  0.27731800  1
  H  1781  1  0.84822900  0.80682500  0.27891100  1
  H  1782  1  0.82068300  0.83949400  0.27669000  1
  H  1783  1  0.76561400  0.85293300  0.24189200  1
  H  1784  1  0.76429000  0.89304300  0.24088600  1
  H  1785  1  0.78480500  0.85524600  0.31041500  1
  H  1786  1  0.78484500  0.89555300  0.30900800  1
  H  1787  1  0.73005100  0.84644000  0.27804200  1
  H  1788  1  0.69751400  0.81897800  0.27773200  1
  H  1789  1  0.71667600  0.69589400  0.27981400  1
  H  1790  1  0.68913700  0.72852700  0.27846400  1
  H  1791  1  0.68130900  0.78353900  0.31098900  1
  H  1792  1  0.64099700  0.78420300  0.30958700  1
  H  1793  1  0.68331400  0.76456900  0.24239700  1
  H  1794  1  0.64319500  0.76385000  0.24139500  1
  H  1795  1  0.77026700  0.68324500  0.24505000  1
  H  1796  1  0.76758000  0.64291200  0.24237800  1
  H  1797  1  0.74857200  0.63944900  0.31086300  1
  H  1798  1  0.75194100  0.67983200  0.31387300  1
  H  1800  1  0.60838600  0.77007500  0.29051800  1
  H  1802  1  0.74167900  0.60825100  0.27774500  1
  H  1804  1  0.92803600  0.74012300  0.27661400  1
  H  1806  1  0.77019900  0.92795300  0.29000100  1
  H  1855  1  0.74262300  0.39414000  0.27257000  1
  H  1856  1  0.74402700  0.35394300  0.27329100  1
  H  1857  1  0.81122600  0.39628800  0.25362100  1
  H  1858  1  0.81298200  0.35600000  0.25559100  1
  H  1859  1  0.77913200  0.34142700  0.21947500  1
  H  1860  1  0.77967400  0.30993200  0.19081400  1
  H  1861  1  0.78012300  0.28159700  0.25360000  1
  H  1862  1  0.78068400  0.25519400  0.28257600  1
  H  1863  1  0.77926800  0.34643700  0.31020400  1
  H  1864  1  0.77886900  0.31765000  0.34183000  1
  H  1865  1  0.74335800  0.26324300  0.35232600  1
  H  1866  1  0.74083700  0.26265300  0.39244500  1
  H  1867  1  0.81222100  0.28082400  0.35685500  1
  H  1868  1  0.80935200  0.28144400  0.39713900  1
  H  1869  1  0.77940600  0.22687300  0.34535200  1
  H  1870  1  0.77891100  0.19537100  0.31669100  1
  H  1871  1  0.77878100  0.21915100  0.19435600  1
  H  1872  1  0.77916500  0.19036900  0.22598400  1
  H  1873  1  0.81219800  0.17971700  0.28026900  1
  H  1874  1  0.80934300  0.13944900  0.28144000  1
  H  1875  1  0.74324300  0.18399800  0.26300000  1
  H  1876  1  0.74072400  0.14388100  0.26296300  1
  H  1877  1  0.74412700  0.27357700  0.18272800  1
  H  1878  1  0.74266500  0.27340000  0.14251100  1
  H  1879  1  0.81122600  0.25435300  0.14000700  1
  H  1880  1  0.81303400  0.25572700  0.18032800  1
  H  1882  1  0.78829100  0.10719400  0.26870000  1
  H  1884  1  0.79088400  0.26644100  0.10696500  1
  H  1886  1  0.79102100  0.42946800  0.26522400  1
  H  1888  1  0.78829500  0.26828300  0.42924900  1
  H  1937  1  0.27262100  0.74282300  0.39416200  1
  H  1938  1  0.27337300  0.74416900  0.35396000  1
  H  1939  1  0.25356800  0.81140500  0.39619800  1
  H  1940  1  0.25556700  0.81310300  0.35590600  1
  H  1941  1  0.21951000  0.77902500  0.34148300  1
  H  1942  1  0.19079200  0.77951800  0.31004000  1
  H  1943  1  0.25352900  0.78025100  0.28159800  1
  H  1944  1  0.28247600  0.78074500  0.25516700  1
  H  1945  1  0.31023900  0.77941100  0.34635500  1
  H  1946  1  0.34182700  0.77898800  0.31752800  1
  H  1947  1  0.35220300  0.74338300  0.26312800  1
  H  1948  1  0.39231800  0.74080500  0.26250500  1
  H  1949  1  0.35684000  0.81225000  0.28066600  1
  H  1950  1  0.39711900  0.80932600  0.28125200  1
  H  1951  1  0.34520600  0.77945700  0.22674100  1
  H  1952  1  0.31648800  0.77899700  0.19528800  1
  H  1953  1  0.19419100  0.77893100  0.21924700  1
  H  1954  1  0.22577800  0.77939800  0.19042800  1
  H  1955  1  0.28016000  0.81239100  0.17980000  1
  H  1956  1  0.28136600  0.80960600  0.13952100  1
  H  1957  1  0.26268300  0.74347600  0.18393400  1
  H  1958  1  0.26266100  0.74103600  0.14381200  1
  H  1959  1  0.18263400  0.74410500  0.27360000  1
  H  1960  1  0.14241600  0.74263800  0.27343500  1
  H  1961  1  0.13989700  0.81124300  0.25455000  1
  H  1962  1  0.18021600  0.81305400  0.25591600  1
  H  1964  1  0.26867400  0.78858100  0.10718000  1
  H  1966  1  0.10686300  0.79086700  0.26656400  1
  H  1968  1  0.26517300  0.79123600  0.42941400  1
  H  1970  1  0.42919800  0.78821900  0.26809000  1
  H  2019  1  0.39417300  0.27160300  0.74248600  1
  H  2020  1  0.35399000  0.27282400  0.74371700  1
  H  2021  1  0.39575100  0.25145200  0.81075400  1
  H  2022  1  0.35548200  0.25388800  0.81234900  1
  H  2023  1  0.34016000  0.21869600  0.77723800  1
  H  2024  1  0.30806500  0.19069800  0.77777300  1
  H  2025  1  0.28116200  0.25406800  0.78054100  1
  H  2026  1  0.25547400  0.28383800  0.78061500  1
  H  2027  1  0.34727600  0.30921300  0.77968300  1
  H  2028  1  0.31931400  0.34155500  0.77905200  1
  H  2029  1  0.26638600  0.35309700  0.74196000  1
  H  2030  1  0.26767000  0.39351500  0.73890200  1
  H  2031  1  0.28250100  0.35791600  0.81122800  1
  H  2032  1  0.28442000  0.39836600  0.80785800  1
  H  2033  1  0.22859700  0.34717600  0.77702400  1
  H  2034  1  0.19648700  0.31917100  0.77663800  1
  H  2035  1  0.21731700  0.19635600  0.77927500  1
  H  2036  1  0.18938100  0.22870000  0.77956100  1
  H  2037  1  0.18003400  0.28370600  0.81125900  1
  H  2038  1  0.13975800  0.28500100  0.80858000  1
  H  2039  1  0.18388200  0.26496300  0.74267000  1
  H  2040  1  0.14376500  0.26507200  0.74034900  1
  H  2041  1  0.27080300  0.18388800  0.74307800  1
  H  2042  1  0.26875800  0.14346000  0.74077200  1
  H  2043  1  0.25050600  0.14030500  0.80944300  1
  H  2044  1  0.25327800  0.18073900  0.81209500  1
  H  2046  1  0.10739100  0.27166600  0.78802000  1
  H  2048  1  0.24360200  0.10874300  0.77628700  1
  H  2050  1  0.42914100  0.26327300  0.79097200  1
  H  2052  1  0.29107000  0.42960800  0.77258000  1
  H  2059  1  0.23279000  0.73639000  0.46769200  1
  H  2064  1  0.28489100  0.78462800  0.46163700  1
  H  2069  1  0.22533200  0.72762700  0.54656700  1
  H  2070  1  0.22137600  0.72417500  0.50642100  1
  H  2071  1  0.24396100  0.74591000  0.57981800  1
  H  2072  1  0.29203700  0.79702400  0.56790400  1
  H  2083  1  0.29926200  0.73341300  0.06853210  1
  H  2088  1  0.24636900  0.78044500  0.07666910  1
  H  2093  1  0.30441100  0.72539800  0.98940300  1
  H  2094  1  0.30931700  0.72131800  0.02937210  1
  H  2095  1  0.28522600  0.74424300  0.95712800  1
  H  2096  1  0.23595000  0.79379400  0.97095800  1
  H  2107  1  0.46791200  0.23230800  0.73564500  1
  H  2112  1  0.46129300  0.28336900  0.78489400  1
  H  2117  1  0.54685000  0.22580700  0.72677500  1
  H  2118  1  0.50675000  0.22150000  0.72326300  1
  H  2119  1  0.57992400  0.24440100  0.74539800  1
  H  2120  1  0.56756500  0.29142200  0.79736800  1
  H  2131  1  0.06777410  0.30040600  0.73267100  1
  H  2136  1  0.07733410  0.24839000  0.78039300  1
  H  2141  1  0.98849800  0.30396700  0.72528800  1
  H  2142  1  0.02832810  0.30954300  0.72078200  1
  H  2143  1  0.95672700  0.28453700  0.74474200  1
  H  2144  1  0.97185800  0.23602900  0.79465000  1
  H  2155  1  0.73618900  0.46776700  0.23287600  1
  H  2160  1  0.78445700  0.46171600  0.28494500  1
  H  2165  1  0.72760600  0.54664300  0.22523400  1
  H  2166  1  0.72405100  0.50649700  0.22138800  1
  H  2167  1  0.74598500  0.57990800  0.24376200  1
  H  2168  1  0.79711500  0.56798600  0.29181400  1
  H  2179  1  0.73342400  0.06819710  0.29913900  1
  H  2184  1  0.78005200  0.07692110  0.24598800  1
  H  2189  1  0.72617500  0.98896700  0.30409900  1
  H  2190  1  0.72171700  0.02888110  0.30911900  1
  H  2191  1  0.74530200  0.95691200  0.28478500  1
  H  2192  1  0.79433700  0.97137400  0.23518300  1
  H  2203  1  0.73632600  0.23319700  0.06904610  1
  H  2208  1  0.78395300  0.28590600  0.07457610  1
  H  2213  1  0.72742900  0.22497600  0.99028300  1
  H  2214  1  0.72416500  0.22130400  0.03046710  1
  H  2215  1  0.74531700  0.24358700  0.95682100  1
  H  2216  1  0.79577800  0.29248300  0.96815200  1
  H  2227  1  0.73344000  0.29892400  0.46811700  1
  H  2232  1  0.78006700  0.24573300  0.45963400  1
  H  2237  1  0.72624400  0.30431600  0.54730800  1
  H  2238  1  0.72175400  0.30911000  0.50737100  1
  H  2239  1  0.74536100  0.28516200  0.57944600  1
  H  2240  1  0.79443300  0.23551800  0.56524500  1
  H  2251  1  0.23432900  0.46497300  0.79571600  1
  H  2256  1  0.28213800  0.46053600  0.74320800  1
  H  2261  1  0.22667000  0.54359300  0.80709900  1
  H  2262  1  0.22300300  0.50335300  0.80934700  1
  H  2263  1  0.24401300  0.57755900  0.78896900  1
  H  2264  1  0.28848500  0.56781600  0.73429800  1
  H  2275  1  0.30016200  0.07106810  0.79524900  1
  H  2280  1  0.24911300  0.07750010  0.74610400  1
  H  2285  1  0.30650800  0.99208900  0.80499500  1
  H  2286  1  0.31105600  0.03219410  0.80787800  1
  H  2287  1  0.28756600  0.95906900  0.78728800  1
  H  2288  1  0.23950400  0.97077400  0.73606300  1
  H  2299  1  0.46799800  0.73336200  0.29876500  1
  H  2304  1  0.45957800  0.77995400  0.24553200  1
  H  2309  1  0.54718700  0.72622400  0.30430100  1
  H  2310  1  0.50724400  0.72170600  0.30902400  1
  H  2311  1  0.57934300  0.74536200  0.28520200  1
  H  2312  1  0.56519300  0.79441100  0.23552000  1
  H  2323  1  0.06896710  0.73637000  0.23317100  1
  H  2328  1  0.07445210  0.78392000  0.28595600  1
  H  2333  1  0.99020900  0.72747500  0.22488700  1
  H  2334  1  0.03039710  0.72422300  0.22123300  1
  H  2335  1  0.95673200  0.74532700  0.24351100  1
  H  2336  1  0.96802900  0.79571900  0.29248300  1
  C  1  1  0.00834500  0.55262100  0.45184500  1
  C  2  1  0.00924700  0.53498400  0.43672000  1
  C  3  1  0.00948900  0.51479900  0.44889400  1
  C  5  1  0.00833100  0.54364000  0.47362300  1
  C  6  1  0.00745500  0.55656400  0.49379900  1
  C  7  1  0.00729500  0.54732000  0.51587600  1
  C  9  1  0.00735500  0.52259800  0.54435500  1
  C  10  1  0.00658200  0.54425000  0.55358200  1
  C  11  1  0.00678400  0.55949100  0.53603600  1
  C  12  1  0.00753200  0.50206500  0.55661600  1
  C  13  1  0.00836600  0.48014100  0.54690500  1
  C  15  1  0.00924400  0.45129800  0.52217000  1
  C  16  1  0.00883900  0.44230900  0.54394000  1
  C  17  1  0.00858700  0.45994700  0.55906900  1
  C  18  1  0.00942900  0.43836700  0.50198200  1
  C  19  1  0.00990400  0.44761100  0.47992000  1
  C  21  1  0.01019600  0.47232200  0.45144500  1
  C  22  1  0.01007100  0.45064100  0.44222800  1
  C  23  1  0.01010600  0.43541000  0.45978000  1
  C  24  1  0.00994800  0.49286800  0.43919200  1
  C  25  1  0.00895200  0.49127700  0.41530200  1
  C  26  1  0.02828500  0.48548400  0.40263200  1
  C  27  1  0.02694700  0.48351300  0.37904600  1
  C  28  1  0.00647800  0.48806200  0.36782700  1
  C  29  1  0.98716300  0.49381600  0.38046300  1
  C  30  1  0.98831900  0.49517600  0.40405900  1
  C  31  1  0.00799400  0.41446400  0.50387400  1
  C  32  1  0.02689500  0.40150500  0.51041700  1
  C  33  1  0.02522700  0.37790200  0.51215900  1
  C  34  1  0.00490000  0.36684000  0.50660700  1
  C  35  1  0.98599600  0.37979000  0.50017300  1
  C  36  1  0.98745100  0.40340100  0.49903700  1
  C  37  1  0.00655100  0.50357700  0.58052100  1
  C  38  1  0.98644600  0.49823100  0.59206800  1
  C  39  1  0.98596600  0.49800900  0.61574500  1
  C  40  1  0.00528100  0.50383200  0.62853100  1
  C  41  1  0.02526600  0.50940500  0.61670300  1
  C  42  1  0.02597700  0.50923700  0.59302700  1
  C  43  1  0.00689800  0.58050900  0.49188500  1
  C  44  1  0.98691000  0.59259600  0.49648800  1
  C  45  1  0.02673800  0.59259600  0.48674500  1
  C  46  1  0.02654600  0.61628800  0.48630500  1
  C  47  1  0.00665600  0.62864100  0.49103400  1
  C  48  1  0.98690500  0.61630500  0.49635500  1
  C  83  1  0.45138800  0.01126900  0.55354600  1
  C  84  1  0.43639500  0.01170100  0.53579900  1
  C  85  1  0.44874800  0.01178900  0.51573100  1
  C  87  1  0.47324700  0.01147200  0.54473900  1
  C  88  1  0.49333000  0.01067300  0.55780200  1
  C  89  1  0.51551900  0.00982400  0.54889500  1
  C  91  1  0.54430600  0.00809500  0.52463400  1
  C  92  1  0.55321800  0.00768500  0.54642300  1
  C  93  1  0.53547300  0.00895300  0.56138600  1
  C  94  1  0.55680400  0.00719100  0.50427200  1
  C  95  1  0.54723300  0.00750700  0.48227600  1
  C  97  1  0.52272100  0.00781200  0.45325600  1
  C  98  1  0.54455400  0.00755500  0.44442300  1
  C  99  1  0.55955000  0.00763400  0.46217600  1
  C  100  1  0.50263600  0.00786900  0.44019000  1
  C  101  1  0.48046300  0.00895600  0.44911200  1
  C  103  1  0.45169300  0.01073900  0.47338100  1
  C  104  1  0.44273100  0.01006200  0.45161500  1
  C  105  1  0.46047500  0.00921000  0.43664400  1
  C  106  1  0.43919200  0.01141600  0.49374800  1
  C  107  1  0.41532100  0.01010700  0.49196600  1
  C  108  1  0.40246600  0.02912900  0.48559000  1
  C  109  1  0.37890800  0.02745900  0.48348300  1
  C  110  1  0.36785900  0.00699500  0.48849500  1
  C  111  1  0.38069900  0.98798500  0.49480700  1
  C  112  1  0.40427500  0.98945100  0.49629100  1
  C  113  1  0.50474900  0.00669000  0.41633400  1
  C  114  1  0.51043900  0.02606700  0.40376700  1
  C  115  1  0.51076900  0.02524000  0.38009500  1
  C  116  1  0.50529200  0.00519700  0.36831200  1
  C  117  1  0.49950700  0.98591000  0.38116100  1
  C  118  1  0.49953400  0.98651900  0.40483600  1
  C  119  1  0.58070800  0.00599800  0.50600700  1
  C  120  1  0.59217100  0.98581900  0.50073000  1
  C  121  1  0.61585300  0.98526600  0.50026600  1
  C  122  1  0.62876200  0.00460300  0.50573200  1
  C  123  1  0.61702500  0.02463600  0.51134300  1
  C  124  1  0.59334900  0.02541100  0.51142000  1
  C  125  1  0.49105200  0.00924700  0.58162000  1
  C  126  1  0.49447700  0.98838300  0.59259900  1
  C  127  1  0.48520600  0.02842700  0.59449600  1
  C  128  1  0.48282200  0.02674100  0.61802300  1
  C  129  1  0.48693200  0.00603800  0.62898100  1
  C  130  1  0.49267300  0.98685800  0.61614600  1
  C  165  1  0.55343000  0.45133200  0.01134500  1
  C  166  1  0.53566700  0.43635900  0.01176100  1
  C  167  1  0.51561300  0.44873600  0.01184800  1
  C  169  1  0.54464500  0.47320000  0.01159700  1
  C  170  1  0.55772600  0.49327100  0.01085800  1
  C  171  1  0.54883200  0.51546500  0.01007000  1
  C  173  1  0.52458000  0.54426400  0.00847200  1
  C  174  1  0.54637400  0.55316500  0.00799000  1
  C  175  1  0.56133200  0.53541300  0.00918200  1
  C  176  1  0.50422100  0.55676800  0.00764700  1
  C  177  1  0.48221300  0.54722200  0.00797700  1
  C  179  1  0.45317100  0.52274300  0.00818600  1
  C  180  1  0.44435700  0.54458600  0.00803600  1
  C  181  1  0.46212500  0.55956200  0.00817600  1
  C  182  1  0.44008500  0.50267400  0.00813300  1
  C  183  1  0.44899400  0.48049400  0.00911800  1
  C  185  1  0.47325200  0.45171800  0.01078300  1
  C  186  1  0.45148900  0.44275900  0.01004800  1
  C  187  1  0.43652100  0.46050900  0.00926100  1
  C  188  1  0.49361700  0.43921500  0.01144300  1
  C  189  1  0.49182100  0.41536100  0.01002500  1
  C  190  1  0.48549400  0.40243200  0.02901100  1
  C  191  1  0.48340700  0.37888100  0.02724800  1
  C  192  1  0.48835200  0.36794000  0.00671400  1
  C  193  1  0.49460100  0.38085200  0.98773600  1
  C  194  1  0.49609200  0.40441800  0.98930200  1
  C  195  1  0.41623100  0.50480500  0.00691000  1
  C  196  1  0.40362900  0.51042900  0.02628200  1
  C  197  1  0.37995800  0.51077600  0.02540600  1
  C  198  1  0.36820900  0.50534700  0.00532800  1
  C  199  1  0.38110200  0.49958700  0.98606200  1
  C  200  1  0.40477700  0.49967900  0.98669200  1
  C  201  1  0.50597000  0.58066300  0.00638300  1
  C  202  1  0.50058100  0.59204900  0.98619200  1
  C  203  1  0.50018800  0.61572300  0.98553400  1
  C  204  1  0.50579300  0.62870000  0.00478700  1
  C  205  1  0.51148800  0.61704000  0.02484100  1
  C  206  1  0.51150900  0.59336800  0.02571600  1
  C  207  1  0.58153900  0.49097800  0.00936700  1
  C  208  1  0.59246800  0.49439200  0.98847400  1
  C  209  1  0.59446000  0.48514000  0.02851800  1
  C  210  1  0.61798600  0.48276400  0.02677700  1
  C  211  1  0.62889200  0.48685300  0.00604300  1
  C  212  1  0.61601000  0.49258200  0.98689100  1
  C  247  1  0.50978000  0.05493500  0.95376300  1
  C  248  1  0.51003900  0.03774600  0.93812300  1
  C  249  1  0.51010500  0.01722900  0.94971700  1
  C  251  1  0.51007500  0.04532700  0.97527900  1
  C  252  1  0.50981700  0.05764400  0.99584200  1
  C  253  1  0.50997500  0.04790600  0.01769000  1
  C  255  1  0.51003400  0.02254500  0.04556700  1
  C  256  1  0.50954500  0.04397900  0.05531100  1
  C  257  1  0.50973100  0.05962100  0.03812200  1
  C  258  1  0.50986100  0.00170800  0.05729400  1
  C  259  1  0.51024200  0.98007500  0.04695600  1
  C  261  1  0.51023500  0.95196900  0.02140400  1
  C  262  1  0.50977800  0.94236300  0.04291400  1
  C  263  1  0.51001400  0.95955700  0.05855100  1
  C  264  1  0.50981300  0.93965700  0.00084400  1
  C  265  1  0.50999700  0.94940500  0.97899800  1
  C  267  1  0.51004300  0.97476600  0.95111600  1
  C  268  1  0.50952300  0.95333000  0.94137600  1
  C  269  1  0.50970000  0.93768900  0.95856600  1
  C  270  1  0.50991300  0.99559900  0.93937500  1
  C  271  1  0.50889800  0.99466800  0.91543700  1
  C  272  1  0.52828100  0.98931200  0.90272300  1
  C  273  1  0.52717700  0.98854000  0.87907100  1
  C  274  1  0.50678600  0.99305500  0.86750400  1
  C  275  1  0.48761700  0.99899400  0.88044000  1
  C  276  1  0.48852900  0.99946300  0.90410400  1
  C  277  1  0.50813100  0.91577100  0.00216800  1
  C  278  1  0.52718900  0.90252900  0.00740100  1
  C  279  1  0.52545900  0.87890600  0.00806500  1
  C  280  1  0.50476100  0.86787700  0.00355000  1
  C  281  1  0.48587700  0.88136400  0.99793900  1
  C  282  1  0.48741400  0.90499400  0.99758000  1
  C  283  1  0.50820000  0.00261800  0.08119400  1
  C  284  1  0.48750400  0.99777700  0.09189500  1
  C  285  1  0.48596100  0.99780900  0.11552400  1
  C  286  1  0.50481300  0.00334900  0.12908600  1
  C  287  1  0.52549800  0.00809400  0.11813100  1
  C  288  1  0.52723400  0.00775800  0.09450300  1
  C  289  1  0.50881400  0.08156100  0.99449600  1
  C  290  1  0.48844100  0.09298700  0.99904900  1
  C  291  1  0.52822200  0.09417200  0.98900200  1
  C  292  1  0.52714300  0.11780800  0.98786900  1
  C  293  1  0.50676500  0.12947600  0.99219700  1
  C  294  1  0.48756600  0.11664300  0.99826000  1
  C  329  1  0.95376600  0.50969400  0.05498300  1
  C  330  1  0.93809400  0.50991000  0.03782400  1
  C  331  1  0.94965300  0.51006800  0.01728800  1
  C  333  1  0.97526300  0.51007800  0.04533700  1
  C  334  1  0.99585200  0.50990400  0.05761500  1
  C  335  1  0.01768700  0.51008700  0.04785300  1
  C  337  1  0.04553000  0.51011700  0.02245800  1
  C  338  1  0.05530400  0.50966300  0.04387900  1
  C  339  1  0.03813500  0.50989400  0.05954300  1
  C  340  1  0.05722600  0.50992600  0.00160500  1
  C  341  1  0.04684900  0.51029700  0.97999100  1
  C  343  1  0.02124800  0.51033400  0.95193400  1
  C  344  1  0.04274200  0.50987100  0.94228700  1
  C  345  1  0.05840900  0.51004900  0.95945300  1
  C  346  1  0.00066500  0.50995200  0.93966000  1
  C  347  1  0.97883300  0.51014600  0.94943500  1
  C  349  1  0.95098300  0.51013500  0.97482800  1
  C  350  1  0.94121500  0.50968000  0.95340500  1
  C  351  1  0.95838400  0.50989800  0.93774500  1
  C  352  1  0.93927200  0.50991300  0.99567800  1
  C  353  1  0.91533400  0.50890000  0.99477800  1
  C  354  1  0.90261500  0.52829300  0.98947400  1
  C  355  1  0.87896500  0.52718500  0.98870400  1
  C  356  1  0.86740300  0.50678000  0.99316800  1
  C  357  1  0.88034400  0.48759600  0.99904500  1
  C  358  1  0.90400600  0.48851900  0.99953400  1
  C  359  1  0.00194700  0.50833700  0.91577200  1
  C  360  1  0.00722800  0.52741300  0.90257700  1
  C  361  1  0.00791200  0.52572700  0.87895200  1
  C  362  1  0.00335000  0.50506100  0.86789000  1
  C  363  1  0.99765900  0.48616700  0.88133000  1
  C  364  1  0.99729300  0.48765500  0.90495900  1
  C  365  1  0.08112500  0.50823200  0.00247800  1
  C  366  1  0.09179500  0.48751900  0.99763700  1
  C  367  1  0.11542300  0.48594700  0.99764400  1
  C  368  1  0.12901400  0.50478400  0.00316000  1
  C  369  1  0.11809000  0.52548400  0.00790800  1
  C  370  1  0.09446400  0.52725400  0.00758700  1
  C  371  1  0.99453900  0.50894400  0.08153000  1
  C  372  1  0.99912200  0.48859400  0.09298300  1
  C  373  1  0.98900400  0.52836400  0.09410400  1
  C  374  1  0.98784900  0.52731700  0.11773900  1
  C  375  1  0.99218000  0.50695400  0.12943100  1
  C  376  1  0.99828200  0.48774100  0.11663500  1
  C  411  1  0.05376800  0.95332500  0.50830100  1
  C  412  1  0.03625000  0.93804700  0.50855400  1
  C  413  1  0.01599200  0.95006100  0.50930600  1
  C  415  1  0.04464700  0.97503400  0.50927200  1
  C  416  1  0.05741900  0.99532900  0.50931400  1
  C  417  1  0.04819300  0.01740900  0.50968000  1
  C  419  1  0.02353600  0.04594600  0.50953700  1
  C  420  1  0.04521100  0.05514100  0.50954000  1
  C  421  1  0.06040600  0.03755300  0.50986600  1
  C  422  1  0.00301200  0.05821600  0.50897900  1
  C  423  1  0.98115700  0.04832700  0.50898900  1
  C  425  1  0.95249800  0.02336800  0.50904600  1
  C  426  1  0.94337900  0.04506300  0.50786800  1
  C  427  1  0.96090300  0.06033900  0.50805300  1
  C  428  1  0.93973900  0.00307200  0.50905500  1
  C  429  1  0.94897700  0.98099900  0.50965500  1
  C  431  1  0.97362500  0.95245000  0.50984000  1
  C  432  1  0.95194200  0.94326800  0.50975600  1
  C  433  1  0.93675500  0.96086100  0.50986700  1
  C  434  1  0.99414600  0.94015900  0.50942900  1
  C  435  1  0.99264000  0.91622100  0.50810100  1
  C  436  1  0.98675600  0.90329100  0.52723900  1
  C  437  1  0.98502700  0.87968800  0.52569700  1
  C  438  1  0.98988200  0.86862200  0.50520400  1
  C  439  1  0.99576600  0.88148900  0.48608100  1
  C  440  1  0.99688200  0.90511600  0.48744300  1
  C  441  1  0.91588200  0.00488400  0.50734400  1
  C  442  1  0.90276000  0.01062400  0.52633700  1
  C  443  1  0.87912900  0.01134800  0.52471500  1
  C  444  1  0.86796600  0.00638400  0.50419300  1
  C  445  1  0.88133900  0.00041600  0.48533400  1
  C  446  1  0.90497600  0.99995200  0.48677200  1
  C  447  1  0.00449900  0.08211300  0.50715300  1
  C  448  1  0.00048100  0.09272000  0.48619200  1
  C  449  1  0.00118400  0.11633100  0.48437600  1
  C  450  1  0.00637300  0.12965900  0.50337200  1
  C  451  1  0.01102000  0.11911600  0.52418400  1
  C  452  1  0.00979200  0.09550800  0.52614200  1
  C  453  1  0.08131200  0.99345300  0.50832100  1
  C  454  1  0.09290300  0.99818400  0.48808000  1
  C  455  1  0.09376100  0.98740900  0.52767200  1
  C  456  1  0.11739100  0.98600600  0.52668800  1
  C  457  1  0.12922500  0.99058000  0.50645800  1
  C  458  1  0.11655200  0.99707900  0.48729300  1
  C  493  1  0.98821600  0.49095600  0.19046400  1
  C  494  1  0.00405900  0.50537400  0.20099800  1
  C  496  1  0.99208200  0.49446100  0.23771700  1
  C  497  1  0.97636800  0.47897500  0.22845600  1
  C  498  1  0.97462800  0.47747100  0.20476600  1
  C  500  1  0.99406800  0.49688700  0.26125300  1
  C  501  1  0.01098000  0.51548300  0.29266800  1
  C  502  1  0.99884500  0.50195000  0.30800200  1
  C  503  1  0.98362100  0.48582900  0.29927400  1
  C  506  1  0.98079800  0.48328200  0.27580500  1
  C  507  1  0.96534000  0.46773100  0.26655000  1
  C  508  1  0.96301000  0.46572300  0.24303800  1
  C  513  1  0.00162700  0.50455000  0.33147000  1
  C  514  1  0.98639100  0.48961600  0.16650600  1
  C  517  1  0.00415000  0.48745100  0.80720900  1
  C  518  1  0.98739900  0.50129600  0.79734300  1
  C  520  1  0.99794800  0.49039700  0.76018000  1
  C  521  1  0.01442900  0.47534800  0.76881900  1
  C  522  1  0.01728100  0.47405000  0.79241800  1
  C  524  1  0.99528000  0.49306200  0.73673200  1
  C  525  1  0.97758500  0.51203500  0.70599900  1
  C  526  1  0.99086700  0.50039400  0.68997300  1
  C  527  1  0.00611300  0.48398800  0.69832200  1
  C  530  1  0.00880400  0.48034500  0.72166300  1
  C  531  1  0.02471000  0.46488000  0.73030400  1
  C  532  1  0.02761900  0.46252300  0.75371800  1
  C  537  1  0.98864600  0.50483700  0.66644100  1
  C  538  1  0.00734100  0.48670300  0.83103800  1
  C  541  1  0.19040000  0.98716900  0.49069200  1
  C  542  1  0.20077300  0.00281800  0.50543500  1
  C  544  1  0.23763800  0.99147000  0.49428600  1
  C  545  1  0.22853500  0.97594800  0.47851400  1
  C  546  1  0.20485800  0.97399200  0.47696500  1
  C  548  1  0.26116300  0.99367200  0.49672400  1
  C  549  1  0.29243900  0.01055100  0.51560100  1
  C  550  1  0.30790000  0.99880300  0.50186800  1
  C  551  1  0.29929700  0.98380400  0.48546700  1
  C  554  1  0.27584900  0.98080500  0.48287400  1
  C  555  1  0.26674000  0.96553100  0.46705500  1
  C  556  1  0.24325200  0.96299300  0.46501500  1
  C  561  1  0.33136200  0.00164300  0.50463300  1
  C  562  1  0.16644900  0.98520900  0.48921500  1
  C  565  1  0.80713600  0.00581600  0.48699600  1
  C  566  1  0.79771000  0.98907100  0.50115300  1
  C  568  1  0.76024700  0.99867700  0.49036500  1
  C  569  1  0.76845100  0.01513200  0.47504100  1
  C  570  1  0.79198200  0.01844200  0.47351900  1
  C  572  1  0.73686700  0.99558900  0.49324600  1
  C  573  1  0.70660000  0.97758300  0.51270000  1
  C  574  1  0.69024300  0.99049700  0.50110600  1
  C  575  1  0.69817800  0.00568000  0.48443900  1
  C  578  1  0.72144100  0.00869600  0.48051700  1
  C  579  1  0.72966000  0.02456500  0.46478600  1
  C  580  1  0.75299500  0.02786600  0.46217800  1
  C  585  1  0.66679300  0.98807000  0.50591700  1
  C  586  1  0.83089600  0.00947000  0.48601200  1
  C  589  1  0.49076100  0.19053500  0.98829700  1
  C  590  1  0.50521100  0.20107500  0.00410700  1
  C  592  1  0.49437000  0.23779800  0.99205900  1
  C  593  1  0.47885000  0.22853400  0.97638000  1
  C  594  1  0.47729000  0.20484000  0.97469400  1
  C  596  1  0.49685700  0.26133500  0.99397700  1
  C  597  1  0.51555100  0.29275400  0.01077900  1
  C  598  1  0.50205300  0.30809400  0.99861100  1
  C  599  1  0.48589000  0.29936300  0.98343300  1
  C  602  1  0.48327900  0.27589000  0.98068000  1
  C  603  1  0.46769100  0.26662700  0.96526300  1
  C  604  1  0.46562400  0.24311400  0.96299700  1
  C  609  1  0.50470700  0.33156700  0.00134700  1
  C  610  1  0.48939000  0.16657000  0.98650400  1
  C  613  1  0.48723400  0.80715800  0.00391400  1
  C  614  1  0.50103000  0.79747100  0.98701900  1
  C  616  1  0.49049100  0.76017700  0.99748100  1
  C  617  1  0.47548000  0.76863200  0.01409200  1
  C  618  1  0.47401300  0.79221100  0.01705100  1
  C  620  1  0.49337200  0.73675900  0.99473800  1
  C  621  1  0.51258500  0.70626100  0.97689000  1
  C  622  1  0.50124400  0.69008300  0.99025000  1
  C  623  1  0.48483100  0.69822900  0.00560100  1
  C  626  1  0.48091800  0.72152700  0.00832600  1
  C  627  1  0.46546900  0.72998200  0.02434700  1
  C  628  1  0.46288900  0.75336700  0.02732300  1
  C  633  1  0.50602700  0.66666667  0.98802400  1
  C  634  1  0.48641100  0.83096500  0.00725800  1
  C  637  1  0.49059100  0.98898500  0.80652300  1
  C  638  1  0.50480100  0.00490400  0.79582400  1
  C  640  1  0.49391900  0.99251900  0.75921700  1
  C  641  1  0.47866400  0.97668100  0.76865200  1
  C  642  1  0.47724100  0.97511700  0.79235900  1
  C  644  1  0.49622300  0.99435500  0.73565300  1
  C  645  1  0.51442600  0.01129500  0.70402200  1
  C  646  1  0.50100300  0.99885900  0.68882800  1
  C  647  1  0.48514800  0.98346700  0.69775200  1
  C  650  1  0.48274400  0.98079200  0.72125500  1
  C  651  1  0.46744100  0.96519300  0.73069000  1
  C  652  1  0.46554300  0.96303200  0.75422500  1
  C  657  1  0.50346600  0.00152400  0.66532100  1
  C  658  1  0.48932800  0.98731400  0.83050000  1
  C  661  1  0.48723700  0.00364700  0.18977600  1
  C  662  1  0.50104500  0.98680700  0.19953900  1
  C  664  1  0.49054800  0.99748200  0.23678600  1
  C  665  1  0.47552000  0.01403700  0.22825400  1
  C  666  1  0.47402800  0.01686400  0.20466100  1
  C  668  1  0.49345700  0.99487900  0.26021600  1
  C  669  1  0.51268800  0.97720700  0.29080200  1
  C  670  1  0.50132800  0.99063400  0.30691100  1
  C  671  1  0.48491400  0.00594000  0.29868500  1
  C  674  1  0.48100300  0.00854600  0.27537600  1
  C  675  1  0.46553800  0.02451100  0.26684600  1
  C  676  1  0.46293800  0.02735300  0.24344900  1
  C  681  1  0.50603200  0.98846600  0.33040400  1
  C  682  1  0.48642300  0.00692600  0.16596400  1
  C  685  1  0.98836800  0.18898200  0.50009100  1
  C  686  1  0.00260500  0.19983300  0.48439100  1
  C  688  1  0.99078100  0.23621300  0.49683000  1
  C  689  1  0.97621400  0.22636200  0.51309800  1
  C  690  1  0.97487100  0.20261800  0.51422700  1
  C  692  1  0.99254600  0.25986700  0.49515800  1
  C  693  1  0.00827400  0.29210700  0.47688200  1
  C  694  1  0.99713800  0.30692100  0.49181300  1
  C  695  1  0.98302500  0.29745300  0.50852400  1
  C  698  1  0.98030800  0.27387500  0.51024000  1
  C  699  1  0.96593000  0.26398700  0.52642700  1
  C  700  1  0.96374900  0.24041300  0.52771500  1
  C  705  1  0.99949900  0.33056100  0.48971700  1
  C  706  1  0.98760800  0.16517500  0.50150500  1
  C  709  1  0.00517600  0.80855100  0.50131100  1
  C  710  1  0.98949100  0.79830400  0.48661700  1
  C  712  1  0.00088700  0.76145100  0.49802200  1
  C  713  1  0.01681600  0.77068500  0.51334900  1
  C  714  1  0.01904600  0.79436400  0.51451200  1
  C  716  1  0.99849500  0.73787300  0.49605000  1
  C  717  1  0.98099200  0.70630600  0.47825800  1
  C  718  1  0.99375300  0.69072500  0.49105900  1
  C  719  1  0.00882200  0.69982200  0.50723400  1
  C  722  1  0.01163300  0.72331900  0.50975300  1
  C  723  1  0.02711900  0.73260000  0.52527200  1
  C  724  1  0.02983200  0.75609700  0.52691900  1
  C  729  1  0.99107400  0.66696900  0.48796000  1
  C  730  1  0.00705100  0.83230900  0.50250700  1
  C  733  1  0.18968700  0.48714100  0.00346100  1
  C  734  1  0.19947200  0.50094200  0.98662800  1
  C  736  1  0.23670500  0.49047800  0.99737400  1
  C  737  1  0.22815300  0.47545100  0.01392200  1
  C  738  1  0.20455700  0.47394500  0.01670900  1
  C  740  1  0.26013600  0.49340300  0.99481500  1
  C  741  1  0.29073800  0.51266300  0.97720100  1
  C  742  1  0.30683300  0.50132300  0.99066300  1
  C  743  1  0.29859400  0.48490200  0.00595500  1
  C  746  1  0.27528300  0.48096900  0.00851600  1
  C  747  1  0.26673500  0.46550200  0.02447100  1
  C  748  1  0.24333500  0.46288600  0.02727200  1
  C  753  1  0.33032300  0.50606200  0.98854500  1
  C  754  1  0.16586800  0.48633000  0.00669700  1
  C  757  1  0.80642300  0.49059700  0.98900000  1
  C  758  1  0.79571100  0.50478300  0.00493200  1
  C  760  1  0.75911400  0.49391900  0.99250200  1
  C  761  1  0.76856200  0.47868600  0.97665100  1
  C  762  1  0.79227200  0.47726800  0.97510000  1
  C  764  1  0.73555000  0.49621800  0.99432600  1
  C  765  1  0.70390500  0.51438900  0.01127700  1
  C  766  1  0.68872200  0.50097800  0.99881800  1
  C  767  1  0.69765600  0.48515000  0.98340600  1
  C  770  1  0.72116100  0.48275400  0.98073400  1
  C  771  1  0.73060700  0.46747500  0.96512300  1
  C  772  1  0.75414600  0.46558300  0.96297300  1
  C  777  1  0.66521400  0.50341900  0.00149700  1
  C  778  1  0.83040000  0.48934000  0.98733800  1
  C  781  1  0.14321900  0.68749500  0.58671900  1
  C  782  1  0.14412100  0.66985800  0.57159400  1
  C  783  1  0.14436300  0.64967300  0.58376800  1
  C  785  1  0.14320500  0.67851400  0.60849700  1
  C  786  1  0.14232900  0.69143800  0.62867300  1
  C  787  1  0.14216900  0.68219400  0.65075000  1
  C  789  1  0.14222900  0.65747200  0.67922900  1
  C  790  1  0.14145600  0.67912400  0.68845600  1
  C  791  1  0.14165800  0.69436500  0.67091000  1
  C  792  1  0.14240600  0.63693900  0.69149000  1
  C  793  1  0.14324000  0.61501500  0.68177900  1
  C  795  1  0.14411800  0.58617200  0.65704400  1
  C  796  1  0.14371300  0.57718300  0.67881400  1
  C  797  1  0.14346100  0.59482100  0.69394300  1
  C  798  1  0.14430300  0.57324100  0.63685600  1
  C  799  1  0.14477800  0.58248500  0.61479400  1
  C  801  1  0.14507000  0.60719600  0.58631900  1
  C  802  1  0.14494500  0.58551500  0.57710200  1
  C  803  1  0.14498000  0.57028400  0.59465400  1
  C  804  1  0.14482200  0.62774200  0.57406600  1
  C  805  1  0.14382600  0.62615100  0.55017600  1
  C  806  1  0.16315900  0.62035800  0.53750600  1
  C  807  1  0.16182100  0.61838700  0.51392000  1
  C  808  1  0.14135200  0.62293600  0.50270100  1
  C  809  1  0.12203700  0.62869000  0.51533700  1
  C  810  1  0.12319300  0.63005000  0.53893300  1
  C  811  1  0.14286800  0.54933800  0.63874800  1
  C  812  1  0.16176900  0.53637900  0.64529100  1
  C  813  1  0.16010100  0.51277600  0.64703300  1
  C  814  1  0.13977400  0.50171400  0.64148100  1
  C  815  1  0.12087000  0.51466400  0.63504700  1
  C  816  1  0.12232500  0.53827500  0.63391100  1
  C  817  1  0.14142500  0.63845100  0.71539500  1
  C  818  1  0.12132000  0.63310500  0.72694200  1
  C  819  1  0.12084000  0.63288300  0.75061900  1
  C  820  1  0.14015500  0.63870600  0.76340500  1
  C  821  1  0.16014000  0.64427900  0.75157700  1
  C  822  1  0.16085100  0.64411100  0.72790100  1
  C  823  1  0.14177200  0.71538300  0.62675900  1
  C  824  1  0.12178400  0.72747000  0.63136200  1
  C  825  1  0.16161200  0.72747000  0.62161900  1
  C  826  1  0.16142000  0.75116200  0.62117900  1
  C  827  1  0.14153000  0.76351500  0.62590800  1
  C  828  1  0.12177900  0.75117900  0.63122900  1
  C  863  1  0.58626200  0.14614300  0.68842000  1
  C  864  1  0.57126900  0.14657500  0.67067300  1
  C  865  1  0.58362200  0.14666300  0.65060500  1
  C  867  1  0.60812100  0.14634600  0.67961300  1
  C  868  1  0.62820400  0.14554700  0.69267600  1
  C  869  1  0.65039300  0.14469800  0.68376900  1
  C  871  1  0.67918000  0.14296900  0.65950800  1
  C  872  1  0.68809200  0.14255900  0.68129700  1
  C  873  1  0.67034700  0.14382700  0.69626000  1
  C  874  1  0.69167800  0.14206500  0.63914600  1
  C  875  1  0.68210700  0.14238100  0.61715000  1
  C  877  1  0.65759500  0.14268600  0.58813000  1
  C  878  1  0.67942800  0.14242900  0.57929700  1
  C  879  1  0.69442400  0.14250800  0.59705000  1
  C  880  1  0.63751000  0.14274300  0.57506400  1
  C  881  1  0.61533700  0.14383000  0.58398600  1
  C  883  1  0.58656700  0.14561300  0.60825500  1
  C  884  1  0.57760500  0.14493600  0.58648900  1
  C  885  1  0.59534900  0.14408400  0.57151800  1
  C  886  1  0.57406600  0.14629000  0.62862200  1
  C  887  1  0.55019500  0.14498100  0.62684000  1
  C  888  1  0.53734000  0.16400300  0.62046400  1
  C  889  1  0.51378200  0.16233300  0.61835700  1
  C  890  1  0.50273300  0.14186900  0.62336900  1
  C  891  1  0.51557300  0.12285900  0.62968100  1
  C  892  1  0.53914900  0.12432500  0.63116500  1
  C  893  1  0.63962300  0.14156400  0.55120800  1
  C  894  1  0.64531300  0.16094100  0.53864100  1
  C  895  1  0.64564300  0.16011400  0.51496900  1
  C  896  1  0.64016600  0.14007100  0.50318600  1
  C  897  1  0.63438100  0.12078400  0.51603500  1
  C  898  1  0.63440800  0.12139300  0.53971000  1
  C  899  1  0.71558200  0.14087200  0.64088100  1
  C  900  1  0.72704500  0.12069300  0.63560400  1
  C  901  1  0.75072700  0.12014000  0.63514000  1
  C  902  1  0.76363600  0.13947700  0.64060600  1
  C  903  1  0.75189900  0.15951000  0.64621700  1
  C  904  1  0.72822300  0.16028500  0.64629400  1
  C  905  1  0.62592600  0.14412100  0.71649400  1
  C  906  1  0.62935100  0.12325700  0.72747300  1
  C  907  1  0.62008000  0.16330100  0.72937000  1
  C  908  1  0.61769600  0.16161500  0.75289700  1
  C  909  1  0.62180600  0.14091200  0.76385500  1
  C  910  1  0.62754700  0.12173200  0.75102000  1
  C  945  1  0.68830400  0.58620600  0.14621900  1
  C  946  1  0.67054100  0.57123300  0.14663500  1
  C  947  1  0.65048700  0.58361000  0.14672200  1
  C  949  1  0.67951900  0.60807400  0.14647100  1
  C  950  1  0.69260000  0.62814500  0.14573200  1
  C  951  1  0.68370600  0.65033900  0.14494400  1
  C  953  1  0.65945400  0.67913800  0.14334600  1
  C  954  1  0.68124800  0.68803900  0.14286400  1
  C  955  1  0.69620600  0.67028700  0.14405600  1
  C  956  1  0.63909500  0.69164200  0.14252100  1
  C  957  1  0.61708700  0.68209600  0.14285100  1
  C  959  1  0.58804500  0.65761700  0.14306000  1
  C  960  1  0.57923100  0.67946000  0.14291000  1
  C  961  1  0.59699900  0.69443600  0.14305000  1
  C  962  1  0.57495900  0.63754800  0.14300700  1
  C  963  1  0.58386800  0.61536800  0.14399200  1
  C  965  1  0.60812600  0.58659200  0.14565700  1
  C  966  1  0.58636300  0.57763300  0.14492200  1
  C  967  1  0.57139500  0.59538300  0.14413500  1
  C  968  1  0.62849100  0.57408900  0.14631700  1
  C  969  1  0.62669500  0.55023500  0.14489900  1
  C  970  1  0.62036800  0.53730600  0.16388500  1
  C  971  1  0.61828100  0.51375500  0.16212200  1
  C  972  1  0.62322600  0.50281400  0.14158800  1
  C  973  1  0.62947500  0.51572600  0.12261000  1
  C  974  1  0.63096600  0.53929200  0.12417600  1
  C  975  1  0.55110500  0.63967900  0.14178400  1
  C  976  1  0.53850300  0.64530300  0.16115600  1
  C  977  1  0.51483200  0.64565000  0.16028000  1
  C  978  1  0.50308300  0.64022100  0.14020200  1
  C  979  1  0.51597600  0.63446100  0.12093600  1
  C  980  1  0.53965100  0.63455300  0.12156600  1
  C  981  1  0.64084400  0.71553700  0.14125700  1
  C  982  1  0.63545500  0.72692300  0.12106600  1
  C  983  1  0.63506200  0.75059700  0.12040800  1
  C  984  1  0.64066700  0.76357400  0.13966100  1
  C  985  1  0.64636200  0.75191400  0.15971500  1
  C  986  1  0.64638300  0.72824200  0.16059000  1
  C  987  1  0.71641300  0.62585200  0.14424100  1
  C  988  1  0.72734200  0.62926600  0.12334800  1
  C  989  1  0.72933400  0.62001400  0.16339200  1
  C  990  1  0.75286000  0.61763800  0.16165100  1
  C  991  1  0.76376600  0.62172700  0.14091700  1
  C  992  1  0.75088400  0.62745600  0.12176500  1
  C  1027  1  0.64465400  0.18980900  0.08863700  1
  C  1028  1  0.64491300  0.17262000  0.07299700  1
  C  1029  1  0.64497900  0.15210300  0.08459100  1
  C  1031  1  0.64494900  0.18020100  0.11015300  1
  C  1032  1  0.64469100  0.19251800  0.13071600  1
  C  1033  1  0.64484900  0.18278000  0.15256400  1
  C  1035  1  0.64490800  0.15741900  0.18044100  1
  C  1036  1  0.64441900  0.17885300  0.19018500  1
  C  1037  1  0.64460500  0.19449500  0.17299600  1
  C  1038  1  0.64473500  0.13658200  0.19216800  1
  C  1039  1  0.64511600  0.11494900  0.18183000  1
  C  1041  1  0.64510900  0.08684300  0.15627800  1
  C  1042  1  0.64465200  0.07723700  0.17778800  1
  C  1043  1  0.64488800  0.09443100  0.19342500  1
  C  1044  1  0.64468700  0.07453100  0.13571800  1
  C  1045  1  0.64487100  0.08427900  0.11387200  1
  C  1047  1  0.64491700  0.10964000  0.08599000  1
  C  1048  1  0.64439700  0.08820400  0.07625000  1
  C  1049  1  0.64457400  0.07256300  0.09344000  1
  C  1050  1  0.64478700  0.13047300  0.07424900  1
  C  1051  1  0.64377200  0.12954200  0.05031100  1
  C  1052  1  0.66315500  0.12418600  0.03759700  1
  C  1053  1  0.66205100  0.12341400  0.01394500  1
  C  1054  1  0.64166000  0.12792900  0.00237804  1
  C  1055  1  0.62249100  0.13386800  0.01531400  1
  C  1056  1  0.62340300  0.13433700  0.03897800  1
  C  1057  1  0.64300500  0.05064500  0.13704200  1
  C  1058  1  0.66206300  0.03740300  0.14227500  1
  C  1059  1  0.66033300  0.01378000  0.14293900  1
  C  1060  1  0.63963500  0.00275104  0.13842400  1
  C  1061  1  0.62075100  0.01623800  0.13281300  1
  C  1062  1  0.62228800  0.03986800  0.13245400  1
  C  1063  1  0.64307400  0.13749200  0.21606800  1
  C  1064  1  0.62237800  0.13265100  0.22676900  1
  C  1065  1  0.62083500  0.13268300  0.25039800  1
  C  1066  1  0.63968700  0.13822300  0.26396000  1
  C  1067  1  0.66037200  0.14296800  0.25300500  1
  C  1068  1  0.66210800  0.14263200  0.22937700  1
  C  1069  1  0.64368800  0.21643500  0.12937000  1
  C  1070  1  0.62331500  0.22786100  0.13392300  1
  C  1071  1  0.66309600  0.22904600  0.12387600  1
  C  1072  1  0.66201700  0.25268200  0.12274300  1
  C  1073  1  0.64163900  0.26435000  0.12707100  1
  C  1074  1  0.62244000  0.25151700  0.13313400  1
  C  1109  1  0.08864000  0.64456800  0.18985700  1
  C  1110  1  0.07296800  0.64478400  0.17269800  1
  C  1111  1  0.08452700  0.64494200  0.15216200  1
  C  1113  1  0.11013700  0.64495200  0.18021100  1
  C  1114  1  0.13072600  0.64477800  0.19248900  1
  C  1115  1  0.15256100  0.64496100  0.18272700  1
  C  1117  1  0.18040400  0.64499100  0.15733200  1
  C  1118  1  0.19017800  0.64453700  0.17875300  1
  C  1119  1  0.17300900  0.64476800  0.19441700  1
  C  1120  1  0.19210000  0.64480000  0.13647900  1
  C  1121  1  0.18172300  0.64517100  0.11486500  1
  C  1123  1  0.15612200  0.64520800  0.08680800  1
  C  1124  1  0.17761600  0.64474500  0.07716100  1
  C  1125  1  0.19328300  0.64492300  0.09432700  1
  C  1126  1  0.13553900  0.64482600  0.07453400  1
  C  1127  1  0.11370700  0.64502000  0.08430900  1
  C  1129  1  0.08585700  0.64500900  0.10970200  1
  C  1130  1  0.07608900  0.64455400  0.08827900  1
  C  1131  1  0.09325800  0.64477200  0.07261900  1
  C  1132  1  0.07414600  0.64478700  0.13055200  1
  C  1133  1  0.05020800  0.64377400  0.12965200  1
  C  1134  1  0.03748900  0.66316700  0.12434800  1
  C  1135  1  0.01383900  0.66205900  0.12357800  1
  C  1136  1  0.00227704  0.64165400  0.12804200  1
  C  1137  1  0.01521800  0.62247000  0.13391900  1
  C  1138  1  0.03888000  0.62339300  0.13440800  1
  C  1139  1  0.13682100  0.64321100  0.05064600  1
  C  1140  1  0.14210200  0.66228700  0.03745100  1
  C  1141  1  0.14278600  0.66060100  0.01382600  1
  C  1142  1  0.13822400  0.63993500  0.00276404  1
  C  1143  1  0.13253300  0.62104100  0.01620400  1
  C  1144  1  0.13216700  0.62252900  0.03983300  1
  C  1145  1  0.21599900  0.64310600  0.13735200  1
  C  1146  1  0.22666900  0.62239300  0.13251100  1
  C  1147  1  0.25029700  0.62082100  0.13251800  1
  C  1148  1  0.26388800  0.63965800  0.13803400  1
  C  1149  1  0.25296400  0.66035800  0.14278200  1
  C  1150  1  0.22933800  0.66212800  0.14246100  1
  C  1151  1  0.12941300  0.64381800  0.21640400  1
  C  1152  1  0.13399600  0.62346800  0.22785700  1
  C  1153  1  0.12387800  0.66323800  0.22897800  1
  C  1154  1  0.12272300  0.66219100  0.25261300  1
  C  1155  1  0.12705400  0.64182800  0.26430500  1
  C  1156  1  0.13315600  0.62261500  0.25150900  1
  C  1191  1  0.18864200  0.08819900  0.64317500  1
  C  1192  1  0.17112400  0.07292100  0.64342800  1
  C  1193  1  0.15086600  0.08493500  0.64418000  1
  C  1195  1  0.17952100  0.10990800  0.64414600  1
  C  1196  1  0.19229300  0.13020300  0.64418800  1
  C  1197  1  0.18306700  0.15228300  0.64455400  1
  C  1199  1  0.15841000  0.18082000  0.64441100  1
  C  1200  1  0.18008500  0.19001500  0.64441400  1
  C  1201  1  0.19528000  0.17242700  0.64474000  1
  C  1202  1  0.13788600  0.19309000  0.64385300  1
  C  1203  1  0.11603100  0.18320100  0.64386300  1
  C  1205  1  0.08737200  0.15824200  0.64392000  1
  C  1206  1  0.07825300  0.17993700  0.64274200  1
  C  1207  1  0.09577700  0.19521300  0.64292700  1
  C  1208  1  0.07461300  0.13794600  0.64392900  1
  C  1209  1  0.08385100  0.11587300  0.64452900  1
  C  1211  1  0.10849900  0.08732400  0.64471400  1
  C  1212  1  0.08681600  0.07814200  0.64463000  1
  C  1213  1  0.07162900  0.09573500  0.64474100  1
  C  1214  1  0.12902000  0.07503300  0.64430300  1
  C  1215  1  0.12751400  0.05109500  0.64297500  1
  C  1216  1  0.12163000  0.03816500  0.66211300  1
  C  1217  1  0.11990100  0.01456200  0.66057100  1
  C  1218  1  0.12475600  0.00349604  0.64007800  1
  C  1219  1  0.13064000  0.01636300  0.62095500  1
  C  1220  1  0.13175600  0.03999000  0.62231700  1
  C  1221  1  0.05075600  0.13975800  0.64221800  1
  C  1222  1  0.03763400  0.14549800  0.66121100  1
  C  1223  1  0.01400300  0.14622200  0.65958900  1
  C  1224  1  0.00284004  0.14125800  0.63906700  1
  C  1225  1  0.01621300  0.13529000  0.62020800  1
  C  1226  1  0.03985000  0.13482600  0.62164600  1
  C  1227  1  0.13937300  0.21698700  0.64202700  1
  C  1228  1  0.13535500  0.22759400  0.62106600  1
  C  1229  1  0.13605800  0.25120500  0.61925000  1
  C  1230  1  0.14124700  0.26453300  0.63824600  1
  C  1231  1  0.14589400  0.25399000  0.65905800  1
  C  1232  1  0.14466600  0.23038200  0.66101600  1
  C  1233  1  0.21618600  0.12832700  0.64319500  1
  C  1234  1  0.22777700  0.13305800  0.62295400  1
  C  1235  1  0.22863500  0.12228300  0.66254600  1
  C  1236  1  0.25226500  0.12088000  0.66156200  1
  C  1237  1  0.26409900  0.12545400  0.64133200  1
  C  1238  1  0.25142600  0.13195300  0.62216700  1
  C  1273  1  0.12309000  0.62583000  0.32533800  1
  C  1274  1  0.13893300  0.64024800  0.33587200  1
  C  1276  1  0.12695600  0.62933500  0.37259100  1
  C  1277  1  0.11124200  0.61384900  0.36333000  1
  C  1278  1  0.10950200  0.61234500  0.33964000  1
  C  1280  1  0.12894200  0.63176100  0.39612700  1
  C  1281  1  0.14585400  0.65035700  0.42754200  1
  C  1282  1  0.13371900  0.63682400  0.44287600  1
  C  1283  1  0.11849500  0.62070300  0.43414800  1
  C  1286  1  0.11567200  0.61815600  0.41067900  1
  C  1287  1  0.10021400  0.60260500  0.40142400  1
  C  1288  1  0.09788400  0.60059700  0.37791200  1
  C  1293  1  0.13650100  0.63942400  0.46634400  1
  C  1294  1  0.12126500  0.62449000  0.30138000  1
  C  1297  1  0.13902400  0.62232500  0.94208300  1
  C  1298  1  0.12227300  0.63617000  0.93221700  1
  C  1300  1  0.13282200  0.62527100  0.89505400  1
  C  1301  1  0.14930300  0.61022200  0.90369300  1
  C  1302  1  0.15215500  0.60892400  0.92729200  1
  C  1304  1  0.13015400  0.62793600  0.87160600  1
  C  1305  1  0.11245900  0.64690900  0.84087300  1
  C  1306  1  0.12574100  0.63526800  0.82484700  1
  C  1307  1  0.14098700  0.61886200  0.83319600  1
  C  1310  1  0.14367800  0.61521900  0.85653700  1
  C  1311  1  0.15958400  0.59975400  0.86517800  1
  C  1312  1  0.16249300  0.59739700  0.88859200  1
  C  1317  1  0.12352000  0.63971100  0.80131500  1
  C  1318  1  0.14221500  0.62157700  0.96591200  1
  C  1321  1  0.32527400  0.12204300  0.62556600  1
  C  1322  1  0.33564700  0.13769200  0.64030900  1
  C  1324  1  0.37251200  0.12634400  0.62916000  1
  C  1325  1  0.36340900  0.11082200  0.61338800  1
  C  1326  1  0.33973200  0.10886600  0.61183900  1
  C  1328  1  0.39603700  0.12854600  0.63159800  1
  C  1329  1  0.42731300  0.14542500  0.65047500  1
  C  1330  1  0.44277400  0.13367700  0.63674200  1
  C  1331  1  0.43417100  0.11867800  0.62034100  1
  C  1334  1  0.41072300  0.11567900  0.61774800  1
  C  1335  1  0.40161400  0.10040500  0.60192900  1
  C  1336  1  0.37812600  0.09786700  0.59988900  1
  C  1341  1  0.46623600  0.13651700  0.63950700  1
  C  1342  1  0.30132300  0.12008300  0.62408900  1
  C  1345  1  0.94201000  0.14069000  0.62187000  1
  C  1346  1  0.93258400  0.12394500  0.63602700  1
  C  1348  1  0.89512100  0.13355100  0.62523900  1
  C  1349  1  0.90332500  0.15000600  0.60991500  1
  C  1350  1  0.92685600  0.15331600  0.60839300  1
  C  1352  1  0.87174100  0.13046300  0.62812000  1
  C  1353  1  0.84147400  0.11245700  0.64757400  1
  C  1354  1  0.82511700  0.12537100  0.63598000  1
  C  1355  1  0.83305200  0.14055400  0.61931300  1
  C  1358  1  0.85631500  0.14357000  0.61539100  1
  C  1359  1  0.86453400  0.15943900  0.59966000  1
  C  1360  1  0.88786900  0.16274000  0.59705200  1
  C  1365  1  0.80166700  0.12294400  0.64079100  1
  C  1366  1  0.96577000  0.14434400  0.62088600  1
  C  1369  1  0.62563500  0.32540900  0.12317100  1
  C  1370  1  0.64008500  0.33594900  0.13898100  1
  C  1372  1  0.62924400  0.37267200  0.12693300  1
  C  1373  1  0.61372400  0.36340800  0.11125400  1
  C  1374  1  0.61216400  0.33971400  0.10956800  1
  C  1376  1  0.63173100  0.39620900  0.12885100  1
  C  1377  1  0.65042500  0.42762800  0.14565300  1
  C  1378  1  0.63692700  0.44296800  0.13348500  1
  C  1379  1  0.62076400  0.43423700  0.11830700  1
  C  1382  1  0.61815300  0.41076400  0.11555400  1
  C  1383  1  0.60256500  0.40150100  0.10013700  1
  C  1384  1  0.60049800  0.37798800  0.09787100  1
  C  1389  1  0.63958100  0.46644100  0.13622100  1
  C  1390  1  0.62426400  0.30144400  0.12137800  1
  C  1393  1  0.62210800  0.94203200  0.13878800  1
  C  1394  1  0.63590400  0.93234500  0.12189300  1
  C  1396  1  0.62536500  0.89505100  0.13235500  1
  C  1397  1  0.61035400  0.90350600  0.14896600  1
  C  1398  1  0.60888700  0.92708500  0.15192500  1
  C  1400  1  0.62824600  0.87163300  0.12961200  1
  C  1401  1  0.64745900  0.84113500  0.11176400  1
  C  1402  1  0.63611800  0.82495700  0.12512400  1
  C  1403  1  0.61970500  0.83310300  0.14047500  1
  C  1406  1  0.61579200  0.85640100  0.14320000  1
  C  1407  1  0.60034300  0.86485600  0.15922100  1
  C  1408  1  0.59776300  0.88824100  0.16219700  1
  C  1413  1  0.64090100  0.80148300  0.12289800  1
  C  1414  1  0.62128500  0.96583900  0.14213200  1
  C  1417  1  0.62546500  0.12385900  0.94139700  1
  C  1418  1  0.63967500  0.13977800  0.93069800  1
  C  1420  1  0.62879300  0.12739300  0.89409100  1
  C  1421  1  0.61353800  0.11155500  0.90352600  1
  C  1422  1  0.61211500  0.10999100  0.92723300  1
  C  1424  1  0.63109700  0.12922900  0.87052700  1
  C  1425  1  0.64930000  0.14616900  0.83889600  1
  C  1426  1  0.63587700  0.13373300  0.82370200  1
  C  1427  1  0.62002200  0.11834100  0.83262600  1
  C  1430  1  0.61761800  0.11566600  0.85612900  1
  C  1431  1  0.60231500  0.10006700  0.86556400  1
  C  1432  1  0.60041700  0.09790600  0.88909900  1
  C  1437  1  0.63834000  0.13639800  0.80019500  1
  C  1438  1  0.62420200  0.12218800  0.96537400  1
  C  1441  1  0.62211100  0.13852100  0.32465000  1
  C  1442  1  0.63591900  0.12168100  0.33441300  1
  C  1444  1  0.62542200  0.13235600  0.37166000  1
  C  1445  1  0.61039400  0.14891100  0.36312800  1
  C  1446  1  0.60890200  0.15173800  0.33953500  1
  C  1448  1  0.62833100  0.12975300  0.39509000  1
  C  1449  1  0.64756200  0.11208100  0.42567600  1
  C  1450  1  0.63620200  0.12550800  0.44178500  1
  C  1451  1  0.61978800  0.14081400  0.43355900  1
  C  1454  1  0.61587700  0.14342000  0.41025000  1
  C  1455  1  0.60041200  0.15938500  0.40172000  1
  C  1456  1  0.59781200  0.16222700  0.37832300  1
  C  1461  1  0.64090600  0.12334000  0.46527800  1
  C  1462  1  0.62129700  0.14180000  0.30083800  1
  C  1465  1  0.12324200  0.32385600  0.63496500  1
  C  1466  1  0.13747900  0.33470700  0.61926500  1
  C  1468  1  0.12565500  0.37108700  0.63170400  1
  C  1469  1  0.11108800  0.36123600  0.64797200  1
  C  1470  1  0.10974500  0.33749200  0.64910100  1
  C  1472  1  0.12742000  0.39474100  0.63003200  1
  C  1473  1  0.14314800  0.42698100  0.61175600  1
  C  1474  1  0.13201200  0.44179500  0.62668700  1
  C  1475  1  0.11789900  0.43232700  0.64339800  1
  C  1478  1  0.11518200  0.40874900  0.64511400  1
  C  1479  1  0.10080400  0.39886100  0.66130100  1
  C  1480  1  0.09862300  0.37528700  0.66258900  1
  C  1485  1  0.13437300  0.46543500  0.62459100  1
  C  1486  1  0.12248200  0.30004900  0.63637900  1
  C  1489  1  0.14005000  0.94342500  0.63618500  1
  C  1490  1  0.12436500  0.93317800  0.62149100  1
  C  1492  1  0.13576100  0.89632500  0.63289600  1
  C  1493  1  0.15169000  0.90555900  0.64822300  1
  C  1494  1  0.15392000  0.92923800  0.64938600  1
  C  1496  1  0.13336900  0.87274700  0.63092400  1
  C  1497  1  0.11586600  0.84118000  0.61313200  1
  C  1498  1  0.12862700  0.82559900  0.62593300  1
  C  1499  1  0.14369600  0.83469600  0.64210800  1
  C  1502  1  0.14650700  0.85819300  0.64462700  1
  C  1503  1  0.16199300  0.86747400  0.66014600  1
  C  1504  1  0.16470600  0.89097100  0.66179300  1
  C  1509  1  0.12594800  0.80184300  0.62283400  1
  C  1510  1  0.14192500  0.96718300  0.63738100  1
  C  1513  1  0.32456100  0.62201500  0.13833500  1
  C  1514  1  0.33434600  0.63581600  0.12150200  1
  C  1516  1  0.37157900  0.62535200  0.13224800  1
  C  1517  1  0.36302700  0.61032500  0.14879600  1
  C  1518  1  0.33943100  0.60881900  0.15158300  1
  C  1520  1  0.39501000  0.62827700  0.12968900  1
  C  1521  1  0.42561200  0.64753700  0.11207500  1
  C  1522  1  0.44170700  0.63619700  0.12553700  1
  C  1523  1  0.43346800  0.61977600  0.14082900  1
  C  1526  1  0.41015700  0.61584300  0.14339000  1
  C  1527  1  0.40160900  0.60037600  0.15934500  1
  C  1528  1  0.37820900  0.59776000  0.16214600  1
  C  1533  1  0.46519700  0.64093600  0.12341900  1
  C  1534  1  0.30074200  0.62120400  0.14157100  1
  C  1537  1  0.94129700  0.62547100  0.12387400  1
  C  1538  1  0.93058500  0.63965700  0.13980600  1
  C  1540  1  0.89398800  0.62879300  0.12737600  1
  C  1541  1  0.90343600  0.61356000  0.11152500  1
  C  1542  1  0.92714600  0.61214200  0.10997400  1
  C  1544  1  0.87042400  0.63109200  0.12920000  1
  C  1545  1  0.83877900  0.64926300  0.14615100  1
  C  1546  1  0.82359600  0.63585200  0.13369200  1
  C  1547  1  0.83253000  0.62002400  0.11828000  1
  C  1550  1  0.85603500  0.61762800  0.11560800  1
  C  1551  1  0.86548100  0.60234900  0.09999700  1
  C  1552  1  0.88902000  0.60045700  0.09784700  1
  C  1557  1  0.80008800  0.63829300  0.13637100  1
  C  1558  1  0.96527400  0.62421400  0.12221200  1
  C  1561  1  0.27809300  0.82236900  0.72159300  1
  C  1562  1  0.27899500  0.80473200  0.70646800  1
  C  1563  1  0.27923700  0.78454700  0.71864200  1
  C  1565  1  0.27807900  0.81338800  0.74337100  1
  C  1566  1  0.27720300  0.82631200  0.76354700  1
  C  1567  1  0.27704300  0.81706800  0.78562400  1
  C  1569  1  0.27710300  0.79234600  0.81410300  1
  C  1570  1  0.27633000  0.81399800  0.82333000  1
  C  1571  1  0.27653200  0.82923900  0.80578400  1
  C  1572  1  0.27728000  0.77181300  0.82636400  1
  C  1573  1  0.27811400  0.74988900  0.81665300  1
  C  1575  1  0.27899200  0.72104600  0.79191800  1
  C  1576  1  0.27858700  0.71205700  0.81368800  1
  C  1577  1  0.27833500  0.72969500  0.82881700  1
  C  1578  1  0.27917700  0.70811500  0.77173000  1
  C  1579  1  0.27965200  0.71735900  0.74966800  1
  C  1581  1  0.27994400  0.74207000  0.72119300  1
  C  1582  1  0.27981900  0.72038900  0.71197600  1
  C  1583  1  0.27985400  0.70515800  0.72952800  1
  C  1584  1  0.27969600  0.76261600  0.70894000  1
  C  1585  1  0.27870000  0.76102500  0.68505000  1
  C  1586  1  0.29803300  0.75523200  0.67238000  1
  C  1587  1  0.29669500  0.75326100  0.64879400  1
  C  1588  1  0.27622600  0.75781000  0.63757500  1
  C  1589  1  0.25691100  0.76356400  0.65021100  1
  C  1590  1  0.25806700  0.76492400  0.67380700  1
  C  1591  1  0.27774200  0.68421200  0.77362200  1
  C  1592  1  0.29664300  0.67125300  0.78016500  1
  C  1593  1  0.29497500  0.64765000  0.78190700  1
  C  1594  1  0.27464800  0.63658800  0.77635500  1
  C  1595  1  0.25574400  0.64953800  0.76992100  1
  C  1596  1  0.25719900  0.67314900  0.76878500  1
  C  1597  1  0.27629900  0.77332500  0.85026900  1
  C  1598  1  0.25619400  0.76797900  0.86181600  1
  C  1599  1  0.25571400  0.76775700  0.88549300  1
  C  1600  1  0.27502900  0.77358000  0.89827900  1
  C  1601  1  0.29501400  0.77915300  0.88645100  1
  C  1602  1  0.29572500  0.77898500  0.86277500  1
  C  1603  1  0.27664600  0.85025700  0.76163300  1
  C  1604  1  0.25665800  0.86234400  0.76623600  1
  C  1605  1  0.29648600  0.86234400  0.75649300  1
  C  1606  1  0.29629400  0.88603600  0.75605300  1
  C  1607  1  0.27640400  0.89838900  0.76078200  1
  C  1608  1  0.25665300  0.88605300  0.76610300  1
  C  1643  1  0.72113600  0.28101700  0.82329400  1
  C  1644  1  0.70614300  0.28144900  0.80554700  1
  C  1645  1  0.71849600  0.28153700  0.78547900  1
  C  1647  1  0.74299500  0.28122000  0.81448700  1
  C  1648  1  0.76307800  0.28042100  0.82755000  1
  C  1649  1  0.78526700  0.27957200  0.81864300  1
  C  1651  1  0.81405400  0.27784300  0.79438200  1
  C  1652  1  0.82296600  0.27743300  0.81617100  1
  C  1653  1  0.80522100  0.27870100  0.83113400  1
  C  1654  1  0.82655200  0.27693900  0.77402000  1
  C  1655  1  0.81698100  0.27725500  0.75202400  1
  C  1657  1  0.79246900  0.27756000  0.72300400  1
  C  1658  1  0.81430200  0.27730300  0.71417100  1
  C  1659  1  0.82929800  0.27738200  0.73192400  1
  C  1660  1  0.77238400  0.27761700  0.70993800  1
  C  1661  1  0.75021100  0.27870400  0.71886000  1
  C  1663  1  0.72144100  0.28048700  0.74312900  1
  C  1664  1  0.71247900  0.27981000  0.72136300  1
  C  1665  1  0.73022300  0.27895800  0.70639200  1
  C  1666  1  0.70894000  0.28116400  0.76349600  1
  C  1667  1  0.68506900  0.27985500  0.76171400  1
  C  1668  1  0.67221400  0.29887700  0.75533800  1
  C  1669  1  0.64865600  0.29720700  0.75323100  1
  C  1670  1  0.63760700  0.27674300  0.75824300  1
  C  1671  1  0.65044700  0.25773300  0.76455500  1
  C  1672  1  0.67402300  0.25919900  0.76603900  1
  C  1673  1  0.77449700  0.27643800  0.68608200  1
  C  1674  1  0.78018700  0.29581500  0.67351500  1
  C  1675  1  0.78051700  0.29498800  0.64984300  1
  C  1676  1  0.77504000  0.27494500  0.63806000  1
  C  1677  1  0.76925500  0.25565800  0.65090900  1
  C  1678  1  0.76928200  0.25626700  0.67458400  1
  C  1679  1  0.85045600  0.27574600  0.77575500  1
  C  1680  1  0.86191900  0.25556700  0.77047800  1
  C  1681  1  0.88560100  0.25501400  0.77001400  1
  C  1682  1  0.89851000  0.27435100  0.77548000  1
  C  1683  1  0.88677300  0.29438400  0.78109100  1
  C  1684  1  0.86309700  0.29515900  0.78116800  1
  C  1685  1  0.76080000  0.27899500  0.85136800  1
  C  1686  1  0.76422500  0.25813100  0.86234700  1
  C  1687  1  0.75495400  0.29817500  0.86424400  1
  C  1688  1  0.75257000  0.29648900  0.88777100  1
  C  1689  1  0.75668000  0.27578600  0.89872900  1
  C  1690  1  0.76242100  0.25660600  0.88589400  1
  C  1725  1  0.82317800  0.72108000  0.28109300  1
  C  1726  1  0.80541500  0.70610700  0.28150900  1
  C  1727  1  0.78536100  0.71848400  0.28159600  1
  C  1729  1  0.81439300  0.74294800  0.28134500  1
  C  1730  1  0.82747400  0.76301900  0.28060600  1
  C  1731  1  0.81858000  0.78521300  0.27981800  1
  C  1733  1  0.79432800  0.81401200  0.27822000  1
  C  1734  1  0.81612200  0.82291300  0.27773800  1
  C  1735  1  0.83108000  0.80516100  0.27893000  1
  C  1736  1  0.77396900  0.82651600  0.27739500  1
  C  1737  1  0.75196100  0.81697000  0.27772500  1
  C  1739  1  0.72291900  0.79249100  0.27793400  1
  C  1740  1  0.71410500  0.81433400  0.27778400  1
  C  1741  1  0.73187300  0.82931000  0.27792400  1
  C  1742  1  0.70983300  0.77242200  0.27788100  1
  C  1743  1  0.71874200  0.75024200  0.27886600  1
  C  1745  1  0.74300000  0.72146600  0.28053100  1
  C  1746  1  0.72123700  0.71250700  0.27979600  1
  C  1747  1  0.70626900  0.73025700  0.27900900  1
  C  1748  1  0.76336500  0.70896300  0.28119100  1
  C  1749  1  0.76156900  0.68510900  0.27977300  1
  C  1750  1  0.75524200  0.67218000  0.29875900  1
  C  1751  1  0.75315500  0.64862900  0.29699600  1
  C  1752  1  0.75810000  0.63768800  0.27646200  1
  C  1753  1  0.76434900  0.65060000  0.25748400  1
  C  1754  1  0.76584000  0.67416600  0.25905000  1
  C  1755  1  0.68597900  0.77455300  0.27665800  1
  C  1756  1  0.67337700  0.78017700  0.29603000  1
  C  1757  1  0.64970600  0.78052400  0.29515400  1
  C  1758  1  0.63795700  0.77509500  0.27507600  1
  C  1759  1  0.65085000  0.76933500  0.25581000  1
  C  1760  1  0.67452500  0.76942700  0.25644000  1
  C  1761  1  0.77571800  0.85041100  0.27613100  1
  C  1762  1  0.77032900  0.86179700  0.25594000  1
  C  1763  1  0.76993600  0.88547100  0.25528200  1
  C  1764  1  0.77554100  0.89844800  0.27453500  1
  C  1765  1  0.78123600  0.88678800  0.29458900  1
  C  1766  1  0.78125700  0.86311600  0.29546400  1
  C  1767  1  0.85128700  0.76072600  0.27911500  1
  C  1768  1  0.86221600  0.76414000  0.25822200  1
  C  1769  1  0.86420800  0.75488800  0.29826600  1
  C  1770  1  0.88773400  0.75251200  0.29652500  1
  C  1771  1  0.89864000  0.75660100  0.27579100  1
  C  1772  1  0.88575800  0.76233000  0.25663900  1
  C  1807  1  0.77952800  0.32468300  0.22351100  1
  C  1808  1  0.77978700  0.30749400  0.20787100  1
  C  1809  1  0.77985300  0.28697700  0.21946500  1
  C  1811  1  0.77982300  0.31507500  0.24502700  1
  C  1812  1  0.77956500  0.32739200  0.26559000  1
  C  1813  1  0.77972300  0.31765400  0.28743800  1
  C  1815  1  0.77978200  0.29229300  0.31531500  1
  C  1816  1  0.77929300  0.31372700  0.32505900  1
  C  1817  1  0.77947900  0.32936900  0.30787000  1
  C  1818  1  0.77960900  0.27145600  0.32704200  1
  C  1819  1  0.77999000  0.24982300  0.31670400  1
  C  1821  1  0.77998300  0.22171700  0.29115200  1
  C  1822  1  0.77952600  0.21211100  0.31266200  1
  C  1823  1  0.77976200  0.22930500  0.32829900  1
  C  1824  1  0.77956100  0.20940500  0.27059200  1
  C  1825  1  0.77974500  0.21915300  0.24874600  1
  C  1827  1  0.77979100  0.24451400  0.22086400  1
  C  1828  1  0.77927100  0.22307800  0.21112400  1
  C  1829  1  0.77944800  0.20743700  0.22831400  1
  C  1830  1  0.77966100  0.26534700  0.20912300  1
  C  1831  1  0.77864600  0.26441600  0.18518500  1
  C  1832  1  0.79802900  0.25906000  0.17247100  1
  C  1833  1  0.79692500  0.25828800  0.14881900  1
  C  1834  1  0.77653400  0.26280300  0.13725200  1
  C  1835  1  0.75736500  0.26874200  0.15018800  1
  C  1836  1  0.75827700  0.26921100  0.17385200  1
  C  1837  1  0.77787900  0.18551900  0.27191600  1
  C  1838  1  0.79693700  0.17227700  0.27714900  1
  C  1839  1  0.79520700  0.14865400  0.27781300  1
  C  1840  1  0.77450900  0.13762500  0.27329800  1
  C  1841  1  0.75562500  0.15111200  0.26768700  1
  C  1842  1  0.75716200  0.17474200  0.26732800  1
  C  1843  1  0.77794800  0.27236600  0.35094200  1
  C  1844  1  0.75725200  0.26752500  0.36164300  1
  C  1845  1  0.75570900  0.26755700  0.38527200  1
  C  1846  1  0.77456100  0.27309700  0.39883400  1
  C  1847  1  0.79524600  0.27784200  0.38787900  1
  C  1848  1  0.79698200  0.27750600  0.36425100  1
  C  1849  1  0.77856200  0.35130900  0.26424400  1
  C  1850  1  0.75818900  0.36273500  0.26879700  1
  C  1851  1  0.79797000  0.36392000  0.25875000  1
  C  1852  1  0.79689100  0.38755600  0.25761700  1
  C  1853  1  0.77651300  0.39922400  0.26194500  1
  C  1854  1  0.75731400  0.38639100  0.26800800  1
  C  1889  1  0.22351400  0.77944200  0.32473100  1
  C  1890  1  0.20784200  0.77965800  0.30757200  1
  C  1891  1  0.21940100  0.77981600  0.28703600  1
  C  1893  1  0.24501100  0.77982600  0.31508500  1
  C  1894  1  0.26560000  0.77965200  0.32736300  1
  C  1895  1  0.28743500  0.77983500  0.31760100  1
  C  1897  1  0.31527800  0.77986500  0.29220600  1
  C  1898  1  0.32505200  0.77941100  0.31362700  1
  C  1899  1  0.30788300  0.77964200  0.32929100  1
  C  1900  1  0.32697400  0.77967400  0.27135300  1
  C  1901  1  0.31659700  0.78004500  0.24973900  1
  C  1903  1  0.29099600  0.78008200  0.22168200  1
  C  1904  1  0.31249000  0.77961900  0.21203500  1
  C  1905  1  0.32815700  0.77979700  0.22920100  1
  C  1906  1  0.27041300  0.77970000  0.20940800  1
  C  1907  1  0.24858100  0.77989400  0.21918300  1
  C  1909  1  0.22073100  0.77988300  0.24457600  1
  C  1910  1  0.21096300  0.77942800  0.22315300  1
  C  1911  1  0.22813200  0.77964600  0.20749300  1
  C  1912  1  0.20902000  0.77966100  0.26542600  1
  C  1913  1  0.18508200  0.77864800  0.26452600  1
  C  1914  1  0.17236300  0.79804100  0.25922200  1
  C  1915  1  0.14871300  0.79693300  0.25845200  1
  C  1916  1  0.13715100  0.77652800  0.26291600  1
  C  1917  1  0.15009200  0.75734400  0.26879300  1
  C  1918  1  0.17375400  0.75826700  0.26928200  1
  C  1919  1  0.27169500  0.77808500  0.18552000  1
  C  1920  1  0.27697600  0.79716100  0.17232500  1
  C  1921  1  0.27766000  0.79547500  0.14870000  1
  C  1922  1  0.27309800  0.77480900  0.13763800  1
  C  1923  1  0.26740700  0.75591500  0.15107800  1
  C  1924  1  0.26704100  0.75740300  0.17470700  1
  C  1925  1  0.35087300  0.77798000  0.27222600  1
  C  1926  1  0.36154300  0.75726700  0.26738500  1
  C  1927  1  0.38517100  0.75569500  0.26739200  1
  C  1928  1  0.39876200  0.77453200  0.27290800  1
  C  1929  1  0.38783800  0.79523200  0.27765600  1
  C  1930  1  0.36421200  0.79700200  0.27733500  1
  C  1931  1  0.26428700  0.77869200  0.35127800  1
  C  1932  1  0.26887000  0.75834200  0.36273100  1
  C  1933  1  0.25875200  0.79811200  0.36385200  1
  C  1934  1  0.25759700  0.79706500  0.38748700  1
  C  1935  1  0.26192800  0.77670200  0.39917900  1
  C  1936  1  0.26803000  0.75748900  0.38638300  1
  C  1971  1  0.32351600  0.22307300  0.77804900  1
  C  1972  1  0.30599800  0.20779500  0.77830200  1
  C  1973  1  0.28574000  0.21980900  0.77905400  1
  C  1975  1  0.31439500  0.24478200  0.77902000  1
  C  1976  1  0.32716700  0.26507700  0.77906200  1
  C  1977  1  0.31794100  0.28715700  0.77942800  1
  C  1979  1  0.29328400  0.31569400  0.77928500  1
  C  1980  1  0.31495900  0.32488900  0.77928800  1
  C  1981  1  0.33015400  0.30730100  0.77961400  1
  C  1982  1  0.27276000  0.32796400  0.77872700  1
  C  1983  1  0.25090500  0.31807500  0.77873700  1
  C  1985  1  0.22224600  0.29311600  0.77879400  1
  C  1986  1  0.21312700  0.31481100  0.77761600  1
  C  1987  1  0.23065100  0.33008700  0.77780100  1
  C  1988  1  0.20948700  0.27282000  0.77880300  1
  C  1989  1  0.21872500  0.25074700  0.77940300  1
  C  1991  1  0.24337300  0.22219800  0.77958800  1
  C  1992  1  0.22169000  0.21301600  0.77950400  1
  C  1993  1  0.20650300  0.23060900  0.77961500  1
  C  1994  1  0.26389400  0.20990700  0.77917700  1
  C  1995  1  0.26238800  0.18596900  0.77784900  1
  C  1996  1  0.25650400  0.17303900  0.79698700  1
  C  1997  1  0.25477500  0.14943600  0.79544500  1
  C  1998  1  0.25963000  0.13837000  0.77495200  1
  C  1999  1  0.26551400  0.15123700  0.75582900  1
  C  2000  1  0.26663000  0.17486400  0.75719100  1
  C  2001  1  0.18563000  0.27463200  0.77709200  1
  C  2002  1  0.17250800  0.28037200  0.79608500  1
  C  2003  1  0.14887700  0.28109600  0.79446300  1
  C  2004  1  0.13771400  0.27613200  0.77394100  1
  C  2005  1  0.15108700  0.27016400  0.75508200  1
  C  2006  1  0.17472400  0.26970000  0.75652000  1
  C  2007  1  0.27424700  0.35186100  0.77690100  1
  C  2008  1  0.27022900  0.36246800  0.75594000  1
  C  2009  1  0.27093200  0.38607900  0.75412400  1
  C  2010  1  0.27612100  0.39940700  0.77312000  1
  C  2011  1  0.28076800  0.38886400  0.79393200  1
  C  2012  1  0.27954000  0.36525600  0.79589000  1
  C  2013  1  0.35106000  0.26320100  0.77806900  1
  C  2014  1  0.36265100  0.26793200  0.75782800  1
  C  2015  1  0.36350900  0.25715700  0.79742000  1
  C  2016  1  0.38713900  0.25575400  0.79643600  1
  C  2017  1  0.39897300  0.26032800  0.77620600  1
  C  2018  1  0.38630000  0.26682700  0.75704100  1
  C  2053  1  0.25796400  0.76070400  0.46021200  1
  C  2054  1  0.27380700  0.77512200  0.47074600  1
  C  2056  1  0.26183000  0.76420900  0.50746500  1
  C  2057  1  0.24611600  0.74872300  0.49820400  1
  C  2058  1  0.24437600  0.74721900  0.47451400  1
  C  2060  1  0.26381600  0.76663500  0.53100100  1
  C  2061  1  0.28072800  0.78523100  0.56241600  1
  C  2062  1  0.26859300  0.77169800  0.57775000  1
  C  2063  1  0.25336900  0.75557700  0.56902200  1
  C  2066  1  0.25054600  0.75303000  0.54555300  1
  C  2067  1  0.23508800  0.73747900  0.53629800  1
  C  2068  1  0.23275800  0.73547100  0.51278600  1
  C  2073  1  0.27137500  0.77429800  0.60121800  1
  C  2074  1  0.25613900  0.75936400  0.43625400  1
  C  2077  1  0.27389800  0.75719900  0.07695710  1
  C  2078  1  0.25714700  0.77104400  0.06709110  1
  C  2080  1  0.26769600  0.76014500  0.02992810  1
  C  2081  1  0.28417700  0.74509600  0.03856710  1
  C  2082  1  0.28702900  0.74379800  0.06216610  1
  C  2084  1  0.26502800  0.76281000  0.00648009  1
  C  2085  1  0.24733300  0.78178300  0.97574700  1
  C  2086  1  0.26061500  0.77014200  0.95972100  1
  C  2087  1  0.27586100  0.75373600  0.96807000  1
  C  2090  1  0.27855200  0.75009300  0.99141100  1
  C  2091  1  0.29445800  0.73462800  0.00005209  1
  C  2092  1  0.29736700  0.73227100  0.02346610  1
  C  2097  1  0.25839400  0.77458500  0.93618900  1
  C  2098  1  0.27708900  0.75645100  0.10078600  1
  C  2101  1  0.46014800  0.25691700  0.76044000  1
  C  2102  1  0.47052100  0.27256600  0.77518300  1
  C  2104  1  0.50738600  0.26121800  0.76403400  1
  C  2105  1  0.49828300  0.24569600  0.74826200  1
  C  2106  1  0.47460600  0.24374000  0.74671300  1
  C  2108  1  0.53091100  0.26342000  0.76647200  1
  C  2109  1  0.56218700  0.28029900  0.78534900  1
  C  2110  1  0.57764800  0.26855100  0.77161600  1
  C  2111  1  0.56904500  0.25355200  0.75521500  1
  C  2114  1  0.54559700  0.25055300  0.75262200  1
  C  2115  1  0.53648800  0.23527900  0.73680300  1
  C  2116  1  0.51300000  0.23274100  0.73476300  1
  C  2121  1  0.60111000  0.27139100  0.77438100  1
  C  2122  1  0.43619700  0.25495700  0.75896300  1
  C  2125  1  0.07688410  0.27556400  0.75674400  1
  C  2126  1  0.06745810  0.25881900  0.77090100  1
  C  2128  1  0.02999510  0.26842500  0.76011300  1
  C  2129  1  0.03819910  0.28488000  0.74478900  1
  C  2130  1  0.06173010  0.28819000  0.74326700  1
  C  2132  1  0.00661509  0.26533700  0.76299400  1
  C  2133  1  0.97634800  0.24733100  0.78244800  1
  C  2134  1  0.95999100  0.26024500  0.77085400  1
  C  2135  1  0.96792600  0.27542800  0.75418700  1
  C  2138  1  0.99118900  0.27844400  0.75026500  1
  C  2139  1  0.99940800  0.29431300  0.73453400  1
  C  2140  1  0.02274310  0.29761400  0.73192600  1
  C  2145  1  0.93654100  0.25781800  0.77566500  1
  C  2146  1  0.10064400  0.27921800  0.75576000  1
  C  2149  1  0.76050900  0.46028300  0.25804500  1
  C  2150  1  0.77495900  0.47082300  0.27385500  1
  C  2152  1  0.76411800  0.50754600  0.26180700  1
  C  2153  1  0.74859800  0.49828200  0.24612800  1
  C  2154  1  0.74703800  0.47458800  0.24444200  1
  C  2156  1  0.76660500  0.53108300  0.26372500  1
  C  2157  1  0.78529900  0.56250200  0.28052700  1
  C  2158  1  0.77180100  0.57784200  0.26835900  1
  C  2159  1  0.75563800  0.56911100  0.25318100  1
  C  2162  1  0.75302700  0.54563800  0.25042800  1
  C  2163  1  0.73743900  0.53637500  0.23501100  1
  C  2164  1  0.73537200  0.51286200  0.23274500  1
  C  2169  1  0.77445500  0.60131500  0.27109500  1
  C  2170  1  0.75913800  0.43631800  0.25625200  1
  C  2173  1  0.75698200  0.07690610  0.27366200  1
  C  2174  1  0.77077800  0.06721910  0.25676700  1
  C  2176  1  0.76023900  0.02992510  0.26722900  1
  C  2177  1  0.74522800  0.03838010  0.28384000  1
  C  2178  1  0.74376100  0.06195910  0.28679900  1
  C  2180  1  0.76312000  0.00650709  0.26448600  1
  C  2181  1  0.78233300  0.97600900  0.24663800  1
  C  2182  1  0.77099200  0.95983100  0.25999800  1
  C  2183  1  0.75457900  0.96797700  0.27534900  1
  C  2186  1  0.75066600  0.99127500  0.27807400  1
  C  2187  1  0.73521700  0.99973000  0.29409500  1
  C  2188  1  0.73263700  0.02311510  0.29707100  1
  C  2193  1  0.77577500  0.93635700  0.25777200  1
  C  2194  1  0.75615900  0.10071300  0.27700600  1
  C  2197  1  0.76033900  0.25873300  0.07627110  1
  C  2198  1  0.77454900  0.27465200  0.06557210  1
  C  2200  1  0.76366700  0.26226700  0.02896510  1
  C  2201  1  0.74841200  0.24642900  0.03840010  1
  C  2202  1  0.74698900  0.24486500  0.06210710  1
  C  2204  1  0.76597100  0.26410300  0.00540109  1
  C  2205  1  0.78417400  0.28104300  0.97377000  1
  C  2206  1  0.77075100  0.26860700  0.95857600  1
  C  2207  1  0.75489600  0.25321500  0.96750000  1
  C  2210  1  0.75249200  0.25054000  0.99100300  1
  C  2211  1  0.73718900  0.23494100  0.00043809  1
  C  2212  1  0.73529100  0.23278000  0.02397310  1
  C  2217  1  0.77321400  0.27127200  0.93506900  1
  C  2218  1  0.75907600  0.25706200  0.10024800  1
  C  2221  1  0.75698500  0.27339500  0.45952400  1
  C  2222  1  0.77079300  0.25655500  0.46928700  1
  C  2224  1  0.76029600  0.26723000  0.50653400  1
  C  2225  1  0.74526800  0.28378500  0.49800200  1
  C  2226  1  0.74377600  0.28661200  0.47440900  1
  C  2228  1  0.76320500  0.26462700  0.52996400  1
  C  2229  1  0.78243600  0.24695500  0.56055000  1
  C  2230  1  0.77107600  0.26038200  0.57665900  1
  C  2231  1  0.75466200  0.27568800  0.56843300  1
  C  2234  1  0.75075100  0.27829400  0.54512400  1
  C  2235  1  0.73528600  0.29425900  0.53659400  1
  C  2236  1  0.73268600  0.29710100  0.51319700  1
  C  2241  1  0.77578000  0.25821400  0.60015200  1
  C  2242  1  0.75617100  0.27667400  0.43571200  1
  C  2245  1  0.25811600  0.45873000  0.76983900  1
  C  2246  1  0.27235300  0.46958100  0.75413900  1
  C  2248  1  0.26052900  0.50596100  0.76657800  1
  C  2249  1  0.24596200  0.49611000  0.78284600  1
  C  2250  1  0.24461900  0.47236600  0.78397500  1
  C  2252  1  0.26229400  0.52961500  0.76490600  1
  C  2253  1  0.27802200  0.56185500  0.74663000  1
  C  2254  1  0.26688600  0.57666900  0.76156100  1
  C  2255  1  0.25277300  0.56720100  0.77827200  1
  C  2258  1  0.25005600  0.54362300  0.77998800  1
  C  2259  1  0.23567800  0.53373500  0.79617500  1
  C  2260  1  0.23349700  0.51016100  0.79746300  1
  C  2265  1  0.26924700  0.60030900  0.75946500  1
  C  2266  1  0.25735600  0.43492300  0.77125300  1
  C  2269  1  0.27492400  0.07829910  0.77105900  1
  C  2270  1  0.25923900  0.06805210  0.75636500  1
  C  2272  1  0.27063500  0.03119910  0.76777000  1
  C  2273  1  0.28656400  0.04043310  0.78309700  1
  C  2274  1  0.28879400  0.06411210  0.78426000  1
  C  2276  1  0.26824300  0.00762109  0.76579800  1
  C  2277  1  0.25074000  0.97605400  0.74800600  1
  C  2278  1  0.26350100  0.96047300  0.76080700  1
  C  2279  1  0.27857000  0.96957000  0.77698200  1
  C  2282  1  0.28138100  0.99306700  0.77950100  1
  C  2283  1  0.29686700  0.00234809  0.79502000  1
  C  2284  1  0.29958000  0.02584510  0.79666700  1
  C  2289  1  0.26082200  0.93671700  0.75770800  1
  C  2290  1  0.27679900  0.10205700  0.77225500  1
  C  2293  1  0.45943500  0.75688900  0.27320900  1
  C  2294  1  0.46922000  0.77069000  0.25637600  1
  C  2296  1  0.50645300  0.76022600  0.26712200  1
  C  2297  1  0.49790100  0.74519900  0.28367000  1
  C  2298  1  0.47430500  0.74369300  0.28645700  1
  C  2300  1  0.52988400  0.76315100  0.26456300  1
  C  2301  1  0.56048600  0.78241100  0.24694900  1
  C  2302  1  0.57658100  0.77107100  0.26041100  1
  C  2303  1  0.56834200  0.75465000  0.27570300  1
  C  2306  1  0.54503100  0.75071700  0.27826400  1
  C  2307  1  0.53648300  0.73525000  0.29421900  1
  C  2308  1  0.51308300  0.73263400  0.29702000  1
  C  2313  1  0.60007100  0.77581000  0.25829300  1
  C  2314  1  0.43561600  0.75607800  0.27644500  1
  C  2317  1  0.07617110  0.76034500  0.25874800  1
  C  2318  1  0.06545910  0.77453100  0.27468000  1
  C  2320  1  0.02886210  0.76366700  0.26225000  1
  C  2321  1  0.03831010  0.74843400  0.24639900  1
  C  2322  1  0.06202010  0.74701600  0.24484800  1
  C  2324  1  0.00529809  0.76596600  0.26407400  1
  C  2325  1  0.97365300  0.78413700  0.28102500  1
  C  2326  1  0.95847000  0.77072600  0.26856600  1
  C  2327  1  0.96740400  0.75489800  0.25315400  1
  C  2330  1  0.99090900  0.75250200  0.25048200  1
  C  2331  1  0.00035509  0.73722300  0.23487100  1
  C  2332  1  0.02389410  0.73533100  0.23272100  1
  C  2337  1  0.93496200  0.77316700  0.27124500  1
  C  2338  1  0.10014800  0.75908800  0.25708600  1
  N  4  1  0.00909700  0.52095900  0.47087900  1
  N  8  1  0.00771300  0.52532400  0.52176000  1
  N  14  1  0.00906600  0.47399100  0.52492400  1
  N  20  1  0.01012900  0.46960900  0.47404100  1
  N  75  1  0.00329600  0.34399300  0.50791800  1
  N  77  1  0.00510000  0.48644800  0.34507200  1
  N  79  1  0.00782500  0.65180200  0.49238600  1
  N  81  1  0.00601900  0.50197600  0.65162800  1
  N  86  1  0.47069800  0.01208900  0.52205000  1
  N  90  1  0.52170100  0.00939200  0.52699600  1
  N  96  1  0.52528000  0.00776000  0.47595800  1
  N  102  1  0.47432000  0.01005800  0.47099700  1
  N  157  1  0.50339800  0.00588700  0.34520500  1
  N  159  1  0.34511200  0.00528400  0.48666600  1
  N  161  1  0.48526000  0.00438000  0.65170900  1
  N  163  1  0.65183400  0.00537800  0.50340500  1
  N  168  1  0.52195400  0.47067600  0.01218600  1
  N  172  1  0.52693700  0.52165900  0.00973100  1
  N  178  1  0.47587600  0.52527800  0.00813600  1
  N  184  1  0.47087700  0.47434500  0.01021400  1
  N  239  1  0.34510500  0.50340700  0.00597900  1
  N  241  1  0.48665200  0.34520100  0.00496700  1
  N  243  1  0.65161700  0.48519900  0.00433800  1
  N  245  1  0.50355900  0.65178000  0.00544800  1
  N  250  1  0.51033600  0.02274200  0.97188000  1
  N  254  1  0.51029400  0.02578700  0.02304100  1
  N  260  1  0.51071900  0.97455400  0.02479900  1
  N  266  1  0.51033400  0.97152400  0.97364300  1
  N  321  1  0.50426500  0.84472700  0.00258400  1
  N  323  1  0.50673800  0.99325400  0.84434100  1
  N  325  1  0.50680900  0.15264600  0.99221500  1
  N  327  1  0.50427200  0.00218400  0.15221900  1
  N  332  1  0.97182600  0.51036000  0.02276000  1
  N  336  1  0.02300800  0.51037000  0.02572700  1
  N  342  1  0.02468300  0.51082300  0.97451000  1
  N  348  1  0.97350700  0.51041500  0.97156100  1
  N  403  1  0.00251900  0.50456000  0.84474100  1
  N  405  1  0.84423800  0.50672700  0.99335300  1
  N  407  1  0.99216500  0.50702500  0.15259500  1
  N  409  1  0.15214700  0.50420900  0.00199900  1
  N  414  1  0.02200300  0.97210400  0.50993000  1
  N  418  1  0.02621200  0.02332900  0.50962100  1
  N  424  1  0.97513700  0.02629900  0.50987600  1
  N  430  1  0.97095400  0.97507000  0.50978600  1
  N  485  1  0.84481000  0.00531300  0.50387600  1
  N  487  1  0.98854900  0.84580800  0.50367700  1
  N  489  1  0.15240300  0.99050600  0.50666800  1
  N  491  1  0.00669500  0.15246300  0.50152700  1
  N  495  1  0.00531000  0.50675700  0.22371400  1
  N  505  1  0.00845200  0.51231900  0.27020100  1
  N  519  1  0.98506400  0.50246800  0.77469700  1
  N  529  1  0.98028200  0.50818100  0.72833600  1
  N  543  1  0.22348300  0.00429500  0.50683900  1
  N  553  1  0.26999100  0.00786200  0.51240500  1
  N  567  1  0.77512200  0.98627600  0.50251000  1
  N  577  1  0.72885700  0.98062000  0.50860600  1
  N  591  1  0.50664600  0.22379300  0.00530700  1
  N  601  1  0.51232500  0.27028700  0.00832000  1
  N  615  1  0.50236000  0.77484400  0.98458000  1
  N  625  1  0.50848700  0.72855000  0.97963300  1
  N  639  1  0.50609800  0.00600000  0.77308900  1
  N  649  1  0.51140700  0.00888700  0.72652400  1
  N  663  1  0.50240400  0.98449900  0.22218000  1
  N  673  1  0.50858400  0.97982900  0.26849900  1
  N  687  1  0.00319900  0.22262600  0.48320600  1
  N  697  1  0.00589500  0.26950700  0.47922200  1
  N  711  1  0.98804100  0.77555400  0.48535200  1
  N  721  1  0.98377600  0.72880500  0.48104800  1
  N  735  1  0.22211400  0.50231600  0.98435900  1
  N  745  1  0.26843500  0.50853600  0.97977800  1
  N  759  1  0.77297400  0.50607700  0.00601100  1
  N  769  1  0.72640900  0.51137800  0.00887500  1
  N  784  1  0.14397100  0.65583300  0.60575300  1
  N  788  1  0.14258700  0.66019800  0.65663400  1
  N  794  1  0.14394000  0.60886500  0.65979800  1
  N  800  1  0.14500300  0.60448300  0.60891500  1
  N  855  1  0.13817000  0.47886700  0.64279200  1
  N  857  1  0.13997400  0.62132200  0.47994600  1
  N  859  1  0.14269900  0.78667600  0.62726000  1
  N  861  1  0.14089300  0.63685000  0.78650200  1
  N  866  1  0.60557200  0.14696300  0.65692400  1
  N  870  1  0.65657500  0.14426600  0.66187000  1
  N  876  1  0.66015400  0.14263400  0.61083200  1
  N  882  1  0.60919400  0.14493200  0.60587100  1
  N  937  1  0.63827200  0.14076100  0.48007900  1
  N  939  1  0.47998600  0.14015800  0.62154000  1
  N  941  1  0.62013400  0.13925400  0.78658300  1
  N  943  1  0.78670800  0.14025200  0.63827900  1
  N  948  1  0.65682800  0.60555000  0.14706000  1
  N  952  1  0.66181100  0.65653300  0.14460500  1
  N  958  1  0.61075000  0.66015200  0.14301000  1
  N  964  1  0.60575100  0.60921900  0.14508800  1
  N  1019  1  0.47997900  0.63828100  0.14085300  1
  N  1021  1  0.62152600  0.48007500  0.13984100  1
  N  1023  1  0.78649100  0.62007300  0.13921200  1
  N  1025  1  0.63843300  0.78665400  0.14032200  1
  N  1030  1  0.64521000  0.15761600  0.10675400  1
  N  1034  1  0.64516800  0.16066100  0.15791500  1
  N  1040  1  0.64559300  0.10942800  0.15967300  1
  N  1046  1  0.64520800  0.10639800  0.10851700  1
  N  1101  1  0.63913900  0.97960100  0.13745800  1
  N  1103  1  0.64161200  0.12812800  0.97921500  1
  N  1105  1  0.64168300  0.28752000  0.12708900  1
  N  1107  1  0.63914600  0.13705800  0.28709300  1
  N  1112  1  0.10670000  0.64523400  0.15763400  1
  N  1116  1  0.15788200  0.64524400  0.16060100  1
  N  1122  1  0.15955700  0.64569700  0.10938400  1
  N  1128  1  0.10838100  0.64528900  0.10643500  1
  N  1183  1  0.13739300  0.63943400  0.97961500  1
  N  1185  1  0.97911200  0.64160100  0.12822700  1
  N  1187  1  0.12703900  0.64189900  0.28746900  1
  N  1189  1  0.28702100  0.63908300  0.13687300  1
  N  1194  1  0.15687700  0.10697800  0.64480400  1
  N  1198  1  0.16108600  0.15820300  0.64449500  1
  N  1204  1  0.11001100  0.16117300  0.64475000  1
  N  1210  1  0.10582800  0.10994400  0.64466000  1
  N  1265  1  0.97968400  0.14018700  0.63875000  1
  N  1267  1  0.12342300  0.98068200  0.63855100  1
  N  1269  1  0.28727700  0.12538000  0.64154200  1
  N  1271  1  0.14156900  0.28733700  0.63640100  1
  N  1275  1  0.14018400  0.64163100  0.35858800  1
  N  1285  1  0.14332600  0.64719300  0.40507500  1
  N  1299  1  0.11993800  0.63734200  0.90957100  1
  N  1309  1  0.11515600  0.64305500  0.86321000  1
  N  1323  1  0.35835700  0.13916900  0.64171300  1
  N  1333  1  0.40486500  0.14273600  0.64727900  1
  N  1347  1  0.90999600  0.12115000  0.63738400  1
  N  1357  1  0.86373100  0.11549400  0.64348000  1
  N  1371  1  0.64152000  0.35866700  0.14018100  1
  N  1381  1  0.64719900  0.40516100  0.14319400  1
  N  1395  1  0.63723400  0.90971800  0.11945400  1
  N  1405  1  0.64336100  0.86342400  0.11450700  1
  N  1419  1  0.64097200  0.14087400  0.90796300  1
  N  1429  1  0.64628100  0.14376100  0.86139800  1
  N  1443  1  0.63727800  0.11937300  0.35705400  1
  N  1453  1  0.64345800  0.11470300  0.40337300  1
  N  1467  1  0.13807300  0.35750000  0.61808000  1
  N  1477  1  0.14076900  0.40438100  0.61409600  1
  N  1491  1  0.12291500  0.91042800  0.62022600  1
  N  1501  1  0.11865000  0.86367900  0.61592200  1
  N  1515  1  0.35698800  0.63719000  0.11923300  1
  N  1525  1  0.40330900  0.64341000  0.11465200  1
  N  1539  1  0.90784800  0.64095100  0.14088500  1
  N  1549  1  0.86128300  0.64625200  0.14374900  1
  N  1564  1  0.27884500  0.79070700  0.74062700  1
  N  1568  1  0.27746100  0.79507200  0.79150800  1
  N  1574  1  0.27881400  0.74373900  0.79467200  1
  N  1580  1  0.27987700  0.73935700  0.74378900  1
  N  1635  1  0.27304400  0.61374100  0.77766600  1
  N  1637  1  0.27484800  0.75619600  0.61482000  1
  N  1639  1  0.27757300  0.92155000  0.76213400  1
  N  1641  1  0.27576700  0.77172400  0.92137600  1
  N  1646  1  0.74044600  0.28183700  0.79179800  1
  N  1650  1  0.79144900  0.27914000  0.79674400  1
  N  1656  1  0.79502800  0.27750800  0.74570600  1
  N  1662  1  0.74406800  0.27980600  0.74074500  1
  N  1717  1  0.77314600  0.27563500  0.61495300  1
  N  1719  1  0.61486000  0.27503200  0.75641400  1
  N  1721  1  0.75500800  0.27412800  0.92145700  1
  N  1723  1  0.92158200  0.27512600  0.77315300  1
  N  1728  1  0.79170200  0.74042400  0.28193400  1
  N  1732  1  0.79668500  0.79140700  0.27947900  1
  N  1738  1  0.74562400  0.79502600  0.27788400  1
  N  1744  1  0.74062500  0.74409300  0.27996200  1
  N  1799  1  0.61485300  0.77315500  0.27572700  1
  N  1801  1  0.75640000  0.61494900  0.27471500  1
  N  1803  1  0.92136500  0.75494700  0.27408600  1
  N  1805  1  0.77330700  0.92152800  0.27519600  1
  N  1810  1  0.78008400  0.29249000  0.24162800  1
  N  1814  1  0.78004200  0.29553500  0.29278900  1
  N  1820  1  0.78046700  0.24430200  0.29454700  1
  N  1826  1  0.78008200  0.24127200  0.24339100  1
  N  1881  1  0.77401300  0.11447500  0.27233200  1
  N  1883  1  0.77648600  0.26300200  0.11408900  1
  N  1885  1  0.77655700  0.42239400  0.26196300  1
  N  1887  1  0.77402000  0.27193200  0.42196700  1
  N  1892  1  0.24157400  0.78010800  0.29250800  1
  N  1896  1  0.29275600  0.78011800  0.29547500  1
  N  1902  1  0.29443100  0.78057100  0.24425800  1
  N  1908  1  0.24325500  0.78016300  0.24130900  1
  N  1963  1  0.27226700  0.77430800  0.11448900  1
  N  1965  1  0.11398600  0.77647500  0.26310100  1
  N  1967  1  0.26191300  0.77677300  0.42234300  1
  N  1969  1  0.42189500  0.77395700  0.27174700  1
  N  1974  1  0.29175100  0.24185200  0.77967800  1
  N  1978  1  0.29596000  0.29307700  0.77936900  1
  N  1984  1  0.24488500  0.29604700  0.77962400  1
  N  1990  1  0.24070200  0.24481800  0.77953400  1
  N  2045  1  0.11455800  0.27506100  0.77362400  1
  N  2047  1  0.25829700  0.11555600  0.77342500  1
  N  2049  1  0.42215100  0.26025400  0.77641600  1
  N  2051  1  0.27644300  0.42221100  0.77127500  1
  N  2055  1  0.27505800  0.77650500  0.49346200  1
  N  2065  1  0.27820000  0.78206700  0.53994900  1
  N  2079  1  0.25481200  0.77221600  0.04444510  1
  N  2089  1  0.25003000  0.77792900  0.99808400  1
  N  2103  1  0.49323100  0.27404300  0.77658700  1
  N  2113  1  0.53973900  0.27761000  0.78215300  1
  N  2127  1  0.04487010  0.25602400  0.77225800  1
  N  2137  1  0.99860500  0.25036800  0.77835400  1
  N  2151  1  0.77639400  0.49354100  0.27505500  1
  N  2161  1  0.78207300  0.54003500  0.27806800  1
  N  2175  1  0.77210800  0.04459210  0.25432800  1
  N  2185  1  0.77823500  0.99829800  0.24938100  1
  N  2199  1  0.77584600  0.27574800  0.04283710  1
  N  2209  1  0.78115500  0.27863500  0.99627200  1
  N  2223  1  0.77215200  0.25424700  0.49192800  1
  N  2233  1  0.77833200  0.24957700  0.53824700  1
  N  2247  1  0.27294700  0.49237400  0.75295400  1
  N  2257  1  0.27564300  0.53925500  0.74897000  1
  N  2271  1  0.25778900  0.04530210  0.75510000  1
  N  2281  1  0.25352400  0.99855300  0.75079600  1
  N  2295  1  0.49186200  0.77206400  0.25410700  1
  N  2305  1  0.53818300  0.77828400  0.24952600  1
  N  2319  1  0.04272210  0.77582500  0.27575900  1
  N  2329  1  0.99615700  0.78112600  0.27862300  1
  O  515  1  0.00169300  0.52575200  0.33997800  1
  O  516  1  0.97647700  0.47104600  0.15762100  1
  O  539  1  0.96930700  0.51464700  0.65924500  1
  O  540  1  0.01777800  0.46836700  0.83980300  1
  O  563  1  0.33972400  0.00147600  0.52589400  1
  O  564  1  0.15771500  0.97561100  0.47041000  1
  O  587  1  0.65991300  0.96865100  0.51578500  1
  O  588  1  0.83935100  0.01957800  0.46735200  1
  O  611  1  0.52593800  0.34000200  0.00153300  1
  O  612  1  0.47080600  0.15770400  0.97660000  1
  O  635  1  0.51577500  0.65953900  0.96861100  1
  O  636  1  0.46804100  0.83961200  0.01773100  1
  O  659  1  0.52464500  0.00215700  0.65677200  1
  O  660  1  0.47090900  0.97720400  0.83947600  1
  O  683  1  0.51575500  0.96907300  0.33756100  1
  O  684  1  0.46805600  0.01737500  0.15727700  1
  O  707  1  0.99900100  0.33948400  0.46869000  1
  O  708  1  0.96716100  0.15527900  0.50397300  1
  O  731  1  0.97187500  0.65969400  0.47793900  1
  O  732  1  0.02802500  0.84133700  0.50332100  1
  O  755  1  0.33750900  0.51580900  0.96917200  1
  O  756  1  0.15717700  0.46799200  0.01719000  1
  O  779  1  0.65664900  0.52458900  0.00219500  1
  O  780  1  0.83938800  0.47092600  0.97722600  1
  O  1295  1  0.13656700  0.66062600  0.47485200  1
  O  1296  1  0.11135100  0.60592000  0.29249500  1
  O  1319  1  0.10418100  0.64952100  0.79411900  1
  O  1320  1  0.15265200  0.60324100  0.97467700  1
  O  1343  1  0.47459800  0.13635000  0.66076800  1
  O  1344  1  0.29258900  0.11048500  0.60528400  1
  O  1367  1  0.79478700  0.10352500  0.65065900  1
  O  1368  1  0.97422500  0.15445200  0.60222600  1
  O  1391  1  0.66081200  0.47487600  0.13640700  1
  O  1392  1  0.60568000  0.29257800  0.11147400  1
  O  1415  1  0.65064900  0.79441300  0.10348500  1
  O  1416  1  0.60291500  0.97448600  0.15260500  1
  O  1439  1  0.65951900  0.13703100  0.79164600  1
  O  1440  1  0.60578300  0.11207800  0.97435000  1
  O  1463  1  0.65062900  0.10394700  0.47243500  1
  O  1464  1  0.60293000  0.15224900  0.29215100  1
  O  1487  1  0.13387500  0.47435800  0.60356400  1
  O  1488  1  0.10203500  0.29015300  0.63884700  1
  O  1511  1  0.10674900  0.79456800  0.61281300  1
  O  1512  1  0.16289900  0.97621100  0.63819500  1
  O  1535  1  0.47238300  0.65068300  0.10404600  1
  O  1536  1  0.29205100  0.60286600  0.15206400  1
  O  1559  1  0.79152300  0.65946300  0.13706900  1
  O  1560  1  0.97426200  0.60580000  0.11210000  1
  O  2075  1  0.27144100  0.79550000  0.60972600  1
  O  2076  1  0.24622500  0.74079400  0.42736900  1
  O  2099  1  0.23905500  0.78439500  0.92899300  1
  O  2100  1  0.28752600  0.73811500  0.10955100  1
  O  2123  1  0.60947200  0.27122400  0.79564200  1
  O  2124  1  0.42746300  0.24535900  0.74015800  1
  O  2147  1  0.92966100  0.23839900  0.78553300  1
  O  2148  1  0.10909900  0.28932600  0.73710000  1
  O  2171  1  0.79568600  0.60975000  0.27128100  1
  O  2172  1  0.74055400  0.42745200  0.24634800  1
  O  2195  1  0.78552300  0.92928700  0.23835900  1
  O  2196  1  0.73778900  0.10936000  0.28747900  1
  O  2219  1  0.79439300  0.27190500  0.92652000  1
  O  2220  1  0.74065700  0.24695200  0.10922400  1
  O  2243  1  0.78550300  0.23882100  0.60730900  1
  O  2244  1  0.73780400  0.28712300  0.42702500  1
  O  2267  1  0.26874900  0.60923200  0.73843800  1
  O  2268  1  0.23690900  0.42502700  0.77372100  1
  O  2291  1  0.24162300  0.92944200  0.74768700  1
  O  2292  1  0.29777300  0.11108500  0.77306900  1
  O  2315  1  0.60725700  0.78555700  0.23892000  1
  O  2316  1  0.42692500  0.73774000  0.28693800  1
  O  2339  1  0.92639700  0.79433700  0.27194300  1
  O  2340  1  0.10913600  0.74067400  0.24697400  1
