# generated using pymatgen
data_H25C36(NO)2
_symmetry_space_group_name_H-M   'P 1'
_cell_length_a   44.31300000
_cell_length_b   44.31300000
_cell_length_c   47.69870000
_cell_angle_alpha   89.97150000
_cell_angle_beta   90.00000000
_cell_angle_gamma   60.00000000
_symmetry_Int_Tables_number   1
_chemical_formula_structural   H25C36(NO)2
_chemical_formula_sum   'H300 C432 N24 O24'
_cell_volume   81114.67053478
_cell_formula_units_Z   12
loop_
 _symmetry_equiv_pos_site_id
 _symmetry_equiv_pos_as_xyz
  1  'x, y, z'
loop_
 _atom_site_type_symbol
 _atom_site_label
 _atom_site_symmetry_multiplicity
 _atom_site_fract_x
 _atom_site_fract_y
 _atom_site_fract_z
 _atom_site_occupancy
  H  2  1  0.51140300  0.49165700  0.89059500  1
  H  4  1  0.44546300  0.55505300  0.58070300  1
  H  5  1  0.51095600  0.49070800  0.11253200  1
  H  6  1  0.55370400  0.44320000  0.92256000  1
  H  8  1  0.49150600  0.51311300  0.61363900  1
  H  58  1  0.00065400  0.49212900  0.61269800  1
  H  59  1  0.01966200  0.49137300  0.65947500  1
  H  60  1  0.10564800  0.43541100  0.58565500  1
  H  61  1  0.12471300  0.43587600  0.63275700  1
  H  62  1  0.09877300  0.39368000  0.65831300  1
  H  63  1  0.09976100  0.35240600  0.69533100  1
  H  64  1  0.07819100  0.44361400  0.73365100  1
  H  65  1  0.07598100  0.48312400  0.76806700  1
  H  66  1  0.06906500  0.52747500  0.65754800  1
  H  67  1  0.06733500  0.56924300  0.69498500  1
  H  68  1  0.03411000  0.60279500  0.77304600  1
  H  69  1  0.03894800  0.65434400  0.77771300  1
  H  70  1  0.13084500  0.55226600  0.73083300  1
  H  71  1  0.13494000  0.60376600  0.73443900  1
  H  72  1  0.09543600  0.55406400  0.80657900  1
  H  73  1  0.09509000  0.51340100  0.84353000  1
  H  74  1  0.07113200  0.36471400  0.80663200  1
  H  75  1  0.06996300  0.40625900  0.84410600  1
  H  76  1  0.12492400  0.44281200  0.86767800  1
  H  77  1  0.10799300  0.46105000  0.91532800  1
  H  78  1  0.01876200  0.49261600  0.84398200  1
  H  79  1  0.00185500  0.50974400  0.89133100  1
  H  80  1  0.04011700  0.36003800  0.73111600  1
  H  81  1  0.05052100  0.30138300  0.72674900  1
  H  82  1  0.14856100  0.26358700  0.76579800  1
  H  83  1  0.13864800  0.32144000  0.76941300  1
  H  132  1  0.49029500  0.49465700  0.66026300  1
  H  133  1  0.43690200  0.46314500  0.58535900  1
  H  134  1  0.43700200  0.44336000  0.63230400  1
  H  135  1  0.39319000  0.51061200  0.65860000  1
  H  136  1  0.35214700  0.55090100  0.69568700  1
  H  137  1  0.44434500  0.48282700  0.73342000  1
  H  138  1  0.48376400  0.44470000  0.76789500  1
  H  139  1  0.52821100  0.40907900  0.65752700  1
  H  140  1  0.57023700  0.36890300  0.69483800  1
  H  141  1  0.60277000  0.36740200  0.77397100  1
  H  142  1  0.65462700  0.31126000  0.77858300  1
  H  143  1  0.55415400  0.32104200  0.72923500  1
  H  144  1  0.60601500  0.26575200  0.73272600  1
  H  145  1  0.55435000  0.35384400  0.80611000  1
  H  146  1  0.51366400  0.39458400  0.84316500  1
  H  147  1  0.36658600  0.56851300  0.80651400  1
  H  148  1  0.40807800  0.52785500  0.84393300  1
  H  149  1  0.44355900  0.43620700  0.86787900  1
  H  150  1  0.46204300  0.43513100  0.91541700  1
  H  151  1  0.49406800  0.49160100  0.84335200  1
  H  152  1  0.36131300  0.60288400  0.72953900  1
  H  153  1  0.30294400  0.65161400  0.72513100  1
  H  154  1  0.26441700  0.59394000  0.76736200  1
  H  155  1  0.32197500  0.54545200  0.77097700  1
  H  204  1  0.51295900  0.99984600  0.61339800  1
  H  205  1  0.49463900  0.01926700  0.66007600  1
  H  206  1  0.46399200  0.10458700  0.58556300  1
  H  207  1  0.44436900  0.12405400  0.63256800  1
  H  208  1  0.51207900  0.09927300  0.65860500  1
  H  209  1  0.55254900  0.09979200  0.69565600  1
  H  210  1  0.48352300  0.07717900  0.73369300  1
  H  211  1  0.44593600  0.07534500  0.76802900  1
  H  212  1  0.40891600  0.06820900  0.65752700  1
  H  213  1  0.36901100  0.06601700  0.69488600  1
  H  214  1  0.36857000  0.03285600  0.77318900  1
  H  215  1  0.31229500  0.03746900  0.77792700  1
  H  216  1  0.32207300  0.12933100  0.73052100  1
  H  217  1  0.26661800  0.13315000  0.73415200  1
  H  218  1  0.35576700  0.09395000  0.80656000  1
  H  219  1  0.39670600  0.09360500  0.84356100  1
  H  220  1  0.56944600  0.06961500  0.80674200  1
  H  221  1  0.52904100  0.06843100  0.84419200  1
  H  222  1  0.43733600  0.12387200  0.86768200  1
  H  223  1  0.43613100  0.10704400  0.91539300  1
  H  224  1  0.49375100  0.01765400  0.84421300  1
  H  225  1  0.49362200  0.00085600  0.89162800  1
  H  226  1  0.60458600  0.03947700  0.73054200  1
  H  227  1  0.65297700  0.04967000  0.72618700  1
  H  228  1  0.59372800  0.14680500  0.76673100  1
  H  229  1  0.54562100  0.13714500  0.77029300  1
  H  278  1  0.00389800  0.50990400  0.11298500  1
  H  279  1  0.98479200  0.51073900  0.15974300  1
  H  280  1  0.89896000  0.56658300  0.08575000  1
  H  281  1  0.87979900  0.56619900  0.13282600  1
  H  282  1  0.90611000  0.60826000  0.15834900  1
  H  283  1  0.90493100  0.64958800  0.19533600  1
  H  284  1  0.92569600  0.55868900  0.23382700  1
  H  285  1  0.92697500  0.51971700  0.26814900  1
  H  286  1  0.93536400  0.47463700  0.15771800  1
  H  287  1  0.93688500  0.43292000  0.19514100  1
  H  288  1  0.97009600  0.39946700  0.27325000  1
  H  289  1  0.96554100  0.34776300  0.27794400  1
  H  290  1  0.87341500  0.44958100  0.23090700  1
  H  291  1  0.86963500  0.39791000  0.23451300  1
  H  292  1  0.90906200  0.44771800  0.30675800  1
  H  293  1  0.90895500  0.48856300  0.34370000  1
  H  294  1  0.93190900  0.63797700  0.30688600  1
  H  295  1  0.93268700  0.59660000  0.34437500  1
  H  296  1  0.87855800  0.55916100  0.36799500  1
  H  297  1  0.89584500  0.54076600  0.41557000  1
  H  298  1  0.98455700  0.51030200  0.34398100  1
  H  299  1  0.00180600  0.49300700  0.39126600  1
  H  300  1  0.96413500  0.64207500  0.23181500  1
  H  301  1  0.95387700  0.70068500  0.22740600  1
  H  302  1  0.85512700  0.73881000  0.26524300  1
  H  303  1  0.86492200  0.68099400  0.26890800  1
  H  352  1  0.51177000  0.50888200  0.15931600  1
  H  353  1  0.56763800  0.53902900  0.08546500  1
  H  354  1  0.56722500  0.55848700  0.13257100  1
  H  355  1  0.60946600  0.49036200  0.15815400  1
  H  356  1  0.65073100  0.45009300  0.19518500  1
  H  357  1  0.55947700  0.51968300  0.23348100  1
  H  358  1  0.51995700  0.55701800  0.26790200  1
  H  359  1  0.47562500  0.59436500  0.15737600  1
  H  360  1  0.43386000  0.63442700  0.19480300  1
  H  361  1  0.40036200  0.63486800  0.27297100  1
  H  362  1  0.34881600  0.69125700  0.27761000  1
  H  363  1  0.45080700  0.68100400  0.23049000  1
  H  364  1  0.39930300  0.73659600  0.23405800  1
  H  365  1  0.44909900  0.64748400  0.30636200  1
  H  366  1  0.48974400  0.60648500  0.34332900  1
  H  367  1  0.63834600  0.43376900  0.30649200  1
  H  368  1  0.59680000  0.47416400  0.34395600  1
  H  369  1  0.56037500  0.56567400  0.36744500  1
  H  370  1  0.54228900  0.56692700  0.41514300  1
  H  371  1  0.51045800  0.50938000  0.34392900  1
  H  372  1  0.49348800  0.50954200  0.39132400  1
  H  373  1  0.64308500  0.39807100  0.23095900  1
  H  374  1  0.70174800  0.34983300  0.22659200  1
  H  375  1  0.73949600  0.41007500  0.26567300  1
  H  376  1  0.68163600  0.45800000  0.26928500  1
  H  425  1  0.49028500  0.00255500  0.11393700  1
  H  426  1  0.50871900  0.98291200  0.16057200  1
  H  427  1  0.54020400  0.89796100  0.08573300  1
  H  428  1  0.55996500  0.87830200  0.13268400  1
  H  429  1  0.49269300  0.90179400  0.15890700  1
  H  430  1  0.45232500  0.90107000  0.19595000  1
  H  431  1  0.52034600  0.92518100  0.23375600  1
  H  432  1  0.55840600  0.92646900  0.26827500  1
  H  433  1  0.59431100  0.93516400  0.15793400  1
  H  434  1  0.63441400  0.93702500  0.19529200  1
  H  435  1  0.63575000  0.96820800  0.27430400  1
  H  436  1  0.69192200  0.96386600  0.27894400  1
  H  437  1  0.68212700  0.87305100  0.22983300  1
  H  438  1  0.73745700  0.86954400  0.23335800  1
  H  439  1  0.64916100  0.90628000  0.30659700  1
  H  440  1  0.60834600  0.90635100  0.34360600  1
  H  441  1  0.43451200  0.93313000  0.30676200  1
  H  442  1  0.47510000  0.93395400  0.34422900  1
  H  443  1  0.56676700  0.87769100  0.36819000  1
  H  444  1  0.56779800  0.89497500  0.41576500  1
  H  445  1  0.51132800  0.98365800  0.34382200  1
  H  446  1  0.51122500  0.00092700  0.39110200  1
  H  447  1  0.40030700  0.96221600  0.22970100  1
  H  448  1  0.35158000  0.95258900  0.22522100  1
  H  449  1  0.40908700  0.85646200  0.26760400  1
  H  450  1  0.45758100  0.86551300  0.27127900  1
  H  457  1  0.04850800  0.47173900  0.00111900  1
  H  458  1  0.07280100  0.45162000  0.95573300  1
  H  465  1  0.96162800  0.51536600  0.00199000  1
  H  466  1  0.93546500  0.52116500  0.04677600  1
  H  467  1  0.99950700  0.55710100  0.08085200  1
  H  468  1  0.00839800  0.55238600  0.92281300  1
  H  472  1  0.03107300  0.57072700  0.01660500  1
  H  473  1  0.06041100  0.52867800  0.02943200  1
  H  474  1  0.02518900  0.59144700  0.06098600  1
  H  476  1  0.96559400  0.59308600  0.98993800  1
  H  477  1  0.98309200  0.60193300  0.95997300  1
  H  478  1  0.92610500  0.61464700  0.95370700  1
  H  484  1  0.47288000  0.48434500  0.00068500  1
  H  485  1  0.45285900  0.47984600  0.95536200  1
  H  491  1  0.51647700  0.52754300  0.00158200  1
  H  492  1  0.52222100  0.54793900  0.04638200  1
  H  493  1  0.55825500  0.44794600  0.08050800  1
  H  497  1  0.57195700  0.40272600  0.01629700  1
  H  498  1  0.52991700  0.41539900  0.02910000  1
  H  499  1  0.59267800  0.38792100  0.06069700  1
  H  501  1  0.59423000  0.44589300  0.98962500  1
  H  502  1  0.60315700  0.41927800  0.95983700  1
  H  503  1  0.61588400  0.46349700  0.95324500  1
  H  510  1  0.48504900  0.04788200  0.00129700  1
  H  511  1  0.48083700  0.07201700  0.95581300  1
  H  518  1  0.52846400  0.96124500  0.00260100  1
  H  519  1  0.54860500  0.93494300  0.04737500  1
  H  520  1  0.44830700  0.99841500  0.08107900  1
  H  521  1  0.44456100  0.00741300  0.92325200  1
  H  525  1  0.40349900  0.03015300  0.01676200  1
  H  526  1  0.41600600  0.05958500  0.02970200  1
  H  527  1  0.38844800  0.02419400  0.06105300  1
  H  529  1  0.44682600  0.96474900  0.99052200  1
  H  530  1  0.42039500  0.98218200  0.96058900  1
  H  531  1  0.46470200  0.92521100  0.95436100  1
  H  538  1  0.95576000  0.53010400  0.50119100  1
  H  539  1  0.93114800  0.55038700  0.45591100  1
  H  546  1  0.04277400  0.48664400  0.50177800  1
  H  547  1  0.06903300  0.48086700  0.54654100  1
  H  548  1  0.00525000  0.44468700  0.58076000  1
  H  549  1  0.99578100  0.44989600  0.42267300  1
  H  553  1  0.97361200  0.43101400  0.51656500  1
  H  554  1  0.94423400  0.47300200  0.52944400  1
  H  555  1  0.97972300  0.41016600  0.56094300  1
  H  557  1  0.03904300  0.40895800  0.48965200  1
  H  558  1  0.02148000  0.40014700  0.45971600  1
  H  559  1  0.07835200  0.38772600  0.45330100  1
  H  566  1  0.53184000  0.51816100  0.50104200  1
  H  567  1  0.55183000  0.52231800  0.45558000  1
  H  572  1  0.48858400  0.47479900  0.50231100  1
  H  573  1  0.48232300  0.45471900  0.54707900  1
  H  574  1  0.45098000  0.55862900  0.42289600  1
  H  578  1  0.43254400  0.59977900  0.51635700  1
  H  579  1  0.47446300  0.58726500  0.52936600  1
  H  580  1  0.41145300  0.61488800  0.56061200  1
  H  582  1  0.41047700  0.55645200  0.49011300  1
  H  583  1  0.40153600  0.58284400  0.46015700  1
  H  584  1  0.38885700  0.53854500  0.45393600  1
  H  591  1  0.51868600  0.95477300  0.50114900  1
  H  592  1  0.52310400  0.93039000  0.45578100  1
  H  599  1  0.47545900  0.04147900  0.50220400  1
  H  600  1  0.45523600  0.06779900  0.54696200  1
  H  601  1  0.55538300  0.00404300  0.58088500  1
  H  602  1  0.55970100  0.99468500  0.42305500  1
  H  606  1  0.60034800  0.97226900  0.51663400  1
  H  607  1  0.58772300  0.94292300  0.52959500  1
  H  608  1  0.61531600  0.97826000  0.56094300  1
  H  610  1  0.55709900  0.03772800  0.49016600  1
  H  611  1  0.58366700  0.02012200  0.46033900  1
  H  612  1  0.53942100  0.07707900  0.45384400  1
  H  619  1  0.18314600  0.17347500  0.71799400  1
  H  620  1  0.14986600  0.23423500  0.71225800  1
  H  627  1  0.18210800  0.10844700  0.72158700  1
  H  628  1  0.24318300  0.07162300  0.72388700  1
  H  629  1  0.24714900  0.12118900  0.79732800  1
  H  630  1  0.07555900  0.23890400  0.76972900  1
  H  634  1  0.15592000  0.17586400  0.80898300  1
  H  635  1  0.17618300  0.19404500  0.78882000  1
  H  636  1  0.20334000  0.15129500  0.83733900  1
  H  638  1  0.12021800  0.15445000  0.79435500  1
  H  639  1  0.07722500  0.18812300  0.78756600  1
  H  640  1  0.08733800  0.13476200  0.77179600  1
  H  647  1  0.17526900  0.64765100  0.71777200  1
  H  648  1  0.23593500  0.62057000  0.71216400  1
  H  655  1  0.10962300  0.71355900  0.72138000  1
  H  656  1  0.07290800  0.68909100  0.72391900  1
  H  657  1  0.12329900  0.63534300  0.79708000  1
  H  658  1  0.23993400  0.69038400  0.76983600  1
  H  662  1  0.17773300  0.67213200  0.80855100  1
  H  663  1  0.19589300  0.63378700  0.78829400  1
  H  664  1  0.15351900  0.64899800  0.83697400  1
  H  666  1  0.15545900  0.72956600  0.79422800  1
  H  667  1  0.18892200  0.73924600  0.78762900  1
  H  668  1  0.13545100  0.78231200  0.77184300  1
  H  675  1  0.64831200  0.18197800  0.71791400  1
  H  676  1  0.62104800  0.14847100  0.71238600  1
  H  683  1  0.71440600  0.18105500  0.72122500  1
  H  684  1  0.69023300  0.24213200  0.72337800  1
  H  685  1  0.63680400  0.24634300  0.79696800  1
  H  686  1  0.69098200  0.07445800  0.76990800  1
  H  690  1  0.67333100  0.15513700  0.80885700  1
  H  691  1  0.63484400  0.17537500  0.78874900  1
  H  692  1  0.65057500  0.20262000  0.83710800  1
  H  694  1  0.73049400  0.11946900  0.79426500  1
  H  695  1  0.73999300  0.07640200  0.78760400  1
  H  696  1  0.78306900  0.08670900  0.77168700  1
  H  703  1  0.82124500  0.82882300  0.21786200  1
  H  704  1  0.85439600  0.76817800  0.21210300  1
  H  711  1  0.82201500  0.89411300  0.22179100  1
  H  712  1  0.76084300  0.93090200  0.22414600  1
  H  713  1  0.75704500  0.88040300  0.29709100  1
  H  714  1  0.92849200  0.76320200  0.26996900  1
  H  718  1  0.84823100  0.82578200  0.30878700  1
  H  719  1  0.82796300  0.80778300  0.28843000  1
  H  720  1  0.80082300  0.85012100  0.33712400  1
  H  722  1  0.88380700  0.84760400  0.29457100  1
  H  723  1  0.92682800  0.81390700  0.28794000  1
  H  724  1  0.91688800  0.86727800  0.27230000  1
  H  731  1  0.82968400  0.35459200  0.21799700  1
  H  732  1  0.76893700  0.38209100  0.21220000  1
  H  739  1  0.89471500  0.28857200  0.22159200  1
  H  740  1  0.93144100  0.31292200  0.22402000  1
  H  741  1  0.88169900  0.36622400  0.29748700  1
  H  742  1  0.76416100  0.31232300  0.26950300  1
  H  746  1  0.82713000  0.32949800  0.30894500  1
  H  747  1  0.80893100  0.36799700  0.28884100  1
  H  748  1  0.85159700  0.35233200  0.33740700  1
  H  750  1  0.84858900  0.27243400  0.29418700  1
  H  751  1  0.81491400  0.26314900  0.28731500  1
  H  752  1  0.86828600  0.21993500  0.27153100  1
  H  759  1  0.35559000  0.82101200  0.21771100  1
  H  760  1  0.38262300  0.85466300  0.21223100  1
  H  767  1  0.28967600  0.82123600  0.22119400  1
  H  768  1  0.31408800  0.76005200  0.22363600  1
  H  769  1  0.36777200  0.75645600  0.29688100  1
  H  770  1  0.31271800  0.92826200  0.26997700  1
  H  774  1  0.33104200  0.84763500  0.30850200  1
  H  775  1  0.36939700  0.82749800  0.28825000  1
  H  776  1  0.35414000  0.80020500  0.33684500  1
  H  778  1  0.27359800  0.88282100  0.29420000  1
  H  779  1  0.26387600  0.92599700  0.28769300  1
  H  780  1  0.22085700  0.91558300  0.27182400  1
  C  1  1  0.54648800  0.45158300  0.03732900  1
  C  3  1  0.47113000  0.52701900  0.51504300  1
  C  7  1  0.54929000  0.45430300  0.96579200  1
  C  9  1  0.45792700  0.55106300  0.53765400  1
  C  10  1  0.09554200  0.39918000  0.67925500  1
  C  11  1  0.09613300  0.37662800  0.69944400  1
  C  12  1  0.08910100  0.39358500  0.72530900  1
  C  14  1  0.08890700  0.43006300  0.69247600  1
  C  15  1  0.08369600  0.46068200  0.67861100  1
  C  16  1  0.08050100  0.49079500  0.69176100  1
  C  18  1  0.07940200  0.52722700  0.72445300  1
  C  19  1  0.07247700  0.54439600  0.69869800  1
  C  20  1  0.07322600  0.52182300  0.67845400  1
  C  21  1  0.08152800  0.54079700  0.75079800  1
  C  22  1  0.08611000  0.52271800  0.77647800  1
  C  24  1  0.08663200  0.48602900  0.80923600  1
  C  25  1  0.09245300  0.51077700  0.82253900  1
  C  26  1  0.09252700  0.53304600  0.80240100  1
  C  27  1  0.08201500  0.46021800  0.82306800  1
  C  28  1  0.07983700  0.43273400  0.80993900  1
  C  30  1  0.08113300  0.39624500  0.77726400  1
  C  31  1  0.07473700  0.38542300  0.80296000  1
  C  32  1  0.07384300  0.40808300  0.82319500  1
  C  33  1  0.08485800  0.37988000  0.75099300  1
  C  34  1  0.08825600  0.34615400  0.75092200  1
  C  35  1  0.11938800  0.31773900  0.76118800  1
  C  36  1  0.12516700  0.28371700  0.75902900  1
  C  37  1  0.10027200  0.27712700  0.74613300  1
  C  38  1  0.06856700  0.30556000  0.73669700  1
  C  39  1  0.06262900  0.33984300  0.73908300  1
  C  40  1  0.07333500  0.46585500  0.85181000  1
  C  41  1  0.09902200  0.45613400  0.87277700  1
  C  42  1  0.08903600  0.46694600  0.90060300  1
  C  43  1  0.05338400  0.48748500  0.90770400  1
  C  44  1  0.02788700  0.49550100  0.88675400  1
  C  45  1  0.03773200  0.48507400  0.85899400  1
  C  46  1  0.08177000  0.57290000  0.75113800  1
  C  47  1  0.05493800  0.60318500  0.76416900  1
  C  48  1  0.05761700  0.63346100  0.76679000  1
  C  49  1  0.08670700  0.63424900  0.75563500  1
  C  50  1  0.11294000  0.60434400  0.74182300  1
  C  51  1  0.11066100  0.57397200  0.73981600  1
  C  52  1  0.07386700  0.46390200  0.65011000  1
  C  53  1  0.03796800  0.48024000  0.64394800  1
  C  54  1  0.09859600  0.44841300  0.62842300  1
  C  55  1  0.08735800  0.44811200  0.60091300  1
  C  56  1  0.05140600  0.46328100  0.59483500  1
  C  57  1  0.02687800  0.48023800  0.61650700  1
  C  84  1  0.39872700  0.50822000  0.67954400  1
  C  85  1  0.37627800  0.53014200  0.69978000  1
  C  86  1  0.39374800  0.52076000  0.72546400  1
  C  88  1  0.42996200  0.48447900  0.69262400  1
  C  89  1  0.46081700  0.45978200  0.67864100  1
  C  90  1  0.49122900  0.43317000  0.69170200  1
  C  92  1  0.52786700  0.39771600  0.72425600  1
  C  93  1  0.54521300  0.38820000  0.69855500  1
  C  94  1  0.52251200  0.41011700  0.67839100  1
  C  95  1  0.54143200  0.38168700  0.75051700  1
  C  96  1  0.52321400  0.39486600  0.77617600  1
  C  98  1  0.48654900  0.43081100  0.80901700  1
  C  99  1  0.51113900  0.40004900  0.82220400  1
  C  100  1  0.53329700  0.37777300  0.80199100  1
  C  101  1  0.46090800  0.46123200  0.82292600  1
  C  102  1  0.43364200  0.49113000  0.80984100  1
  C  104  1  0.39717800  0.52655600  0.77722800  1
  C  105  1  0.38695100  0.54399800  0.80285600  1
  C  106  1  0.40953200  0.52204300  0.82306700  1
  C  107  1  0.38055100  0.53917200  0.75102900  1
  C  108  1  0.34707200  0.56985600  0.75098000  1
  C  109  1  0.31853000  0.56803500  0.76214200  1
  C  110  1  0.28468500  0.59661000  0.76001800  1
  C  111  1  0.27839000  0.62751900  0.74624000  1
  C  112  1  0.30694800  0.62986200  0.73577900  1
  C  113  1  0.34106900  0.60125300  0.73824600  1
  C  114  1  0.46695600  0.46423100  0.85159300  1
  C  115  1  0.45716000  0.44856700  0.87276100  1
  C  116  1  0.46808300  0.44790900  0.90053200  1
  C  117  1  0.48883300  0.46287200  0.90739000  1
  C  118  1  0.49700500  0.47998100  0.88621700  1
  C  119  1  0.48649400  0.48036400  0.85850700  1
  C  120  1  0.57379600  0.34958100  0.75078300  1
  C  121  1  0.60365500  0.34624300  0.76452200  1
  C  122  1  0.63413100  0.31343700  0.76709000  1
  C  123  1  0.63568200  0.28361700  0.75503900  1
  C  124  1  0.60620000  0.28719400  0.74054600  1
  C  125  1  0.57557100  0.31966500  0.73866600  1
  C  126  1  0.46382700  0.46709700  0.65027900  1
  C  127  1  0.47959000  0.48729700  0.64452400  1
  C  128  1  0.44901100  0.45752300  0.62829100  1
  C  129  1  0.44895900  0.46918500  0.60086700  1
  C  130  1  0.46372900  0.49041500  0.59513700  1
  C  131  1  0.47984900  0.49850800  0.61716300  1
  C  156  1  0.50985100  0.09589400  0.67953200  1
  C  157  1  0.53180600  0.09639900  0.69975900  1
  C  158  1  0.52218700  0.08873800  0.72551800  1
  C  160  1  0.48577000  0.08893800  0.69267100  1
  C  161  1  0.46055700  0.08351700  0.67873100  1
  C  162  1  0.43385200  0.07988300  0.69180900  1
  C  164  1  0.39863400  0.07838600  0.72443000  1
  C  165  1  0.38856400  0.07136500  0.69864300  1
  C  166  1  0.41033000  0.07234100  0.67844600  1
  C  167  1  0.38290900  0.08038500  0.75074600  1
  C  168  1  0.39639000  0.08485400  0.77647000  1
  C  170  1  0.43254700  0.08529900  0.80930500  1
  C  171  1  0.40203300  0.09089900  0.82258000  1
  C  172  1  0.37967300  0.09110500  0.80239800  1
  C  173  1  0.46286700  0.08090600  0.82316100  1
  C  174  1  0.49254800  0.07873800  0.81005700  1
  C  176  1  0.52776600  0.08007300  0.77740000  1
  C  177  1  0.54508300  0.07336000  0.80307000  1
  C  178  1  0.52326200  0.07254200  0.82330300  1
  C  179  1  0.54037400  0.08396300  0.75115900  1
  C  180  1  0.57081700  0.08717300  0.75110600  1
  C  181  1  0.56842900  0.11798400  0.76179000  1
  C  182  1  0.59677400  0.12361200  0.75966600  1
  C  183  1  0.62803600  0.09888900  0.74639700  1
  C  184  1  0.63093300  0.06755900  0.73642200  1
  C  185  1  0.60253100  0.06171600  0.73885200  1
  C  186  1  0.46589800  0.07224000  0.85191800  1
  C  187  1  0.44992700  0.09797600  0.87283200  1
  C  188  1  0.44923000  0.08805500  0.90071200  1
  C  189  1  0.46436500  0.05241600  0.90789900  1
  C  190  1  0.48181600  0.02687300  0.88698900  1
  C  191  1  0.48235300  0.03665600  0.85919000  1
  C  192  1  0.35067300  0.08039200  0.75102900  1
  C  193  1  0.34732200  0.05357200  0.76422000  1
  C  194  1  0.31444600  0.05607100  0.76682400  1
  C  195  1  0.28452200  0.08495400  0.75548600  1
  C  196  1  0.28809200  0.11118700  0.74152900  1
  C  197  1  0.32066400  0.10910300  0.73956100  1
  C  198  1  0.46755400  0.07337500  0.65031100  1
  C  199  1  0.48740500  0.03742800  0.64441100  1
  C  200  1  0.45817300  0.09790000  0.62843200  1
  C  201  1  0.46981900  0.08642300  0.60098900  1
  C  202  1  0.49074400  0.05043000  0.59513100  1
  C  203  1  0.49855600  0.02609800  0.61702900  1
  C  230  1  0.90898200  0.60288900  0.17932300  1
  C  231  1  0.90822700  0.62550100  0.19950600  1
  C  232  1  0.91502800  0.60862400  0.22541000  1
  C  234  1  0.91535300  0.57209900  0.19258900  1
  C  235  1  0.92070100  0.54142900  0.17875200  1
  C  236  1  0.92379600  0.51134200  0.19190200  1
  C  238  1  0.92470500  0.47494800  0.22459200  1
  C  239  1  0.93170600  0.45777600  0.19884700  1
  C  240  1  0.93110000  0.48031200  0.17861200  1
  C  241  1  0.92249200  0.46137600  0.25092600  1
  C  242  1  0.91791800  0.47939200  0.27662700  1
  C  244  1  0.91702800  0.51625600  0.30942300  1
  C  245  1  0.91169700  0.49117100  0.32272100  1
  C  246  1  0.91172400  0.46888300  0.30256700  1
  C  247  1  0.92116100  0.54235600  0.32325100  1
  C  248  1  0.92334700  0.56986000  0.31013300  1
  C  250  1  0.92235600  0.60623200  0.27744100  1
  C  251  1  0.92841000  0.61721200  0.30318600  1
  C  252  1  0.92906900  0.59465400  0.32343600  1
  C  253  1  0.91903900  0.62240600  0.25112500  1
  C  254  1  0.91562900  0.65613800  0.25101200  1
  C  255  1  0.88432500  0.68463100  0.26091400  1
  C  256  1  0.87859100  0.71863100  0.25866400  1
  C  257  1  0.90373600  0.72511800  0.24610400  1
  C  258  1  0.93558600  0.69660100  0.23703100  1
  C  259  1  0.94148400  0.66233900  0.23950200  1
  C  260  1  0.93003400  0.53661600  0.35196900  1
  C  261  1  0.90449100  0.54606300  0.37301600  1
  C  262  1  0.91468700  0.53515300  0.40080500  1
  C  263  1  0.95040300  0.51480000  0.40778800  1
  C  264  1  0.97574100  0.50710500  0.38677100  1
  C  265  1  0.96568800  0.51763400  0.35905100  1
  C  266  1  0.92245300  0.42916800  0.25125100  1
  C  267  1  0.94936800  0.39894300  0.26431000  1
  C  268  1  0.94687000  0.36856300  0.26692900  1
  C  269  1  0.91792500  0.36756300  0.25569600  1
  C  270  1  0.89159900  0.39743100  0.24186700  1
  C  271  1  0.89369800  0.42790600  0.23985300  1
  C  272  1  0.93060800  0.53818600  0.15027100  1
  C  273  1  0.96652100  0.52183000  0.14417700  1
  C  274  1  0.90592400  0.55365800  0.12854100  1
  C  275  1  0.91721900  0.55391600  0.10104600  1
  C  276  1  0.95318500  0.53872300  0.09502200  1
  C  277  1  0.97766700  0.52183300  0.11675500  1
  C  304  1  0.60395400  0.49262600  0.17909600  1
  C  305  1  0.62650100  0.47067700  0.19929200  1
  C  306  1  0.60952600  0.48059300  0.22515200  1
  C  308  1  0.57305700  0.51686000  0.19230800  1
  C  309  1  0.54243400  0.54224800  0.17843800  1
  C  310  1  0.51231600  0.56916500  0.19158300  1
  C  312  1  0.47588600  0.60452300  0.22426700  1
  C  313  1  0.45871000  0.61473300  0.19851600  1
  C  314  1  0.48128200  0.59289700  0.17827900  1
  C  315  1  0.46232200  0.62024900  0.25060300  1
  C  316  1  0.48040500  0.60676900  0.27628300  1
  C  318  1  0.51708000  0.57061100  0.30905600  1
  C  319  1  0.49235800  0.60120300  0.32234100  1
  C  320  1  0.47010000  0.62354100  0.30219600  1
  C  321  1  0.54287100  0.54018500  0.32290100  1
  C  322  1  0.57034500  0.51050500  0.30977900  1
  C  324  1  0.60683500  0.47529600  0.27710900  1
  C  325  1  0.61764200  0.45808100  0.30281200  1
  C  326  1  0.59498200  0.47986000  0.32304200  1
  C  327  1  0.62321600  0.46264700  0.25084200  1
  C  328  1  0.65694500  0.43232100  0.25077700  1
  C  329  1  0.68534900  0.43504100  0.26105400  1
  C  330  1  0.71937400  0.40680700  0.25889300  1
  C  331  1  0.72598300  0.37532800  0.24598500  1
  C  332  1  0.69755900  0.37205100  0.23654600  1
  C  333  1  0.66327000  0.40039000  0.23893200  1
  C  334  1  0.53725300  0.53717200  0.35165900  1
  C  335  1  0.54704800  0.55310800  0.37258800  1
  C  336  1  0.53633200  0.55389600  0.40044400  1
  C  337  1  0.51581500  0.53877300  0.40761800  1
  C  338  1  0.50771400  0.52133800  0.38670000  1
  C  339  1  0.51804300  0.52079700  0.35890800  1
  C  340  1  0.43021600  0.65259300  0.25093300  1
  C  341  1  0.39995200  0.65606700  0.26402700  1
  C  342  1  0.36967400  0.68902300  0.26662900  1
  C  343  1  0.36885400  0.71888000  0.25537500  1
  C  344  1  0.39873700  0.71518700  0.24149800  1
  C  345  1  0.42911800  0.68253500  0.23951900  1
  C  346  1  0.53922900  0.53563100  0.14994000  1
  C  347  1  0.52289100  0.51607100  0.14378500  1
  C  348  1  0.55469500  0.54490200  0.12824600  1
  C  349  1  0.55496100  0.53341100  0.10072900  1
  C  350  1  0.53977800  0.51264300  0.09465100  1
  C  351  1  0.52285800  0.50502700  0.11633800  1
  C  377  1  0.49504100  0.90495500  0.17985100  1
  C  378  1  0.47307900  0.90444100  0.20006500  1
  C  379  1  0.48241100  0.91253600  0.22575800  1
  C  381  1  0.51876600  0.91244100  0.19295600  1
  C  382  1  0.54350500  0.91857000  0.17899800  1
  C  383  1  0.57009900  0.92236100  0.19208800  1
  C  385  1  0.60549000  0.92355400  0.22468400  1
  C  386  1  0.61508800  0.93132700  0.19899000  1
  C  387  1  0.59321000  0.93054000  0.17880100  1
  C  388  1  0.62145200  0.92112100  0.25096400  1
  C  389  1  0.60821000  0.91611800  0.27661500  1
  C  391  1  0.57219700  0.91541700  0.30941900  1
  C  392  1  0.60292700  0.90927300  0.32263900  1
  C  393  1  0.62524300  0.90914500  0.30245200  1
  C  394  1  0.54175600  0.92018000  0.32329500  1
  C  395  1  0.51188400  0.92280800  0.31017300  1
  C  397  1  0.47651700  0.92177400  0.27751800  1
  C  398  1  0.45903100  0.92898500  0.30312900  1
  C  399  1  0.48095000  0.92960500  0.32336600  1
  C  400  1  0.46395100  0.91776000  0.25130400  1
  C  401  1  0.43325700  0.91498000  0.25122200  1
  C  402  1  0.43502500  0.88464500  0.26240500  1
  C  403  1  0.40644700  0.87938700  0.26024700  1
  C  404  1  0.37558400  0.90398800  0.24641300  1
  C  405  1  0.37329300  0.93486000  0.23592000  1
  C  406  1  0.40190200  0.94036300  0.23842900  1
  C  407  1  0.53872600  0.92915300  0.35197700  1
  C  408  1  0.55438600  0.90363800  0.37311200  1
  C  409  1  0.55501300  0.91383300  0.40090700  1
  C  410  1  0.54002500  0.94952900  0.40782400  1
  C  411  1  0.52291300  0.97486300  0.38668500  1
  C  412  1  0.52256200  0.96480600  0.35895000  1
  C  413  1  0.65358900  0.92131400  0.25126400  1
  C  414  1  0.65692900  0.94786500  0.26493700  1
  C  415  1  0.68974700  0.94550100  0.26752600  1
  C  416  1  0.71957700  0.91712100  0.25559700  1
  C  417  1  0.71601400  0.89119800  0.24114000  1
  C  418  1  0.68352000  0.89309500  0.23923400  1
  C  419  1  0.53625600  0.92887600  0.15062600  1
  C  420  1  0.51608600  0.96483400  0.14484400  1
  C  421  1  0.54583000  0.90447400  0.12865400  1
  C  422  1  0.53418000  0.91606900  0.10122400  1
  C  423  1  0.51296400  0.95206800  0.09547100  1
  C  424  1  0.50488700  0.97629100  0.11747800  1
  C  451  1  0.04269900  0.50032800  0.93519900  1
  C  452  1  0.01712800  0.53562300  0.93955000  1
  C  453  1  0.00197000  0.54808400  0.96611600  1
  C  454  1  0.01371900  0.52415800  0.98884600  1
  C  455  1  0.04053900  0.48931700  0.98495100  1
  C  456  1  0.05498900  0.47749400  0.95834100  1
  C  459  1  0.99661400  0.53245900  0.01494300  1
  C  460  1  0.96925300  0.52512600  0.01826800  1
  C  461  1  0.95367000  0.52877600  0.04451200  1
  C  462  1  0.96521900  0.53984700  0.06778300  1
  C  463  1  0.99136100  0.54892500  0.06390600  1
  C  464  1  0.00764700  0.54530600  0.03768300  1
  C  469  1  0.97363800  0.58514300  0.96828000  1
  C  470  1  0.03667900  0.55304000  0.03435400  1
  C  479  1  0.50161900  0.46103200  0.93487800  1
  C  480  1  0.53689500  0.45138200  0.93925700  1
  C  481  1  0.52533200  0.46660900  0.98848200  1
  C  482  1  0.49049200  0.47463300  0.98455700  1
  C  483  1  0.47874100  0.47174800  0.95798400  1
  C  486  1  0.53359700  0.47546300  0.01457400  1
  C  487  1  0.52619000  0.51018100  0.01788800  1
  C  488  1  0.52988600  0.52211400  0.04411300  1
  C  489  1  0.54094800  0.49949900  0.06740300  1
  C  490  1  0.55011100  0.46425400  0.06354100  1
  C  494  1  0.58634500  0.44559500  0.96797700  1
  C  495  1  0.55426500  0.41479900  0.03403100  1
  C  504  1  0.46227700  0.04179500  0.93544900  1
  C  505  1  0.45259300  0.01621300  0.93993200  1
  C  506  1  0.45532300  0.00114200  0.96655500  1
  C  507  1  0.46747600  0.01300300  0.98921200  1
  C  508  1  0.47546400  0.03983000  0.98518200  1
  C  509  1  0.47281300  0.05418600  0.95851500  1
  C  512  1  0.47625400  0.99600600  0.01537000  1
  C  513  1  0.51098800  0.96877100  0.01880600  1
  C  514  1  0.52278300  0.95309300  0.04504400  1
  C  515  1  0.49999600  0.96437700  0.06821700  1
  C  516  1  0.46477000  0.99045900  0.06422500  1
  C  517  1  0.45223700  0.00685900  0.03800800  1
  C  522  1  0.44665400  0.97277400  0.96884000  1
  C  523  1  0.41544500  0.03579900  0.03457400  1
  C  532  1  0.96131000  0.50182200  0.43523100  1
  C  533  1  0.98706400  0.46655600  0.43946000  1
  C  534  1  0.00240800  0.45400500  0.46596800  1
  C  535  1  0.99066600  0.47779500  0.48877000  1
  C  536  1  0.96371000  0.51260700  0.48498100  1
  C  537  1  0.94902700  0.52451500  0.45843700  1
  C  540  1  0.00789800  0.46944700  0.51482100  1
  C  541  1  0.03520000  0.47687700  0.51809300  1
  C  542  1  0.05089800  0.47316300  0.54429700  1
  C  543  1  0.03941800  0.46206300  0.56760200  1
  C  544  1  0.01336100  0.45285700  0.56377800  1
  C  545  1  0.99700100  0.45649400  0.53758600  1
  C  550  1  0.03086700  0.41698700  0.46802100  1
  C  551  1  0.96802500  0.44866500  0.53432000  1
  C  560  1  0.50306900  0.54089600  0.43515400  1
  C  561  1  0.46779100  0.55060300  0.43959600  1
  C  562  1  0.45541000  0.54790600  0.46620300  1
  C  563  1  0.47939400  0.53576200  0.48889300  1
  C  564  1  0.51422100  0.52774500  0.48490400  1
  C  565  1  0.52596600  0.53036300  0.45824900  1
  C  568  1  0.47860400  0.49229700  0.51849600  1
  C  569  1  0.47466300  0.48053800  0.54472900  1
  C  570  1  0.46311800  0.50335300  0.56787900  1
  C  571  1  0.45399600  0.53856900  0.56386400  1
  C  575  1  0.41836700  0.55659200  0.46844200  1
  C  576  1  0.45010000  0.58784800  0.53420100  1
  C  585  1  0.54188200  0.96039900  0.43533200  1
  C  586  1  0.55154600  0.98600800  0.43974300  1
  C  587  1  0.54866800  0.00124500  0.46630100  1
  C  588  1  0.53640800  0.98952000  0.48898500  1
  C  589  1  0.52837100  0.96271900  0.48502500  1
  C  590  1  0.53120400  0.94816900  0.45842700  1
  C  593  1  0.52758900  0.00658400  0.51509900  1
  C  594  1  0.49287600  0.03387800  0.51846400  1
  C  595  1  0.48105300  0.04961600  0.54466400  1
  C  596  1  0.50376800  0.03822000  0.56788900  1
  C  597  1  0.53898900  0.01210100  0.56397500  1
  C  598  1  0.55155800  0.99568600  0.53778600  1
  C  603  1  0.55736500  0.02959500  0.46851100  1
  C  604  1  0.58833400  0.96668300  0.53443700  1
  C  613  1  0.10984400  0.24202400  0.74073900  1
  C  614  1  0.09703400  0.22453300  0.75745400  1
  C  615  1  0.11599800  0.18769500  0.76031000  1
  C  616  1  0.14907300  0.16878500  0.74695100  1
  C  617  1  0.15901200  0.18608100  0.72720400  1
  C  618  1  0.13937900  0.22221900  0.72381600  1
  C  621  1  0.17731600  0.13757600  0.75829100  1
  C  622  1  0.19445800  0.10912500  0.73953800  1
  C  623  1  0.23081900  0.08727500  0.74075600  1
  C  624  1  0.25035200  0.09205500  0.76179400  1
  C  625  1  0.23252600  0.11655200  0.78319900  1
  C  626  1  0.19624000  0.14019700  0.78163100  1
  C  631  1  0.10194300  0.16957500  0.77769800  1
  C  632  1  0.18092700  0.17116200  0.80089200  1
  C  641  1  0.24337400  0.65309600  0.74061100  1
  C  642  1  0.22569500  0.68323600  0.75743800  1
  C  643  1  0.18886000  0.70088500  0.76018200  1
  C  644  1  0.17013000  0.68659600  0.74671400  1
  C  645  1  0.18769200  0.65935400  0.72701100  1
  C  646  1  0.22381200  0.64316700  0.72358100  1
  C  649  1  0.13905000  0.68915400  0.75794900  1
  C  650  1  0.11059600  0.70025900  0.73925700  1
  C  651  1  0.08865900  0.68587700  0.74070300  1
  C  652  1  0.09372900  0.66141600  0.76171000  1
  C  653  1  0.11838500  0.65476200  0.78303200  1
  C  654  1  0.14197700  0.66746900  0.78128900  1
  C  659  1  0.17052200  0.73294700  0.77765200  1
  C  660  1  0.17306800  0.65181000  0.80045400  1
  C  669  1  0.65348500  0.10852700  0.74087300  1
  C  670  1  0.68377200  0.09592100  0.75757400  1
  C  671  1  0.70151900  0.11501800  0.76030800  1
  C  672  1  0.68721400  0.14806500  0.74686300  1
  C  673  1  0.65994500  0.15786100  0.72717500  1
  C  674  1  0.64357900  0.13808600  0.72390400  1
  C  677  1  0.69013900  0.17638800  0.75803700  1
  C  678  1  0.70141500  0.19346200  0.73916400  1
  C  679  1  0.68695300  0.22981900  0.74029700  1
  C  680  1  0.66271400  0.24942400  0.76135400  1
  C  681  1  0.65603000  0.23167400  0.78283400  1
  C  682  1  0.66863900  0.19538800  0.78136700  1
  C  687  1  0.73370600  0.10112500  0.77766500  1
  C  688  1  0.65301900  0.18013100  0.80074100  1
  C  697  1  0.89438200  0.76018000  0.24075400  1
  C  698  1  0.90712600  0.77761800  0.25758500  1
  C  699  1  0.88820600  0.81444900  0.26043200  1
  C  700  1  0.85520600  0.83347300  0.24696800  1
  C  701  1  0.84533800  0.81618700  0.22715200  1
  C  702  1  0.86500100  0.78006500  0.22366800  1
  C  705  1  0.82681800  0.86460600  0.25825800  1
  C  706  1  0.80960400  0.89313400  0.23960900  1
  C  707  1  0.77328200  0.91510800  0.24093600  1
  C  708  1  0.75376100  0.91003500  0.26181800  1
  C  709  1  0.77163400  0.88532500  0.28314100  1
  C  710  1  0.80793200  0.86169000  0.28150200  1
  C  715  1  0.90218400  0.83249800  0.27797900  1
  C  716  1  0.82322700  0.83055900  0.30063000  1
  C  725  1  0.76109300  0.34980400  0.24060100  1
  C  726  1  0.77855400  0.31945400  0.25727400  1
  C  727  1  0.81538700  0.30156600  0.26015500  1
  C  728  1  0.83432400  0.31576200  0.24687400  1
  C  729  1  0.81706200  0.34304300  0.22715200  1
  C  730  1  0.78093100  0.35956300  0.22373100  1
  C  733  1  0.86549800  0.31279000  0.25828700  1
  C  734  1  0.89398300  0.30156400  0.23957200  1
  C  735  1  0.91577800  0.31613400  0.24086700  1
  C  736  1  0.91090800  0.34042000  0.26194800  1
  C  737  1  0.88639300  0.34698900  0.28332300  1
  C  738  1  0.86280300  0.33428800  0.28167800  1
  C  743  1  0.83347700  0.26934100  0.27749700  1
  C  744  1  0.83180500  0.34984900  0.30091300  1
  C  753  1  0.35003800  0.89453400  0.24071800  1
  C  754  1  0.31989500  0.90690900  0.25753400  1
  C  755  1  0.30227600  0.88768400  0.26020300  1
  C  756  1  0.31660500  0.85470400  0.24667200  1
  C  757  1  0.34386000  0.84510800  0.22699300  1
  C  758  1  0.36001700  0.86508200  0.22363600  1
  C  761  1  0.31404800  0.82613800  0.25781700  1
  C  762  1  0.30295300  0.80885700  0.23906200  1
  C  763  1  0.31730100  0.77253500  0.24045000  1
  C  764  1  0.34171700  0.75307800  0.26146300  1
  C  765  1  0.34837700  0.77100800  0.28283100  1
  C  766  1  0.33570500  0.80730400  0.28114900  1
  C  771  1  0.27020700  0.90132200  0.27766500  1
  C  772  1  0.35136200  0.82266900  0.30037200  1
  N  13  1  0.08592600  0.42514800  0.72008000  1
  N  17  1  0.08438500  0.49510300  0.71922100  1
  N  23  1  0.08397500  0.49370600  0.78158100  1
  N  29  1  0.08431900  0.42444600  0.78251600  1
  N  87  1  0.42532800  0.49239800  0.72023300  1
  N  91  1  0.49550400  0.42448500  0.71906700  1
  N  97  1  0.49432300  0.42606400  0.78138600  1
  N  103  1  0.42503800  0.49491300  0.78247400  1
  N  159  1  0.49376100  0.08563500  0.72026200  1
  N  163  1  0.42557300  0.08371200  0.71925400  1
  N  169  1  0.42758300  0.08256100  0.78166500  1
  N  175  1  0.49633700  0.08334800  0.78264800  1
  N  233  1  0.91812000  0.57709600  0.22021100  1
  N  237  1  0.91978000  0.50705500  0.21934500  1
  N  243  1  0.91994600  0.50844100  0.28179700  1
  N  249  1  0.91920500  0.57799800  0.28267100  1
  N  307  1  0.57795500  0.50896900  0.21991700  1
  N  311  1  0.50801600  0.57738500  0.21903900  1
  N  317  1  0.50939800  0.57561100  0.28140100  1
  N  323  1  0.57864200  0.50668900  0.28235500  1
  N  380  1  0.51079200  0.91573800  0.22055600  1
  N  384  1  0.57871300  0.91798700  0.21946800  1
  N  390  1  0.57700300  0.91842700  0.28179300  1
  N  396  1  0.50814800  0.91799700  0.28279900  1
  O  471  1  0.04460100  0.56751200  0.05822100  1
  O  475  1  0.94411500  0.58988400  0.95247300  1
  O  496  1  0.56875400  0.39241700  0.05791900  1
  O  500  1  0.59112300  0.47023700  0.95199300  1
  O  524  1  0.39293900  0.04363900  0.05835900  1
  O  528  1  0.47142200  0.94324300  0.95305000  1
  O  552  1  0.96025200  0.43408100  0.55820800  1
  O  556  1  0.06025400  0.41246600  0.45214000  1
  O  577  1  0.43539900  0.61038200  0.55795800  1
  O  581  1  0.41361400  0.53181300  0.45265700  1
  O  605  1  0.61079400  0.95883600  0.55826000  1
  O  609  1  0.53269000  0.05905400  0.45257800  1
  O  633  1  0.20146400  0.16970400  0.82465200  1
  O  637  1  0.09633900  0.14675500  0.76001200  1
  O  661  1  0.17186700  0.63256800  0.82420900  1
  O  665  1  0.14758700  0.76139500  0.76000600  1
  O  689  1  0.63400300  0.20073000  0.82448600  1
  O  693  1  0.76206800  0.09560200  0.75992400  1
  O  717  1  0.80270000  0.83181400  0.32433300  1
  O  721  1  0.90794100  0.85533100  0.26041300  1
  O  745  1  0.83319300  0.36888400  0.32472500  1
  O  749  1  0.85631400  0.24096600  0.25977800  1
  O  773  1  0.37058300  0.80215000  0.32410400  1
  O  777  1  0.24178000  0.90685900  0.25999400  1
