# generated using pymatgen
data_ZnH10(C7N2)2
_symmetry_space_group_name_H-M   'P 1'
_cell_length_a   33.00043000
_cell_length_b   32.99270092
_cell_length_c   33.00045000
_cell_angle_alpha   90.02143559
_cell_angle_beta   119.99578000
_cell_angle_gamma   119.98719968
_symmetry_Int_Tables_number   1
_chemical_formula_structural   ZnH10(C7N2)2
_chemical_formula_sum   'Zn48 H480 C672 N192'
_cell_volume   25408.13498699
_cell_formula_units_Z   48
loop_
 _symmetry_equiv_pos_site_id
 _symmetry_equiv_pos_as_xyz
  1  'x, y, z'
loop_
 _atom_site_type_symbol
 _atom_site_label
 _atom_site_symmetry_multiplicity
 _atom_site_fract_x
 _atom_site_fract_y
 _atom_site_fract_z
 _atom_site_occupancy
  Zn  Zn0  1  0.86838000  0.02452000  0.52525000  1
  Zn  Zn1  1  0.86857000  0.84398000  0.34318000  1
  Zn  Zn2  1  0.13157000  0.65691000  0.15591000  1
  Zn  Zn3  1  0.13147000  0.47462000  0.97540000  1
  Zn  Zn4  1  0.68145000  0.65686000  0.52537000  1
  Zn  Zn5  1  0.31873000  0.47465000  0.34306000  1
  Zn  Zn6  1  0.68143000  0.02457000  0.15602000  1
  Zn  Zn7  1  0.31860000  0.84386000  0.97549000  1
  Zn  Zn8  1  0.50099000  0.84406000  0.52533000  1
  Zn  Zn9  1  0.49922000  0.02459000  0.34314000  1
  Zn  Zn10  1  0.49927000  0.47476000  0.15616000  1
  Zn  Zn11  1  0.50082000  0.65685000  0.97543000  1
  Zn  Zn12  1  0.13145000  0.97543000  0.65685000  1
  Zn  Zn13  1  0.13164000  0.15614000  0.47474000  1
  Zn  Zn14  1  0.86851000  0.34313000  0.02459000  1
  Zn  Zn15  1  0.86841000  0.52535000  0.84408000  1
  Zn  Zn16  1  0.31858000  0.34315000  0.84397000  1
  Zn  Zn17  1  0.68139000  0.52523000  0.02451000  1
  Zn  Zn18  1  0.31855000  0.97540000  0.47463000  1
  Zn  Zn19  1  0.68126000  0.15593000  0.65692000  1
  Zn  Zn20  1  0.49919000  0.15601000  0.02459000  1
  Zn  Zn21  1  0.50073000  0.97548000  0.84386000  1
  Zn  Zn22  1  0.50077000  0.52537000  0.65685000  1
  Zn  Zn23  1  0.49900000  0.34308000  0.47465000  1
  Zn  Zn24  1  0.13162000  0.97548000  0.47475000  1
  Zn  Zn25  1  0.13142000  0.15601000  0.65682000  1
  Zn  Zn26  1  0.86843000  0.34308000  0.84409000  1
  Zn  Zn27  1  0.86852000  0.52537000  0.02460000  1
  Zn  Zn28  1  0.31854000  0.34313000  0.47463000  1
  Zn  Zn29  1  0.68127000  0.52535000  0.65694000  1
  Zn  Zn30  1  0.31858000  0.97543000  0.84398000  1
  Zn  Zn31  1  0.68139000  0.15613000  0.02451000  1
  Zn  Zn32  1  0.49901000  0.15593000  0.47467000  1
  Zn  Zn33  1  0.50078000  0.97541000  0.65685000  1
  Zn  Zn34  1  0.50073000  0.52524000  0.84384000  1
  Zn  Zn35  1  0.49918000  0.34315000  0.02457000  1
  Zn  Zn36  1  0.86855000  0.02457000  0.34314000  1
  Zn  Zn37  1  0.86837000  0.84386000  0.52526000  1
  Zn  Zn38  1  0.13149000  0.65686000  0.97541000  1
  Zn  Zn39  1  0.13159000  0.47465000  0.15592000  1
  Zn  Zn40  1  0.68142000  0.65684000  0.15603000  1
  Zn  Zn41  1  0.31860000  0.47476000  0.97549000  1
  Zn  Zn42  1  0.68145000  0.02459000  0.52537000  1
  Zn  Zn43  1  0.31873000  0.84406000  0.34308000  1
  Zn  Zn44  1  0.50081000  0.84399000  0.97541000  1
  Zn  Zn45  1  0.49927000  0.02451000  0.15614000  1
  Zn  Zn46  1  0.49922000  0.47462000  0.34315000  1
  Zn  Zn47  1  0.50101000  0.65692000  0.52534000  1
  H  H48  1  0.73463000  0.94370000  0.42941000  1
  H  H49  1  0.64757000  0.86110000  0.36593000  1
  H  H50  1  0.89205000  0.00935000  0.62887000  1
  H  H51  1  0.94732000  0.02196000  0.71958000  1
  H  H52  1  0.86118000  0.11997000  0.50690000  1
  H  H53  1  0.85913000  0.18346000  0.46691000  1
  H  H54  1  0.94051000  0.12595000  0.60247000  1
  H  H55  1  0.96275000  0.20129000  0.65032000  1
  H  H56  1  0.73507000  0.79107000  0.30536000  1
  H  H57  1  0.64804000  0.78667000  0.28187000  1
  H  H58  1  0.89176000  0.88272000  0.26327000  1
  H  H59  1  0.94690000  0.92513000  0.22767000  1
  H  H60  1  0.86191000  0.74153000  0.35451000  1
  H  H61  1  0.85938000  0.67578000  0.39221000  1
  H  H62  1  0.94062000  0.81476000  0.33804000  1
  H  H63  1  0.96276000  0.76157000  0.31246000  1
  H  H64  1  0.26495000  0.69465000  0.20899000  1
  H  H65  1  0.35206000  0.71823000  0.21345000  1
  H  H66  1  0.10794000  0.73690000  0.11682000  1
  H  H67  1  0.05279000  0.77250000  0.07454000  1
  H  H68  1  0.13854000  0.64569000  0.25834000  1
  H  H69  1  0.14066000  0.60775000  0.32388000  1
  H  H70  1  0.05966000  0.66211000  0.18502000  1
  H  H71  1  0.03757000  0.68757000  0.23834000  1
  H  H72  1  0.26512000  0.57035000  0.05618000  1
  H  H73  1  0.35221000  0.63387000  0.13884000  1
  H  H74  1  0.10808000  0.37102000  0.99059000  1
  H  H75  1  0.05293000  0.28036000  0.97818000  1
  H  H76  1  0.13850000  0.49282000  0.87994000  1
  H  H77  1  0.14090000  0.53303000  0.81668000  1
  H  H78  1  0.05922000  0.39708000  0.87426000  1
  H  H79  1  0.03706000  0.34955000  0.79879000  1
  H  H80  1  0.63854000  0.69474000  0.42959000  1
  H  H81  1  0.57948000  0.71832000  0.36611000  1
  H  H82  1  0.74650000  0.73709000  0.62900000  1
  H  H83  1  0.79441000  0.77259000  0.71965000  1
  H  H84  1  0.76564000  0.64566000  0.50716000  1
  H  H85  1  0.79114000  0.60785000  0.46695000  1
  H  H86  1  0.78789000  0.66212000  0.60292000  1
  H  H87  1  0.88869000  0.68749000  0.65043000  1
  H  H88  1  0.36134000  0.57032000  0.30538000  1
  H  H89  1  0.42040000  0.63385000  0.28179000  1
  H  H90  1  0.25427000  0.37108000  0.26315000  1
  H  H91  1  0.20576000  0.28030000  0.22751000  1
  H  H92  1  0.23459000  0.49282000  0.35434000  1
  H  H93  1  0.20907000  0.53290000  0.39226000  1
  H  H94  1  0.21249000  0.39752000  0.33787000  1
  H  H95  1  0.11167000  0.35000000  0.31243000  1
  H  H96  1  0.63860000  0.94399000  0.20890000  1
  H  H97  1  0.57947000  0.86136000  0.21331000  1
  H  H98  1  0.74574000  0.00901000  0.11725000  1
  H  H99  1  0.79409000  0.02175000  0.07485000  1
  H  H100  1  0.76578000  0.12030000  0.25837000  1
  H  H101  1  0.79134000  0.18356000  0.32417000  1
  H  H102  1  0.78785000  0.12587000  0.18526000  1
  H  H103  1  0.88872000  0.20118000  0.23843000  1
  H  H104  1  0.36155000  0.79089000  0.05632000  1
  H  H105  1  0.42055000  0.78645000  0.13890000  1
  H  H106  1  0.25382000  0.88267000  0.99062000  1
  H  H107  1  0.20576000  0.92534000  0.97802000  1
  H  H108  1  0.23437000  0.74128000  0.88008000  1
  H  H109  1  0.20878000  0.67569000  0.81656000  1
  H  H110  1  0.21206000  0.81457000  0.87401000  1
  H  H111  1  0.11116000  0.76148000  0.79872000  1
  H  H112  1  0.48566000  0.79101000  0.42968000  1
  H  H113  1  0.50476000  0.78653000  0.36614000  1
  H  H114  1  0.62007000  0.88314000  0.62892000  1
  H  H115  1  0.69792000  0.92542000  0.71968000  1
  H  H116  1  0.38735000  0.74170000  0.50713000  1
  H  H117  1  0.28387000  0.67613000  0.46707000  1
  H  H118  1  0.47713000  0.81502000  0.60253000  1
  H  H119  1  0.44924000  0.76169000  0.65003000  1
  H  H120  1  0.51416000  0.94381000  0.30525000  1
  H  H121  1  0.49503000  0.86114000  0.28166000  1
  H  H122  1  0.38038000  0.00936000  0.26289000  1
  H  H123  1  0.30219000  0.02181000  0.22742000  1
  H  H124  1  0.61286000  0.12000000  0.35435000  1
  H  H125  1  0.71634000  0.18328000  0.39215000  1
  H  H126  1  0.52280000  0.12578000  0.33787000  1
  H  H127  1  0.55076000  0.20122000  0.31252000  1
  H  H128  1  0.51428000  0.57061000  0.20905000  1
  H  H129  1  0.49518000  0.63410000  0.21353000  1
  H  H130  1  0.38052000  0.37118000  0.11734000  1
  H  H131  1  0.30242000  0.28045000  0.07467000  1
  H  H132  1  0.61305000  0.49308000  0.25875000  1
  H  H133  1  0.71653000  0.53309000  0.32431000  1
  H  H134  1  0.52349000  0.39745000  0.18541000  1
  H  H135  1  0.55097000  0.34965000  0.23852000  1
  H  H136  1  0.48574000  0.69462000  0.05603000  1
  H  H137  1  0.50480000  0.71812000  0.13866000  1
  H  H138  1  0.61947000  0.73676000  0.99100000  1
  H  H139  1  0.69746000  0.77234000  0.97824000  1
  H  H140  1  0.38704000  0.64548000  0.87965000  1
  H  H141  1  0.28359000  0.60778000  0.81644000  1
  H  H142  1  0.47670000  0.66193000  0.87406000  1
  H  H143  1  0.44911000  0.68751000  0.79879000  1
  H  H144  1  0.26490000  0.05600000  0.69460000  1
  H  H145  1  0.35195000  0.13863000  0.71811000  1
  H  H146  1  0.10825000  0.99099000  0.73672000  1
  H  H147  1  0.05310000  0.97824000  0.77234000  1
  H  H148  1  0.13806000  0.87969000  0.64547000  1
  H  H149  1  0.14060000  0.81643000  0.60777000  1
  H  H150  1  0.05939000  0.87413000  0.66198000  1
  H  H151  1  0.03724000  0.79881000  0.68753000  1
  H  H152  1  0.26542000  0.20910000  0.57065000  1
  H  H153  1  0.35244000  0.21354000  0.63410000  1
  H  H154  1  0.10796000  0.11733000  0.37114000  1
  H  H155  1  0.05268000  0.07465000  0.28042000  1
  H  H156  1  0.13879000  0.25871000  0.49309000  1
  H  H157  1  0.14087000  0.32431000  0.53309000  1
  H  H158  1  0.05944000  0.18542000  0.39749000  1
  H  H159  1  0.03724000  0.23852000  0.34968000  1
  H  H160  1  0.73485000  0.30525000  0.94380000  1
  H  H161  1  0.64778000  0.28167000  0.86115000  1
  H  H162  1  0.89192000  0.26291000  0.00941000  1
  H  H163  1  0.94707000  0.22741000  0.02182000  1
  H  H164  1  0.86150000  0.35433000  0.11998000  1
  H  H165  1  0.85910000  0.39215000  0.18328000  1
  H  H166  1  0.94080000  0.33787000  0.12577000  1
  H  H167  1  0.96294000  0.31251000  0.20119000  1
  H  H168  1  0.73505000  0.42967000  0.79102000  1
  H  H169  1  0.64794000  0.36615000  0.78655000  1
  H  H170  1  0.89206000  0.62891000  0.88318000  1
  H  H171  1  0.94720000  0.71969000  0.92546000  1
  H  H172  1  0.86151000  0.50717000  0.74177000  1
  H  H173  1  0.85936000  0.46710000  0.67616000  1
  H  H174  1  0.94034000  0.60247000  0.81497000  1
  H  H175  1  0.96244000  0.65000000  0.76166000  1
  H  H176  1  0.36141000  0.30538000  0.79112000  1
  H  H177  1  0.42054000  0.28187000  0.78668000  1
  H  H178  1  0.25424000  0.26324000  0.88271000  1
  H  H179  1  0.20590000  0.22766000  0.92512000  1
  H  H180  1  0.23417000  0.35452000  0.74156000  1
  H  H181  1  0.20865000  0.39221000  0.67581000  1
  H  H182  1  0.21213000  0.33806000  0.81477000  1
  H  H183  1  0.11128000  0.31249000  0.76159000  1
  H  H184  1  0.63844000  0.42939000  0.94367000  1
  H  H185  1  0.57943000  0.36589000  0.86107000  1
  H  H186  1  0.74615000  0.62881000  0.00934000  1
  H  H187  1  0.79422000  0.71954000  0.02197000  1
  H  H188  1  0.76567000  0.50691000  0.11996000  1
  H  H189  1  0.79122000  0.46691000  0.18344000  1
  H  H190  1  0.78796000  0.60254000  0.12604000  1
  H  H191  1  0.88887000  0.65035000  0.20132000  1
  H  H192  1  0.36144000  0.05618000  0.57035000  1
  H  H193  1  0.42052000  0.13885000  0.63388000  1
  H  H194  1  0.25352000  0.99063000  0.37102000  1
  H  H195  1  0.20560000  0.97818000  0.28038000  1
  H  H196  1  0.23435000  0.87999000  0.49285000  1
  H  H197  1  0.20886000  0.81671000  0.53306000  1
  H  H198  1  0.21208000  0.87421000  0.39702000  1
  H  H199  1  0.11129000  0.79877000  0.34954000  1
  H  H200  1  0.63868000  0.20899000  0.69464000  1
  H  H201  1  0.57960000  0.21346000  0.71823000  1
  H  H202  1  0.74577000  0.11685000  0.73692000  1
  H  H203  1  0.79425000  0.07457000  0.77250000  1
  H  H204  1  0.76543000  0.25829000  0.64565000  1
  H  H205  1  0.79094000  0.32387000  0.60774000  1
  H  H206  1  0.78752000  0.18498000  0.66211000  1
  H  H207  1  0.88833000  0.23830000  0.68755000  1
  H  H208  1  0.51429000  0.20893000  0.94399000  1
  H  H209  1  0.49520000  0.21333000  0.86136000  1
  H  H210  1  0.38056000  0.11728000  0.00903000  1
  H  H211  1  0.30254000  0.07486000  0.02177000  1
  H  H212  1  0.61298000  0.25847000  0.12037000  1
  H  H213  1  0.71643000  0.32422000  0.18359000  1
  H  H214  1  0.52328000  0.18524000  0.12586000  1
  H  H215  1  0.55088000  0.23842000  0.20119000  1
  H  H216  1  0.48570000  0.05629000  0.79092000  1
  H  H217  1  0.50482000  0.13889000  0.78647000  1
  H  H218  1  0.61952000  0.99065000  0.88270000  1
  H  H219  1  0.69761000  0.97803000  0.92535000  1
  H  H220  1  0.38694000  0.88003000  0.74120000  1
  H  H221  1  0.28345000  0.81653000  0.67567000  1
  H  H222  1  0.47652000  0.87405000  0.81456000  1
  H  H223  1  0.44904000  0.79871000  0.76145000  1
  H  H224  1  0.48583000  0.42964000  0.69477000  1
  H  H225  1  0.50497000  0.36613000  0.71834000  1
  H  H226  1  0.61957000  0.62898000  0.73706000  1
  H  H227  1  0.69781000  0.71963000  0.77257000  1
  H  H228  1  0.38713000  0.50718000  0.64568000  1
  H  H229  1  0.28365000  0.46697000  0.60787000  1
  H  H230  1  0.47717000  0.60291000  0.66214000  1
  H  H231  1  0.44923000  0.65044000  0.68751000  1
  H  H232  1  0.51435000  0.30535000  0.57030000  1
  H  H233  1  0.49523000  0.28177000  0.63383000  1
  H  H234  1  0.37991000  0.26309000  0.37104000  1
  H  H235  1  0.30205000  0.22750000  0.28029000  1
  H  H236  1  0.61265000  0.35430000  0.49285000  1
  H  H237  1  0.71613000  0.39224000  0.53291000  1
  H  H238  1  0.52291000  0.33789000  0.39754000  1
  H  H239  1  0.55078000  0.31243000  0.34999000  1
  H  H240  1  0.26537000  0.05629000  0.57059000  1
  H  H241  1  0.35242000  0.13889000  0.63407000  1
  H  H242  1  0.10796000  0.99065000  0.37113000  1
  H  H243  1  0.05268000  0.97803000  0.28042000  1
  H  H244  1  0.13883000  0.88003000  0.49309000  1
  H  H245  1  0.14087000  0.81653000  0.53308000  1
  H  H246  1  0.05948000  0.87404000  0.39753000  1
  H  H247  1  0.03725000  0.79870000  0.34967000  1
  H  H248  1  0.26494000  0.20893000  0.69464000  1
  H  H249  1  0.35197000  0.21333000  0.71813000  1
  H  H250  1  0.10825000  0.11728000  0.73673000  1
  H  H251  1  0.05311000  0.07487000  0.77233000  1
  H  H252  1  0.13810000  0.25847000  0.64549000  1
  H  H253  1  0.14063000  0.32422000  0.60779000  1
  H  H254  1  0.05938000  0.18524000  0.66196000  1
  H  H255  1  0.03724000  0.23842000  0.68754000  1
  H  H256  1  0.73506000  0.30535000  0.79101000  1
  H  H257  1  0.64794000  0.28177000  0.78655000  1
  H  H258  1  0.89205000  0.26309000  0.88318000  1
  H  H259  1  0.94721000  0.22750000  0.92546000  1
  H  H260  1  0.86145000  0.35430000  0.74166000  1
  H  H261  1  0.85933000  0.39224000  0.67612000  1
  H  H262  1  0.94035000  0.33789000  0.81498000  1
  H  H263  1  0.96244000  0.31243000  0.76166000  1
  H  H264  1  0.73487000  0.42964000  0.94381000  1
  H  H265  1  0.64779000  0.36613000  0.86116000  1
  H  H266  1  0.89192000  0.62898000  0.00941000  1
  H  H267  1  0.94706000  0.71963000  0.02182000  1
  H  H268  1  0.86150000  0.50718000  0.12005000  1
  H  H269  1  0.85911000  0.46697000  0.18332000  1
  H  H270  1  0.94077000  0.60291000  0.12574000  1
  H  H271  1  0.96293000  0.65044000  0.20121000  1
  H  H272  1  0.36145000  0.30525000  0.57040000  1
  H  H273  1  0.42052000  0.28167000  0.63389000  1
  H  H274  1  0.25350000  0.26291000  0.37100000  1
  H  H275  1  0.20559000  0.22741000  0.28035000  1
  H  H276  1  0.23436000  0.35433000  0.49284000  1
  H  H277  1  0.20887000  0.39215000  0.53305000  1
  H  H278  1  0.21210000  0.33787000  0.39707000  1
  H  H279  1  0.11132000  0.31251000  0.34957000  1
  H  H280  1  0.63866000  0.42967000  0.69462000  1
  H  H281  1  0.57960000  0.36615000  0.71821000  1
  H  H282  1  0.74573000  0.62891000  0.73685000  1
  H  H283  1  0.79423000  0.71969000  0.77249000  1
  H  H284  1  0.76541000  0.50717000  0.64566000  1
  H  H285  1  0.79094000  0.46710000  0.60774000  1
  H  H286  1  0.78750000  0.60247000  0.66213000  1
  H  H287  1  0.88834000  0.65000000  0.68757000  1
  H  H288  1  0.36140000  0.05600000  0.79110000  1
  H  H289  1  0.42052000  0.13863000  0.78669000  1
  H  H290  1  0.25427000  0.99099000  0.88274000  1
  H  H291  1  0.20590000  0.97824000  0.92514000  1
  H  H292  1  0.23422000  0.87969000  0.74163000  1
  H  H293  1  0.20866000  0.81643000  0.67583000  1
  H  H294  1  0.21215000  0.87413000  0.81474000  1
  H  H295  1  0.11128000  0.79881000  0.76157000  1
  H  H296  1  0.63845000  0.20910000  0.94368000  1
  H  H297  1  0.57945000  0.21355000  0.86110000  1
  H  H298  1  0.74618000  0.11732000  0.00937000  1
  H  H299  1  0.79424000  0.07465000  0.02198000  1
  H  H300  1  0.76563000  0.25871000  0.11992000  1
  H  H301  1  0.79122000  0.32431000  0.18344000  1
  H  H302  1  0.78793000  0.18542000  0.12599000  1
  H  H303  1  0.88884000  0.23852000  0.20128000  1
  H  H304  1  0.51435000  0.20899000  0.57032000  1
  H  H305  1  0.49523000  0.21346000  0.63386000  1
  H  H306  1  0.37993000  0.11685000  0.37108000  1
  H  H307  1  0.30207000  0.07457000  0.28032000  1
  H  H308  1  0.61264000  0.25829000  0.49287000  1
  H  H309  1  0.71613000  0.32387000  0.53293000  1
  H  H310  1  0.52288000  0.18498000  0.39747000  1
  H  H311  1  0.55076000  0.23830000  0.34997000  1
  H  H312  1  0.48583000  0.05618000  0.69474000  1
  H  H313  1  0.50497000  0.13885000  0.71834000  1
  H  H314  1  0.61961000  0.99063000  0.73711000  1
  H  H315  1  0.69780000  0.97818000  0.77258000  1
  H  H316  1  0.38714000  0.87999000  0.64565000  1
  H  H317  1  0.28365000  0.81671000  0.60785000  1
  H  H318  1  0.47719000  0.87421000  0.66213000  1
  H  H319  1  0.44924000  0.79877000  0.68748000  1
  H  H320  1  0.48572000  0.42939000  0.79095000  1
  H  H321  1  0.50482000  0.36589000  0.78646000  1
  H  H322  1  0.61948000  0.62881000  0.88266000  1
  H  H323  1  0.69758000  0.71955000  0.92533000  1
  H  H324  1  0.38695000  0.50691000  0.74125000  1
  H  H325  1  0.28348000  0.46691000  0.67569000  1
  H  H326  1  0.47650000  0.60254000  0.81458000  1
  H  H327  1  0.44903000  0.65035000  0.76148000  1
  H  H328  1  0.51426000  0.30538000  0.94397000  1
  H  H329  1  0.49519000  0.28187000  0.86133000  1
  H  H330  1  0.38053000  0.26324000  0.00900000  1
  H  H331  1  0.30255000  0.22766000  0.02176000  1
  H  H332  1  0.61296000  0.35452000  0.12035000  1
  H  H333  1  0.71640000  0.39221000  0.18356000  1
  H  H334  1  0.52329000  0.33806000  0.12593000  1
  H  H335  1  0.55090000  0.31249000  0.20121000  1
  H  H336  1  0.73510000  0.94399000  0.30540000  1
  H  H337  1  0.64805000  0.86136000  0.28189000  1
  H  H338  1  0.89176000  0.00901000  0.26328000  1
  H  H339  1  0.94690000  0.02175000  0.22766000  1
  H  H340  1  0.86193000  0.12030000  0.35453000  1
  H  H341  1  0.85940000  0.18356000  0.39222000  1
  H  H342  1  0.94061000  0.12587000  0.33802000  1
  H  H343  1  0.96276000  0.20118000  0.31247000  1
  H  H344  1  0.73457000  0.79089000  0.42935000  1
  H  H345  1  0.64756000  0.78645000  0.36590000  1
  H  H346  1  0.89205000  0.88267000  0.62886000  1
  H  H347  1  0.94732000  0.92534000  0.71958000  1
  H  H348  1  0.86120000  0.74128000  0.50691000  1
  H  H349  1  0.85913000  0.67569000  0.46691000  1
  H  H350  1  0.94056000  0.81457000  0.60251000  1
  H  H351  1  0.96275000  0.76147000  0.65032000  1
  H  H352  1  0.26515000  0.69474000  0.05620000  1
  H  H353  1  0.35221000  0.71832000  0.13884000  1
  H  H354  1  0.10809000  0.73709000  0.99059000  1
  H  H355  1  0.05294000  0.77259000  0.97818000  1
  H  H356  1  0.13850000  0.64566000  0.88002000  1
  H  H357  1  0.14090000  0.60785000  0.81671000  1
  H  H358  1  0.05920000  0.66212000  0.87423000  1
  H  H359  1  0.03706000  0.68749000  0.79881000  1
  H  H360  1  0.26494000  0.57032000  0.20898000  1
  H  H361  1  0.35206000  0.63385000  0.21345000  1
  H  H362  1  0.10794000  0.37108000  0.11682000  1
  H  H363  1  0.05279000  0.28030000  0.07454000  1
  H  H364  1  0.13849000  0.49282000  0.25823000  1
  H  H365  1  0.14064000  0.53290000  0.32384000  1
  H  H366  1  0.05965000  0.39752000  0.18503000  1
  H  H367  1  0.03757000  0.35000000  0.23834000  1
  H  H368  1  0.63859000  0.69462000  0.20888000  1
  H  H369  1  0.57946000  0.71812000  0.21332000  1
  H  H370  1  0.74576000  0.73676000  0.11729000  1
  H  H371  1  0.79410000  0.77234000  0.07488000  1
  H  H372  1  0.76583000  0.64548000  0.25844000  1
  H  H373  1  0.79134000  0.60778000  0.32419000  1
  H  H374  1  0.78787000  0.66193000  0.18523000  1
  H  H375  1  0.88872000  0.68750000  0.23840000  1
  H  H376  1  0.36156000  0.57061000  0.05633000  1
  H  H377  1  0.42057000  0.63410000  0.13893000  1
  H  H378  1  0.25385000  0.37119000  0.99066000  1
  H  H379  1  0.20578000  0.28045000  0.97803000  1
  H  H380  1  0.23433000  0.49308000  0.88004000  1
  H  H381  1  0.20878000  0.53309000  0.81656000  1
  H  H382  1  0.21204000  0.39745000  0.87396000  1
  H  H383  1  0.11114000  0.34965000  0.79868000  1
  H  H384  1  0.63856000  0.94381000  0.42965000  1
  H  H385  1  0.57948000  0.86114000  0.36612000  1
  H  H386  1  0.74647000  0.00936000  0.62898000  1
  H  H387  1  0.79439000  0.02181000  0.71962000  1
  H  H388  1  0.76565000  0.12000000  0.50714000  1
  H  H389  1  0.79113000  0.18328000  0.46694000  1
  H  H390  1  0.78792000  0.12579000  0.60298000  1
  H  H391  1  0.88870000  0.20122000  0.65046000  1
  H  H392  1  0.36133000  0.79101000  0.30536000  1
  H  H393  1  0.42039000  0.78653000  0.28177000  1
  H  H394  1  0.25422000  0.88314000  0.26308000  1
  H  H395  1  0.20575000  0.92542000  0.22750000  1
  H  H396  1  0.23457000  0.74170000  0.35435000  1
  H  H397  1  0.20906000  0.67613000  0.39226000  1
  H  H398  1  0.21249000  0.81502000  0.33789000  1
  H  H399  1  0.11166000  0.76169000  0.31245000  1
  H  H400  1  0.48572000  0.79107000  0.05601000  1
  H  H401  1  0.50480000  0.78667000  0.13863000  1
  H  H402  1  0.61945000  0.88272000  0.99096000  1
  H  H403  1  0.69746000  0.92513000  0.97823000  1
  H  H404  1  0.38702000  0.74153000  0.87963000  1
  H  H405  1  0.28357000  0.67578000  0.81641000  1
  H  H406  1  0.47672000  0.81476000  0.87414000  1
  H  H407  1  0.44911000  0.76157000  0.79881000  1
  H  H408  1  0.51429000  0.94370000  0.20908000  1
  H  H409  1  0.49517000  0.86110000  0.21353000  1
  H  H410  1  0.38049000  0.00935000  0.11730000  1
  H  H411  1  0.30239000  0.02196000  0.07464000  1
  H  H412  1  0.61307000  0.11997000  0.25879000  1
  H  H413  1  0.71655000  0.18346000  0.32433000  1
  H  H414  1  0.52348000  0.12595000  0.18544000  1
  H  H415  1  0.55097000  0.20129000  0.23855000  1
  H  H416  1  0.51417000  0.57035000  0.30523000  1
  H  H417  1  0.49503000  0.63387000  0.28166000  1
  H  H418  1  0.38043000  0.37102000  0.26294000  1
  H  H419  1  0.30219000  0.28036000  0.22743000  1
  H  H420  1  0.61288000  0.49282000  0.35432000  1
  H  H421  1  0.71635000  0.53303000  0.39213000  1
  H  H422  1  0.52282000  0.39708000  0.33786000  1
  H  H423  1  0.55076000  0.34955000  0.31249000  1
  H  H424  1  0.48566000  0.69465000  0.42970000  1
  H  H425  1  0.50478000  0.71823000  0.36617000  1
  H  H426  1  0.62008000  0.73690000  0.62896000  1
  H  H427  1  0.69796000  0.77250000  0.71971000  1
  H  H428  1  0.38735000  0.64569000  0.50715000  1
  H  H429  1  0.28387000  0.60775000  0.46709000  1
  H  H430  1  0.47709000  0.66211000  0.60245000  1
  H  H431  1  0.44923000  0.68757000  0.65001000  1
  H  H432  1  0.90970000  0.95487000  0.56164000  1
  H  H433  1  0.91014000  0.95505000  0.34815000  1
  H  H434  1  0.08992000  0.65184000  0.04490000  1
  H  H435  1  0.08988000  0.43804000  0.04485000  1
  H  H436  1  0.60694000  0.65184000  0.56193000  1
  H  H437  1  0.39319000  0.43804000  0.34816000  1
  H  H438  1  0.60690000  0.95505000  0.04492000  1
  H  H439  1  0.39324000  0.95487000  0.04517000  1
  H  H440  1  0.60698000  0.95515000  0.56200000  1
  H  H441  1  0.39316000  0.95515000  0.34817000  1
  H  H442  1  0.39320000  0.43829000  0.04510000  1
  H  H443  1  0.60694000  0.65183000  0.04490000  1
  H  H444  1  0.08986000  0.04494000  0.65185000  1
  H  H445  1  0.09030000  0.04513000  0.43836000  1
  H  H446  1  0.91008000  0.34815000  0.95510000  1
  H  H447  1  0.91011000  0.56195000  0.95514000  1
  H  H448  1  0.39306000  0.34816000  0.95510000  1
  H  H449  1  0.60681000  0.56171000  0.95490000  1
  H  H450  1  0.39301000  0.04484000  0.43800000  1
  H  H451  1  0.60684000  0.04484000  0.65183000  1
  H  H452  1  0.39309000  0.04494000  0.95508000  1
  H  H453  1  0.60677000  0.04513000  0.95483000  1
  H  H454  1  0.60681000  0.56195000  0.65184000  1
  H  H455  1  0.39305000  0.34815000  0.43807000  1
  H  H456  1  0.99991000  0.09965000  0.55618000  1
  H  H457  1  0.00010000  0.90035000  0.44382000  1
  H  H458  1  0.00003000  0.55649000  0.09956000  1
  H  H459  1  0.99998000  0.44351000  0.90044000  1
  H  H460  1  0.65598000  0.55641000  0.55645000  1
  H  H461  1  0.34402000  0.44358000  0.44354000  1
  H  H462  1  0.65589000  0.09974000  0.09965000  1
  H  H463  1  0.34412000  0.90026000  0.90035000  1
  H  H464  1  0.45700000  0.90046000  0.55649000  1
  H  H465  1  0.54301000  0.09954000  0.44351000  1
  H  H466  1  0.54347000  0.44383000  0.09974000  1
  H  H467  1  0.45654000  0.55617000  0.90026000  1
  H  H468  1  0.99990000  0.90025000  0.55614000  1
  H  H469  1  0.00010000  0.09974000  0.44385000  1
  H  H470  1  0.00004000  0.44358000  0.09956000  1
  H  H471  1  0.99996000  0.55641000  0.90044000  1
  H  H472  1  0.34409000  0.44383000  0.90037000  1
  H  H473  1  0.65591000  0.55617000  0.09963000  1
  H  H474  1  0.34398000  0.90046000  0.44346000  1
  H  H475  1  0.65603000  0.09954000  0.55654000  1
  H  H476  1  0.54347000  0.09965000  0.09974000  1
  H  H477  1  0.45653000  0.90035000  0.90025000  1
  H  H478  1  0.45694000  0.55649000  0.55646000  1
  H  H479  1  0.54307000  0.44351000  0.44353000  1
  H  H480  1  0.86965000  0.99235000  0.43473000  1
  H  H481  1  0.86965000  0.87729000  0.43478000  1
  H  H482  1  0.13082000  0.56538000  0.12265000  1
  H  H483  1  0.13046000  0.56524000  0.00778000  1
  H  H484  1  0.55746000  0.56524000  0.43478000  1
  H  H485  1  0.44273000  0.56538000  0.43456000  1
  H  H486  1  0.55763000  0.99235000  0.12270000  1
  H  H487  1  0.44251000  0.87729000  0.00764000  1
  H  H488  1  0.44276000  0.87735000  0.43460000  1
  H  H489  1  0.55745000  0.99222000  0.43477000  1
  H  H490  1  0.55766000  0.56523000  0.12275000  1
  H  H491  1  0.44248000  0.56523000  0.00757000  1
  H  H492  1  0.13036000  0.00765000  0.56527000  1
  H  H493  1  0.13034000  0.12270000  0.56522000  1
  H  H494  1  0.86954000  0.43475000  0.99222000  1
  H  H495  1  0.86917000  0.43461000  0.87735000  1
  H  H496  1  0.44234000  0.43477000  0.87725000  1
  H  H497  1  0.55751000  0.43476000  0.99243000  1
  H  H498  1  0.44255000  0.00777000  0.56523000  1
  H  H499  1  0.55725000  0.12265000  0.56540000  1
  H  H500  1  0.55749000  0.12270000  0.99236000  1
  H  H501  1  0.44238000  0.00765000  0.87729000  1
  H  H502  1  0.44253000  0.43475000  0.56522000  1
  H  H503  1  0.55726000  0.43461000  0.56544000  1
  H  H504  1  0.73707000  0.97472000  0.49946000  1
  H  H505  1  0.73714000  0.76236000  0.23770000  1
  H  H506  1  0.26311000  0.76264000  0.23731000  1
  H  H507  1  0.26282000  0.50053000  0.02524000  1
  H  H508  1  0.73709000  0.76230000  0.49947000  1
  H  H509  1  0.26314000  0.50048000  0.23734000  1
  H  H510  1  0.73708000  0.97474000  0.23766000  1
  H  H511  1  0.26283000  0.76230000  0.02521000  1
  H  H512  1  0.52534000  0.76264000  0.49953000  1
  H  H513  1  0.47527000  0.97472000  0.23766000  1
  H  H514  1  0.47529000  0.50053000  0.23771000  1
  H  H515  1  0.52467000  0.76236000  0.02522000  1
  H  H516  1  0.26291000  0.02525000  0.76234000  1
  H  H517  1  0.26291000  0.23770000  0.50053000  1
  H  H518  1  0.73717000  0.23770000  0.97479000  1
  H  H519  1  0.73685000  0.49951000  0.76266000  1
  H  H520  1  0.26285000  0.23763000  0.76230000  1
  H  H521  1  0.73718000  0.49946000  0.97476000  1
  H  H522  1  0.26294000  0.02528000  0.50054000  1
  H  H523  1  0.73689000  0.23736000  0.76269000  1
  H  H524  1  0.47533000  0.23763000  0.97478000  1
  H  H525  1  0.52474000  0.02528000  0.76234000  1
  H  H526  1  0.52471000  0.49946000  0.76228000  1
  H  H527  1  0.47466000  0.23735000  0.50047000  1
  C  C528  1  0.78243000  0.91273000  0.46673000  1
  C  C529  1  0.73411000  0.91051000  0.43033000  1
  C  C530  1  0.68590000  0.86430000  0.39478000  1
  C  C531  1  0.96965000  0.05681000  0.63235000  1
  C  C532  1  0.93866000  0.03243000  0.65212000  1
  C  C533  1  0.96994000  0.03970000  0.70276000  1
  C  C534  1  0.86359000  0.08464000  0.45325000  1
  C  C535  1  0.86152000  0.11993000  0.47416000  1
  C  C536  1  0.86030000  0.15529000  0.45145000  1
  C  C537  1  0.85098000  0.08360000  0.57554000  1
  C  C538  1  0.90765000  0.12577000  0.60272000  1
  C  C539  1  0.91961000  0.16755000  0.62925000  1
  C  C540  1  0.78283000  0.86988000  0.31581000  1
  C  C541  1  0.73452000  0.82375000  0.30393000  1
  C  C542  1  0.68635000  0.82180000  0.29131000  1
  C  C543  1  0.96954000  0.91280000  0.33733000  1
  C  C544  1  0.93839000  0.90615000  0.28656000  1
  C  C545  1  0.96957000  0.93006000  0.26709000  1
  C  C546  1  0.86374000  0.77901000  0.41030000  1
  C  C547  1  0.86189000  0.74176000  0.38742000  1
  C  C548  1  0.86046000  0.70508000  0.40880000  1
  C  C549  1  0.85102000  0.76741000  0.27552000  1
  C  C550  1  0.90771000  0.78200000  0.30499000  1
  C  C551  1  0.91963000  0.75214000  0.29043000  1
  C  C552  1  0.21724000  0.68423000  0.13015000  1
  C  C553  1  0.26551000  0.69611000  0.17631000  1
  C  C554  1  0.31375000  0.70878000  0.17832000  1
  C  C555  1  0.03036000  0.66288000  0.08697000  1
  C  C556  1  0.06135000  0.71361000  0.09350000  1
  C  C557  1  0.03016000  0.73307000  0.06963000  1
  C  C558  1  0.13656000  0.58980000  0.22083000  1
  C  C559  1  0.13843000  0.61270000  0.25807000  1
  C  C560  1  0.13966000  0.59120000  0.29463000  1
  C  C561  1  0.14921000  0.72477000  0.23229000  1
  C  C562  1  0.09254000  0.69520000  0.21776000  1
  C  C563  1  0.08067000  0.70970000  0.24770000  1
  C  C564  1  0.21729000  0.53304000  0.08714000  1
  C  C565  1  0.26565000  0.56946000  0.08939000  1
  C  C566  1  0.31385000  0.60501000  0.13564000  1
  C  C567  1  0.03044000  0.36751000  0.94330000  1
  C  C568  1  0.06148000  0.34777000  0.96763000  1
  C  C569  1  0.03030000  0.29715000  0.96047000  1
  C  C570  1  0.13645000  0.54670000  0.91546000  1
  C  C571  1  0.13840000  0.52570000  0.88012000  1
  C  C572  1  0.13976000  0.54850000  0.84487000  1
  C  C573  1  0.14888000  0.42435000  0.91643000  1
  C  C574  1  0.09216000  0.39706000  0.87434000  1
  C  C575  1  0.08022000  0.37066000  0.83250000  1
  C  C576  1  0.59711000  0.68426000  0.46694000  1
  C  C577  1  0.60677000  0.69618000  0.43051000  1
  C  C578  1  0.57318000  0.70883000  0.39497000  1
  C  C579  1  0.71962000  0.66292000  0.63247000  1
  C  C580  1  0.74609000  0.71372000  0.65223000  1
  C  C581  1  0.77269000  0.73316000  0.70285000  1
  C  C582  1  0.67426000  0.58973000  0.45328000  1
  C  C583  1  0.73252000  0.61268000  0.47428000  1
  C  C584  1  0.74636000  0.59124000  0.45148000  1
  C  C585  1  0.80809000  0.72452000  0.57565000  1
  C  C586  1  0.82075000  0.69508000  0.60293000  1
  C  C587  1  0.87704000  0.70955000  0.62933000  1
  C  C588  1  0.40286000  0.53299000  0.31577000  1
  C  C589  1  0.39311000  0.56941000  0.30390000  1
  C  C590  1  0.42666000  0.60497000  0.29123000  1
  C  C591  1  0.28053000  0.36750000  0.33715000  1
  C  C592  1  0.25427000  0.34776000  0.28641000  1
  C  C593  1  0.22747000  0.29710000  0.26694000  1
  C  C594  1  0.32596000  0.54677000  0.41021000  1
  C  C595  1  0.26770000  0.52572000  0.38731000  1
  C  C596  1  0.25384000  0.54844000  0.40881000  1
  C  C597  1  0.19216000  0.42444000  0.27523000  1
  C  C598  1  0.17957000  0.39733000  0.30479000  1
  C  C599  1  0.12328000  0.37098000  0.29030000  1
  C  C600  1  0.59712000  0.91292000  0.13010000  1
  C  C601  1  0.60682000  0.91076000  0.17622000  1
  C  C602  1  0.57322000  0.86454000  0.17818000  1
  C  C603  1  0.71940000  0.05673000  0.08719000  1
  C  C604  1  0.74566000  0.03222000  0.09383000  1
  C  C605  1  0.77241000  0.03949000  0.06992000  1
  C  C606  1  0.67440000  0.08470000  0.22096000  1
  C  C607  1  0.73266000  0.12009000  0.25819000  1
  C  C608  1  0.74655000  0.15536000  0.29488000  1
  C  C609  1  0.80807000  0.08358000  0.23257000  1
  C  C610  1  0.82072000  0.12570000  0.21800000  1
  C  C611  1  0.87704000  0.16747000  0.24786000  1
  C  C612  1  0.40296000  0.86968000  0.08728000  1
  C  C613  1  0.39328000  0.82358000  0.08950000  1
  C  C614  1  0.42683000  0.82159000  0.13571000  1
  C  C615  1  0.28051000  0.91284000  0.94319000  1
  C  C616  1  0.25411000  0.90622000  0.96756000  1
  C  C617  1  0.22747000  0.93023000  0.96030000  1
  C  C618  1  0.32571000  0.77895000  0.91537000  1
  C  C619  1  0.26746000  0.74162000  0.88009000  1
  C  C620  1  0.25357000  0.70502000  0.84472000  1
  C  C621  1  0.19183000  0.76738000  0.91637000  1
  C  C622  1  0.17916000  0.78189000  0.87421000  1
  C  C623  1  0.12282000  0.75206000  0.83245000  1
  C  C624  1  0.55409000  0.86986000  0.46701000  1
  C  C625  1  0.51980000  0.82369000  0.43059000  1
  C  C626  1  0.53045000  0.82167000  0.39502000  1
  C  C627  1  0.57593000  0.91303000  0.63252000  1
  C  C628  1  0.62011000  0.90648000  0.65224000  1
  C  C629  1  0.66343000  0.93035000  0.70290000  1
  C  C630  1  0.36896000  0.77917000  0.45323000  1
  C  C631  1  0.35462000  0.74194000  0.47426000  1
  C  C632  1  0.29657000  0.70538000  0.45154000  1
  C  C633  1  0.49249000  0.76773000  0.57557000  1
  C  C634  1  0.47746000  0.78227000  0.60270000  1
  C  C635  1  0.46201000  0.75232000  0.62905000  1
  C  C636  1  0.44589000  0.91286000  0.31575000  1
  C  C637  1  0.48007000  0.91060000  0.30382000  1
  C  C638  1  0.46937000  0.86435000  0.29117000  1
  C  C639  1  0.42418000  0.05668000  0.33705000  1
  C  C640  1  0.38012000  0.03234000  0.28626000  1
  C  C641  1  0.33668000  0.03952000  0.26684000  1
  C  C642  1  0.63125000  0.08453000  0.41027000  1
  C  C643  1  0.64557000  0.11984000  0.38733000  1
  C  C644  1  0.70363000  0.15511000  0.40875000  1
  C  C645  1  0.50790000  0.08355000  0.27548000  1
  C  C646  1  0.52271000  0.12567000  0.30492000  1
  C  C647  1  0.53815000  0.16750000  0.29046000  1
  C  C648  1  0.44598000  0.53324000  0.13028000  1
  C  C649  1  0.48017000  0.56968000  0.17639000  1
  C  C650  1  0.46953000  0.60524000  0.17841000  1
  C  C651  1  0.42448000  0.36767000  0.08717000  1
  C  C652  1  0.38034000  0.34791000  0.09379000  1
  C  C653  1  0.33696000  0.29726000  0.06978000  1
  C  C654  1  0.63142000  0.54675000  0.22107000  1
  C  C655  1  0.64578000  0.52584000  0.25840000  1
  C  C656  1  0.70383000  0.54855000  0.29498000  1
  C  C657  1  0.50808000  0.42444000  0.23261000  1
  C  C658  1  0.52307000  0.39725000  0.21810000  1
  C  C659  1  0.53831000  0.37073000  0.24793000  1
  C  C660  1  0.55409000  0.68418000  0.08706000  1
  C  C661  1  0.51985000  0.69606000  0.08925000  1
  C  C662  1  0.53049000  0.70868000  0.13547000  1
  C  C663  1  0.57548000  0.66267000  0.94328000  1
  C  C664  1  0.61961000  0.71346000  0.96779000  1
  C  C665  1  0.66298000  0.73291000  0.96050000  1
  C  C666  1  0.36871000  0.58970000  0.91526000  1
  C  C667  1  0.35435000  0.61257000  0.87988000  1
  C  C668  1  0.29630000  0.59119000  0.84463000  1
  C  C669  1  0.49189000  0.72446000  0.91638000  1
  C  C670  1  0.47701000  0.69499000  0.87426000  1
  C  C671  1  0.46170000  0.70954000  0.83250000  1
  C  C672  1  0.21717000  0.08707000  0.68419000  1
  C  C673  1  0.26546000  0.08924000  0.69606000  1
  C  C674  1  0.31364000  0.13546000  0.70868000  1
  C  C675  1  0.03046000  0.94327000  0.66266000  1
  C  C676  1  0.06161000  0.96778000  0.71344000  1
  C  C677  1  0.03043000  0.96050000  0.73291000  1
  C  C678  1  0.13626000  0.91529000  0.58970000  1
  C  C679  1  0.13810000  0.87991000  0.61257000  1
  C  C680  1  0.13952000  0.84464000  0.59119000  1
  C  C681  1  0.14899000  0.91641000  0.72449000  1
  C  C682  1  0.09230000  0.87429000  0.69502000  1
  C  C683  1  0.08038000  0.83252000  0.70956000  1
  C  C684  1  0.21759000  0.13031000  0.53327000  1
  C  C685  1  0.26593000  0.17642000  0.56970000  1
  C  C686  1  0.31412000  0.17841000  0.60524000  1
  C  C687  1  0.03035000  0.08716000  0.36767000  1
  C  C688  1  0.06134000  0.09378000  0.34789000  1
  C  C689  1  0.03007000  0.06977000  0.29724000  1
  C  C690  1  0.13641000  0.22104000  0.54676000  1
  C  C691  1  0.13847000  0.25838000  0.52584000  1
  C  C692  1  0.13971000  0.29498000  0.54855000  1
  C  C693  1  0.14899000  0.23262000  0.42445000  1
  C  C694  1  0.09233000  0.21811000  0.39727000  1
  C  C695  1  0.08038000  0.24793000  0.37076000  1
  C  C696  1  0.78268000  0.31574000  0.91284000  1
  C  C697  1  0.73433000  0.30382000  0.91059000  1
  C  C698  1  0.68614000  0.29117000  0.86435000  1
  C  C699  1  0.96955000  0.33707000  0.05670000  1
  C  C700  1  0.93851000  0.28627000  0.03236000  1
  C  C701  1  0.96970000  0.26684000  0.03953000  1
  C  C702  1  0.86356000  0.41027000  0.08452000  1
  C  C703  1  0.86160000  0.38732000  0.11984000  1
  C  C704  1  0.86024000  0.40875000  0.15511000  1
  C  C705  1  0.85114000  0.27548000  0.08357000  1
  C  C706  1  0.90786000  0.30492000  0.12566000  1
  C  C707  1  0.91978000  0.29045000  0.16749000  1
  C  C708  1  0.78277000  0.46700000  0.86986000  1
  C  C709  1  0.73449000  0.43059000  0.82369000  1
  C  C710  1  0.68626000  0.39503000  0.82168000  1
  C  C711  1  0.96965000  0.63250000  0.91303000  1
  C  C712  1  0.93864000  0.65223000  0.90651000  1
  C  C713  1  0.96984000  0.70290000  0.93036000  1
  C  C714  1  0.86344000  0.45323000  0.77918000  1
  C  C715  1  0.86160000  0.47428000  0.74198000  1
  C  C716  1  0.86036000  0.45155000  0.70540000  1
  C  C717  1  0.85078000  0.57555000  0.76771000  1
  C  C718  1  0.90746000  0.60267000  0.78224000  1
  C  C719  1  0.91932000  0.62902000  0.75230000  1
  C  C720  1  0.40287000  0.31581000  0.86991000  1
  C  C721  1  0.39318000  0.30393000  0.82378000  1
  C  C722  1  0.42678000  0.29131000  0.82181000  1
  C  C723  1  0.28060000  0.33732000  0.91280000  1
  C  C724  1  0.25433000  0.28654000  0.90615000  1
  C  C725  1  0.22759000  0.26709000  0.93006000  1
  C  C726  1  0.32556000  0.41030000  0.77901000  1
  C  C727  1  0.26731000  0.38743000  0.74177000  1
  C  C728  1  0.25345000  0.40881000  0.70510000  1
  C  C729  1  0.19192000  0.27553000  0.76743000  1
  C  C730  1  0.17927000  0.30501000  0.78202000  1
  C  C731  1  0.12295000  0.29045000  0.75215000  1
  C  C732  1  0.59704000  0.46675000  0.91273000  1
  C  C733  1  0.60671000  0.43032000  0.91049000  1
  C  C734  1  0.57317000  0.39476000  0.86429000  1
  C  C735  1  0.71950000  0.63233000  0.05681000  1
  C  C736  1  0.74588000  0.65208000  0.03242000  1
  C  C737  1  0.77252000  0.70274000  0.03969000  1
  C  C738  1  0.67431000  0.45324000  0.08466000  1
  C  C739  1  0.73256000  0.47416000  0.11994000  1
  C  C740  1  0.74643000  0.45145000  0.15528000  1
  C  C741  1  0.80816000  0.57555000  0.08364000  1
  C  C742  1  0.82085000  0.60275000  0.12581000  1
  C  C743  1  0.87719000  0.62926000  0.16757000  1
  C  C744  1  0.40290000  0.08714000  0.53303000  1
  C  C745  1  0.39322000  0.08940000  0.56946000  1
  C  C746  1  0.42681000  0.13564000  0.60502000  1
  C  C747  1  0.28036000  0.94331000  0.36750000  1
  C  C748  1  0.25391000  0.96765000  0.34777000  1
  C  C749  1  0.22732000  0.96047000  0.29715000  1
  C  C750  1  0.32574000  0.91547000  0.54671000  1
  C  C751  1  0.26748000  0.88015000  0.52573000  1
  C  C752  1  0.25364000  0.84489000  0.54852000  1
  C  C753  1  0.19193000  0.91644000  0.42435000  1
  C  C754  1  0.17925000  0.87433000  0.39704000  1
  C  C755  1  0.12296000  0.83250000  0.37065000  1
  C  C756  1  0.59716000  0.13014000  0.68423000  1
  C  C757  1  0.60691000  0.17631000  0.69611000  1
  C  C758  1  0.57335000  0.17832000  0.70878000  1
  C  C759  1  0.71950000  0.08697000  0.66290000  1
  C  C760  1  0.74575000  0.09351000  0.71363000  1
  C  C761  1  0.77255000  0.06965000  0.73307000  1
  C  C762  1  0.67406000  0.22083000  0.58979000  1
  C  C763  1  0.73231000  0.25805000  0.61268000  1
  C  C764  1  0.74616000  0.29462000  0.59119000  1
  C  C765  1  0.80784000  0.23227000  0.72476000  1
  C  C766  1  0.82043000  0.21773000  0.69519000  1
  C  C767  1  0.87673000  0.24768000  0.70969000  1
  C  C768  1  0.44592000  0.13011000  0.91294000  1
  C  C769  1  0.48017000  0.17624000  0.91077000  1
  C  C770  1  0.46951000  0.17820000  0.86455000  1
  C  C771  1  0.42452000  0.08719000  0.05673000  1
  C  C772  1  0.38040000  0.09384000  0.03223000  1
  C  C773  1  0.33703000  0.06993000  0.03950000  1
  C  C774  1  0.63128000  0.22098000  0.08473000  1
  C  C775  1  0.64567000  0.25824000  0.12013000  1
  C  C776  1  0.70372000  0.29491000  0.15538000  1
  C  C777  1  0.50810000  0.23258000  0.08360000  1
  C  C778  1  0.52298000  0.21799000  0.12571000  1
  C  C779  1  0.53830000  0.24786000  0.16748000  1
  C  C780  1  0.55400000  0.08727000  0.86969000  1
  C  C781  1  0.51982000  0.08949000  0.82359000  1
  C  C782  1  0.53048000  0.13570000  0.82160000  1
  C  C783  1  0.57553000  0.94318000  0.91283000  1
  C  C784  1  0.61968000  0.96756000  0.90622000  1
  C  C785  1  0.66306000  0.96030000  0.93023000  1
  C  C786  1  0.36861000  0.91536000  0.77895000  1
  C  C787  1  0.35422000  0.88006000  0.74159000  1
  C  C788  1  0.29616000  0.84471000  0.70501000  1
  C  C789  1  0.49193000  0.91639000  0.76737000  1
  C  C790  1  0.47695000  0.87423000  0.78188000  1
  C  C791  1  0.46170000  0.83245000  0.75205000  1
  C  C792  1  0.55409000  0.46695000  0.68425000  1
  C  C793  1  0.51992000  0.43053000  0.69619000  1
  C  C794  1  0.53062000  0.39498000  0.70883000  1
  C  C795  1  0.57579000  0.63249000  0.66293000  1
  C  C796  1  0.61985000  0.65222000  0.71371000  1
  C  C797  1  0.66331000  0.70284000  0.73315000  1
  C  C798  1  0.36876000  0.45330000  0.58975000  1
  C  C799  1  0.35442000  0.47429000  0.61269000  1
  C  C800  1  0.29637000  0.45150000  0.59126000  1
  C  C801  1  0.49209000  0.57565000  0.72453000  1
  C  C802  1  0.47728000  0.60293000  0.69509000  1
  C  C803  1  0.46185000  0.62934000  0.70956000  1
  C  C804  1  0.44592000  0.31577000  0.53301000  1
  C  C805  1  0.48021000  0.30389000  0.56940000  1
  C  C806  1  0.46954000  0.29122000  0.60496000  1
  C  C807  1  0.42410000  0.33712000  0.36748000  1
  C  C808  1  0.37988000  0.28638000  0.34774000  1
  C  C809  1  0.33656000  0.26692000  0.29708000  1
  C  C810  1  0.63103000  0.41020000  0.54676000  1
  C  C811  1  0.64537000  0.38730000  0.52572000  1
  C  C812  1  0.70343000  0.40880000  0.54845000  1
  C  C813  1  0.50751000  0.27522000  0.42444000  1
  C  C814  1  0.52255000  0.30479000  0.39733000  1
  C  C815  1  0.53800000  0.29029000  0.37097000  1
  C  C816  1  0.21758000  0.08727000  0.53327000  1
  C  C817  1  0.26590000  0.08949000  0.56967000  1
  C  C818  1  0.31411000  0.13570000  0.60522000  1
  C  C819  1  0.03035000  0.94318000  0.36765000  1
  C  C820  1  0.06134000  0.96756000  0.34788000  1
  C  C821  1  0.03007000  0.96030000  0.29724000  1
  C  C822  1  0.13641000  0.91535000  0.54675000  1
  C  C823  1  0.13847000  0.88006000  0.52584000  1
  C  C824  1  0.13970000  0.84471000  0.54855000  1
  C  C825  1  0.14902000  0.91639000  0.42446000  1
  C  C826  1  0.09235000  0.87423000  0.39728000  1
  C  C827  1  0.08040000  0.83245000  0.37075000  1
  C  C828  1  0.21717000  0.13011000  0.68419000  1
  C  C829  1  0.26547000  0.17624000  0.69607000  1
  C  C830  1  0.31365000  0.17820000  0.70869000  1
  C  C831  1  0.03046000  0.08719000  0.66267000  1
  C  C832  1  0.06161000  0.09384000  0.71344000  1
  C  C833  1  0.03043000  0.06993000  0.73291000  1
  C  C834  1  0.13626000  0.22098000  0.58970000  1
  C  C835  1  0.13811000  0.25824000  0.61257000  1
  C  C836  1  0.13953000  0.29491000  0.59119000  1
  C  C837  1  0.14898000  0.23258000  0.72448000  1
  C  C838  1  0.09229000  0.21800000  0.69501000  1
  C  C839  1  0.08038000  0.24786000  0.70957000  1
  C  C840  1  0.78276000  0.31577000  0.86985000  1
  C  C841  1  0.73449000  0.30389000  0.82368000  1
  C  C842  1  0.68626000  0.29122000  0.82168000  1
  C  C843  1  0.96964000  0.33712000  0.91303000  1
  C  C844  1  0.93864000  0.28638000  0.90650000  1
  C  C845  1  0.96985000  0.26693000  0.93036000  1
  C  C846  1  0.86344000  0.41020000  0.77917000  1
  C  C847  1  0.86158000  0.38730000  0.74193000  1
  C  C848  1  0.86035000  0.40880000  0.70537000  1
  C  C849  1  0.85078000  0.27522000  0.76771000  1
  C  C850  1  0.90746000  0.30479000  0.78224000  1
  C  C851  1  0.91932000  0.29029000  0.75229000  1
  C  C852  1  0.78270000  0.46695000  0.91286000  1
  C  C853  1  0.73434000  0.43053000  0.91061000  1
  C  C854  1  0.68615000  0.39498000  0.86436000  1
  C  C855  1  0.96956000  0.63249000  0.05670000  1
  C  C856  1  0.93851000  0.65222000  0.03237000  1
  C  C857  1  0.96969000  0.70284000  0.03953000  1
  C  C858  1  0.86355000  0.45330000  0.08454000  1
  C  C859  1  0.86160000  0.47429000  0.11987000  1
  C  C860  1  0.86023000  0.45149000  0.15513000  1
  C  C861  1  0.85112000  0.57565000  0.08356000  1
  C  C862  1  0.90784000  0.60293000  0.12566000  1
  C  C863  1  0.91978000  0.62934000  0.16749000  1
  C  C864  1  0.40290000  0.31574000  0.53306000  1
  C  C865  1  0.39322000  0.30381000  0.56949000  1
  C  C866  1  0.42682000  0.29117000  0.60503000  1
  C  C867  1  0.28038000  0.33707000  0.36753000  1
  C  C868  1  0.25392000  0.28628000  0.34777000  1
  C  C869  1  0.22731000  0.26684000  0.29715000  1
  C  C870  1  0.32575000  0.41027000  0.54672000  1
  C  C871  1  0.26749000  0.38732000  0.52572000  1
  C  C872  1  0.25364000  0.40875000  0.54852000  1
  C  C873  1  0.19191000  0.27548000  0.42435000  1
  C  C874  1  0.17926000  0.30492000  0.39706000  1
  C  C875  1  0.12297000  0.29045000  0.37067000  1
  C  C876  1  0.59714000  0.46700000  0.68423000  1
  C  C877  1  0.60690000  0.43059000  0.69610000  1
  C  C878  1  0.57335000  0.39503000  0.70877000  1
  C  C879  1  0.71947000  0.63250000  0.66285000  1
  C  C880  1  0.74573000  0.65223000  0.71359000  1
  C  C881  1  0.77254000  0.70290000  0.73306000  1
  C  C882  1  0.67405000  0.45323000  0.58979000  1
  C  C883  1  0.73230000  0.47428000  0.61268000  1
  C  C884  1  0.74615000  0.45155000  0.59119000  1
  C  C885  1  0.80784000  0.57555000  0.72477000  1
  C  C886  1  0.82043000  0.60267000  0.69521000  1
  C  C887  1  0.87672000  0.62902000  0.70970000  1
  C  C888  1  0.40288000  0.08707000  0.86990000  1
  C  C889  1  0.39318000  0.08924000  0.82378000  1
  C  C890  1  0.42678000  0.13546000  0.82182000  1
  C  C891  1  0.28061000  0.94327000  0.91281000  1
  C  C892  1  0.25434000  0.96778000  0.90617000  1
  C  C893  1  0.22759000  0.96050000  0.93008000  1
  C  C894  1  0.32559000  0.91529000  0.77904000  1
  C  C895  1  0.26734000  0.87991000  0.74181000  1
  C  C896  1  0.25345000  0.84464000  0.70512000  1
  C  C897  1  0.19192000  0.91641000  0.76743000  1
  C  C898  1  0.17927000  0.87429000  0.78200000  1
  C  C899  1  0.12296000  0.83252000  0.75214000  1
  C  C900  1  0.59704000  0.13031000  0.91272000  1
  C  C901  1  0.60672000  0.17642000  0.91050000  1
  C  C902  1  0.57317000  0.17841000  0.86429000  1
  C  C903  1  0.71950000  0.08716000  0.05681000  1
  C  C904  1  0.74590000  0.09378000  0.03244000  1
  C  C905  1  0.77254000  0.06977000  0.03970000  1
  C  C906  1  0.67429000  0.22104000  0.08463000  1
  C  C907  1  0.73254000  0.25838000  0.11991000  1
  C  C908  1  0.74642000  0.29497000  0.15528000  1
  C  C909  1  0.80817000  0.23262000  0.08363000  1
  C  C910  1  0.82084000  0.21811000  0.12579000  1
  C  C911  1  0.87718000  0.24793000  0.16755000  1
  C  C912  1  0.44591000  0.13013000  0.53298000  1
  C  C913  1  0.48020000  0.17631000  0.56940000  1
  C  C914  1  0.46954000  0.17832000  0.60498000  1
  C  C915  1  0.42408000  0.08697000  0.36747000  1
  C  C916  1  0.37988000  0.09351000  0.34776000  1
  C  C917  1  0.33658000  0.06965000  0.29710000  1
  C  C918  1  0.63105000  0.22083000  0.54677000  1
  C  C919  1  0.64538000  0.25805000  0.52574000  1
  C  C920  1  0.70343000  0.29462000  0.54846000  1
  C  C921  1  0.50751000  0.23226000  0.42443000  1
  C  C922  1  0.52254000  0.21773000  0.39730000  1
  C  C923  1  0.53799000  0.24768000  0.37095000  1
  C  C924  1  0.55411000  0.08714000  0.68425000  1
  C  C925  1  0.51994000  0.08940000  0.69618000  1
  C  C926  1  0.53062000  0.13564000  0.70883000  1
  C  C927  1  0.57581000  0.94331000  0.66295000  1
  C  C928  1  0.61989000  0.96766000  0.71374000  1
  C  C929  1  0.66332000  0.96047000  0.73316000  1
  C  C930  1  0.36876000  0.91547000  0.58973000  1
  C  C931  1  0.35442000  0.88015000  0.61267000  1
  C  C932  1  0.29637000  0.84489000  0.59125000  1
  C  C933  1  0.49210000  0.91644000  0.72452000  1
  C  C934  1  0.47730000  0.87433000  0.69508000  1
  C  C935  1  0.46186000  0.83250000  0.70954000  1
  C  C936  1  0.55402000  0.46675000  0.86972000  1
  C  C937  1  0.51983000  0.43032000  0.82361000  1
  C  C938  1  0.53047000  0.39476000  0.82159000  1
  C  C939  1  0.57552000  0.63233000  0.91283000  1
  C  C940  1  0.61967000  0.65209000  0.90621000  1
  C  C941  1  0.66305000  0.70274000  0.93022000  1
  C  C942  1  0.36858000  0.45324000  0.77893000  1
  C  C943  1  0.35422000  0.47416000  0.74160000  1
  C  C944  1  0.29617000  0.45145000  0.70502000  1
  C  C945  1  0.49191000  0.57555000  0.76739000  1
  C  C946  1  0.47694000  0.60275000  0.78190000  1
  C  C947  1  0.46169000  0.62926000  0.75207000  1
  C  C948  1  0.44590000  0.31581000  0.91294000  1
  C  C949  1  0.48015000  0.30393000  0.91075000  1
  C  C950  1  0.46950000  0.29131000  0.86453000  1
  C  C951  1  0.42452000  0.33732000  0.05672000  1
  C  C952  1  0.38039000  0.28654000  0.03221000  1
  C  C953  1  0.33703000  0.26709000  0.03950000  1
  C  C954  1  0.63130000  0.41030000  0.08474000  1
  C  C955  1  0.64566000  0.38743000  0.12012000  1
  C  C956  1  0.70371000  0.40881000  0.15537000  1
  C  C957  1  0.50810000  0.27553000  0.08362000  1
  C  C958  1  0.52300000  0.30501000  0.12574000  1
  C  C959  1  0.53830000  0.29045000  0.16750000  1
  C  C960  1  0.78283000  0.91292000  0.31580000  1
  C  C961  1  0.73454000  0.91076000  0.30394000  1
  C  C962  1  0.68636000  0.86454000  0.29132000  1
  C  C963  1  0.96954000  0.05673000  0.33734000  1
  C  C964  1  0.93839000  0.03222000  0.28656000  1
  C  C965  1  0.96957000  0.03949000  0.26709000  1
  C  C966  1  0.86374000  0.08470000  0.41030000  1
  C  C967  1  0.86190000  0.12009000  0.38743000  1
  C  C968  1  0.86048000  0.15536000  0.40881000  1
  C  C969  1  0.85101000  0.08358000  0.27551000  1
  C  C970  1  0.90770000  0.12570000  0.30498000  1
  C  C971  1  0.91961000  0.16747000  0.29044000  1
  C  C972  1  0.78240000  0.86968000  0.46673000  1
  C  C973  1  0.73408000  0.82358000  0.43030000  1
  C  C974  1  0.68589000  0.82159000  0.39476000  1
  C  C975  1  0.96966000  0.91284000  0.63233000  1
  C  C976  1  0.93866000  0.90622000  0.65211000  1
  C  C977  1  0.96993000  0.93023000  0.70276000  1
  C  C978  1  0.86359000  0.77895000  0.45324000  1
  C  C979  1  0.86153000  0.74162000  0.47416000  1
  C  C980  1  0.86030000  0.70502000  0.45145000  1
  C  C981  1  0.85101000  0.76738000  0.57555000  1
  C  C982  1  0.90768000  0.78189000  0.60273000  1
  C  C983  1  0.91961000  0.75206000  0.62924000  1
  C  C984  1  0.21733000  0.68426000  0.08716000  1
  C  C985  1  0.26568000  0.69618000  0.08941000  1
  C  C986  1  0.31386000  0.70882000  0.13565000  1
  C  C987  1  0.03045000  0.66292000  0.94330000  1
  C  C988  1  0.06149000  0.71372000  0.96763000  1
  C  C989  1  0.03031000  0.73316000  0.96047000  1
  C  C990  1  0.13645000  0.58973000  0.91547000  1
  C  C991  1  0.13840000  0.61268000  0.88016000  1
  C  C992  1  0.13976000  0.59124000  0.84489000  1
  C  C993  1  0.14887000  0.72452000  0.91643000  1
  C  C994  1  0.09215000  0.69508000  0.87433000  1
  C  C995  1  0.08022000  0.70955000  0.83251000  1
  C  C996  1  0.21723000  0.53299000  0.13014000  1
  C  C997  1  0.26552000  0.56941000  0.17630000  1
  C  C998  1  0.31374000  0.60497000  0.17831000  1
  C  C999  1  0.03034000  0.36749000  0.08697000  1
  C  C1000  1  0.06135000  0.34776000  0.09349000  1
  C  C1001  1  0.03015000  0.29709000  0.06963000  1
  C  C1002  1  0.13655000  0.54676000  0.22082000  1
  C  C1003  1  0.13840000  0.52571000  0.25802000  1
  C  C1004  1  0.13963000  0.54844000  0.29460000  1
  C  C1005  1  0.14922000  0.42444000  0.23228000  1
  C  C1006  1  0.09254000  0.39733000  0.21776000  1
  C  C1007  1  0.08068000  0.37098000  0.24770000  1
  C  C1008  1  0.59712000  0.68418000  0.13009000  1
  C  C1009  1  0.60681000  0.69606000  0.17621000  1
  C  C1010  1  0.57321000  0.70868000  0.17819000  1
  C  C1011  1  0.71940000  0.66267000  0.08720000  1
  C  C1012  1  0.74567000  0.71345000  0.09385000  1
  C  C1013  1  0.77241000  0.73291000  0.06993000  1
  C  C1014  1  0.67444000  0.58969000  0.22099000  1
  C  C1015  1  0.73270000  0.61257000  0.25822000  1
  C  C1016  1  0.74656000  0.59119000  0.29489000  1
  C  C1017  1  0.80808000  0.72446000  0.23257000  1
  C  C1018  1  0.82073000  0.69499000  0.21798000  1
  C  C1019  1  0.87704000  0.70954000  0.24784000  1
  C  C1020  1  0.40296000  0.53324000  0.08726000  1
  C  C1021  1  0.39330000  0.56968000  0.08951000  1
  C  C1022  1  0.42684000  0.60524000  0.13571000  1
  C  C1023  1  0.28050000  0.36767000  0.94319000  1
  C  C1024  1  0.25412000  0.34791000  0.96758000  1
  C  C1025  1  0.22748000  0.29726000  0.96030000  1
  C  C1026  1  0.32568000  0.54675000  0.91533000  1
  C  C1027  1  0.26744000  0.52584000  0.88006000  1
  C  C1028  1  0.25357000  0.54855000  0.84472000  1
  C  C1029  1  0.19183000  0.42444000  0.91636000  1
  C  C1030  1  0.17915000  0.39725000  0.87418000  1
  C  C1031  1  0.12280000  0.37073000  0.83242000  1
  C  C1032  1  0.59711000  0.91286000  0.46697000  1
  C  C1033  1  0.60678000  0.91060000  0.43054000  1
  C  C1034  1  0.57318000  0.86435000  0.39498000  1
  C  C1035  1  0.71964000  0.05668000  0.63250000  1
  C  C1036  1  0.74608000  0.03234000  0.65222000  1
  C  C1037  1  0.77268000  0.03952000  0.70285000  1
  C  C1038  1  0.67427000  0.08453000  0.45329000  1
  C  C1039  1  0.73252000  0.11985000  0.47427000  1
  C  C1040  1  0.74636000  0.15511000  0.45148000  1
  C  C1041  1  0.80807000  0.08355000  0.57565000  1
  C  C1042  1  0.82075000  0.12567000  0.60296000  1
  C  C1043  1  0.87705000  0.16750000  0.62935000  1
  C  C1044  1  0.40285000  0.86986000  0.31577000  1
  C  C1045  1  0.39310000  0.82369000  0.30389000  1
  C  C1046  1  0.42665000  0.82167000  0.29122000  1
  C  C1047  1  0.28050000  0.91302000  0.33710000  1
  C  C1048  1  0.25424000  0.90648000  0.28637000  1
  C  C1049  1  0.22745000  0.93035000  0.26692000  1
  C  C1050  1  0.32594000  0.77917000  0.41021000  1
  C  C1051  1  0.26768000  0.74194000  0.38732000  1
  C  C1052  1  0.25384000  0.70538000  0.40881000  1
  C  C1053  1  0.19217000  0.76773000  0.27524000  1
  C  C1054  1  0.17957000  0.78227000  0.30481000  1
  C  C1055  1  0.12328000  0.75232000  0.29031000  1
  C  C1056  1  0.55407000  0.86988000  0.08706000  1
  C  C1057  1  0.51982000  0.82375000  0.08923000  1
  C  C1058  1  0.53049000  0.82180000  0.13545000  1
  C  C1059  1  0.57547000  0.91280000  0.94327000  1
  C  C1060  1  0.61959000  0.90615000  0.96777000  1
  C  C1061  1  0.66297000  0.93006000  0.96050000  1
  C  C1062  1  0.36872000  0.77902000  0.91527000  1
  C  C1063  1  0.35434000  0.74176000  0.87987000  1
  C  C1064  1  0.29628000  0.70508000  0.84462000  1
  C  C1065  1  0.49190000  0.76742000  0.91639000  1
  C  C1066  1  0.47701000  0.78200000  0.87429000  1
  C  C1067  1  0.46171000  0.75214000  0.83252000  1
  C  C1068  1  0.44599000  0.91272000  0.13031000  1
  C  C1069  1  0.48018000  0.91051000  0.17640000  1
  C  C1070  1  0.46952000  0.86430000  0.17840000  1
  C  C1071  1  0.42447000  0.05681000  0.08716000  1
  C  C1072  1  0.38031000  0.03243000  0.09377000  1
  C  C1073  1  0.33694000  0.03970000  0.06976000  1
  C  C1074  1  0.63140000  0.08464000  0.22105000  1
  C  C1075  1  0.64578000  0.11993000  0.25841000  1
  C  C1076  1  0.70384000  0.15529000  0.29499000  1
  C  C1077  1  0.50806000  0.08360000  0.23262000  1
  C  C1078  1  0.52306000  0.12577000  0.21812000  1
  C  C1079  1  0.53830000  0.16755000  0.24795000  1
  C  C1080  1  0.44590000  0.53304000  0.31575000  1
  C  C1081  1  0.48007000  0.56946000  0.30381000  1
  C  C1082  1  0.46938000  0.60501000  0.29117000  1
  C  C1083  1  0.42422000  0.36751000  0.33707000  1
  C  C1084  1  0.38014000  0.34777000  0.28629000  1
  C  C1085  1  0.33669000  0.29715000  0.26685000  1
  C  C1086  1  0.63123000  0.54669000  0.41025000  1
  C  C1087  1  0.64558000  0.52570000  0.38730000  1
  C  C1088  1  0.70364000  0.54850000  0.40874000  1
  C  C1089  1  0.50792000  0.42435000  0.27547000  1
  C  C1090  1  0.52272000  0.39706000  0.30490000  1
  C  C1091  1  0.53816000  0.37066000  0.29044000  1
  C  C1092  1  0.55408000  0.68423000  0.46699000  1
  C  C1093  1  0.51980000  0.69611000  0.43060000  1
  C  C1094  1  0.53046000  0.70878000  0.39503000  1
  C  C1095  1  0.57591000  0.66288000  0.63252000  1
  C  C1096  1  0.62013000  0.71362000  0.65226000  1
  C  C1097  1  0.66344000  0.73307000  0.70292000  1
  C  C1098  1  0.36897000  0.58980000  0.45324000  1
  C  C1099  1  0.35463000  0.61270000  0.47428000  1
  C  C1100  1  0.29658000  0.59120000  0.45155000  1
  C  C1101  1  0.49250000  0.72478000  0.57556000  1
  C  C1102  1  0.47745000  0.69520000  0.60267000  1
  C  C1103  1  0.46200000  0.70970000  0.62903000  1
  C  C1104  1  0.86585000  0.93293000  0.52877000  1
  C  C1105  1  0.86629000  0.93313000  0.33718000  1
  C  C1106  1  0.13379000  0.66284000  0.06680000  1
  C  C1107  1  0.13376000  0.47092000  0.06678000  1
  C  C1108  1  0.59604000  0.66284000  0.52905000  1
  C  C1109  1  0.40414000  0.47092000  0.33716000  1
  C  C1110  1  0.59595000  0.93313000  0.06685000  1
  C  C1111  1  0.40416000  0.93293000  0.06708000  1
  C  C1112  1  0.59606000  0.93323000  0.52910000  1
  C  C1113  1  0.40413000  0.93323000  0.33718000  1
  C  C1114  1  0.40414000  0.47117000  0.06703000  1
  C  C1115  1  0.59597000  0.66280000  0.06683000  1
  C  C1116  1  0.13371000  0.06686000  0.66282000  1
  C  C1117  1  0.13414000  0.06706000  0.47122000  1
  C  C1118  1  0.86621000  0.33716000  0.93319000  1
  C  C1119  1  0.86623000  0.52907000  0.93322000  1
  C  C1120  1  0.40403000  0.33720000  0.93317000  1
  C  C1121  1  0.59586000  0.52883000  0.93297000  1
  C  C1122  1  0.40395000  0.06677000  0.47090000  1
  C  C1123  1  0.59587000  0.06677000  0.66282000  1
  C  C1124  1  0.40404000  0.06686000  0.93315000  1
  C  C1125  1  0.59584000  0.06706000  0.93292000  1
  C  C1126  1  0.59585000  0.52907000  0.66284000  1
  C  C1127  1  0.40397000  0.33716000  0.47095000  1
  C  C1128  1  0.99991000  0.08945000  0.58745000  1
  C  C1129  1  0.00009000  0.91054000  0.41255000  1
  C  C1130  1  0.00002000  0.58774000  0.08936000  1
  C  C1131  1  0.99998000  0.41226000  0.91064000  1
  C  C1132  1  0.67706000  0.58769000  0.58771000  1
  C  C1133  1  0.32295000  0.41231000  0.41229000  1
  C  C1134  1  0.67697000  0.08954000  0.08946000  1
  C  C1135  1  0.32303000  0.91045000  0.91054000  1
  C  C1136  1  0.49843000  0.91065000  0.58775000  1
  C  C1137  1  0.50158000  0.08935000  0.41225000  1
  C  C1138  1  0.50201000  0.41255000  0.08954000  1
  C  C1139  1  0.49799000  0.58744000  0.91046000  1
  C  C1140  1  0.99991000  0.91045000  0.58742000  1
  C  C1141  1  0.00008000  0.08954000  0.41257000  1
  C  C1142  1  0.00002000  0.41231000  0.08936000  1
  C  C1143  1  0.99998000  0.58769000  0.91063000  1
  C  C1144  1  0.32302000  0.41256000  0.91055000  1
  C  C1145  1  0.67699000  0.58744000  0.08945000  1
  C  C1146  1  0.32291000  0.91065000  0.41223000  1
  C  C1147  1  0.67710000  0.08935000  0.58777000  1
  C  C1148  1  0.50200000  0.08945000  0.08954000  1
  C  C1149  1  0.49799000  0.91054000  0.91045000  1
  C  C1150  1  0.49838000  0.58774000  0.58772000  1
  C  C1151  1  0.50162000  0.41226000  0.41228000  1
  C  C1152  1  0.86799000  0.02440000  0.43393000  1
  C  C1153  1  0.86800000  0.84358000  0.43395000  1
  C  C1154  1  0.13233000  0.56615000  0.15628000  1
  C  C1155  1  0.13210000  0.56605000  0.97572000  1
  C  C1156  1  0.59033000  0.56604000  0.43395000  1
  C  C1157  1  0.40987000  0.56615000  0.43382000  1
  C  C1158  1  0.59047000  0.02440000  0.15641000  1
  C  C1159  1  0.40963000  0.84358000  0.97558000  1
  C  C1160  1  0.40987000  0.84371000  0.43384000  1
  C  C1161  1  0.59033000  0.02428000  0.43396000  1
  C  C1162  1  0.59052000  0.56605000  0.15645000  1
  C  C1163  1  0.40960000  0.56605000  0.97553000  1
  C  C1164  1  0.13201000  0.97559000  0.56607000  1
  C  C1165  1  0.13200000  0.15641000  0.56605000  1
  C  C1166  1  0.86791000  0.43395000  0.02428000  1
  C  C1167  1  0.86767000  0.43384000  0.84371000  1
  C  C1168  1  0.40949000  0.43395000  0.84355000  1
  C  C1169  1  0.59041000  0.43395000  0.02446000  1
  C  C1170  1  0.40967000  0.97571000  0.56604000  1
  C  C1171  1  0.59013000  0.15629000  0.56616000  1
  C  C1172  1  0.59037000  0.15641000  0.02441000  1
  C  C1173  1  0.40952000  0.97559000  0.84359000  1
  C  C1174  1  0.40967000  0.43395000  0.56605000  1
  C  C1175  1  0.59013000  0.43384000  0.56617000  1
  C  C1176  1  0.76893000  0.01232000  0.52559000  1
  C  C1177  1  0.76898000  0.75660000  0.24343000  1
  C  C1178  1  0.23127000  0.75689000  0.24309000  1
  C  C1179  1  0.23098000  0.47440000  0.98765000  1
  C  C1180  1  0.76895000  0.75658000  0.52561000  1
  C  C1181  1  0.23129000  0.47439000  0.24310000  1
  C  C1182  1  0.76895000  0.01235000  0.24341000  1
  C  C1183  1  0.23097000  0.75658000  0.98763000  1
  C  C1184  1  0.51380000  0.75689000  0.52562000  1
  C  C1185  1  0.48673000  0.01232000  0.24340000  1
  C  C1186  1  0.48675000  0.47440000  0.24342000  1
  C  C1187  1  0.51317000  0.75660000  0.98762000  1
  C  C1188  1  0.23106000  0.98765000  0.75659000  1
  C  C1189  1  0.23104000  0.24341000  0.47439000  1
  C  C1190  1  0.76902000  0.24341000  0.01237000  1
  C  C1191  1  0.76871000  0.52561000  0.75690000  1
  C  C1192  1  0.23102000  0.24340000  0.75657000  1
  C  C1193  1  0.76901000  0.52559000  0.01235000  1
  C  C1194  1  0.23107000  0.98767000  0.47441000  1
  C  C1195  1  0.76872000  0.24310000  0.75691000  1
  C  C1196  1  0.48684000  0.24340000  0.01238000  1
  C  C1197  1  0.51326000  0.98767000  0.75660000  1
  C  C1198  1  0.51325000  0.52560000  0.75658000  1
  C  C1199  1  0.48619000  0.24310000  0.47438000  1
  N  N1200  1  0.83616000  0.95239000  0.50664000  1
  N  N1201  1  0.95123000  0.05880000  0.58446000  1
  N  N1202  1  0.86641000  0.04580000  0.46756000  1
  N  N1203  1  0.82502000  0.03780000  0.54341000  1
  N  N1204  1  0.83655000  0.88397000  0.32961000  1
  N  N1205  1  0.95133000  0.89251000  0.36692000  1
  N  N1206  1  0.86662000  0.82070000  0.39885000  1
  N  N1207  1  0.82509000  0.78728000  0.28167000  1
  N  N1208  1  0.16349000  0.67041000  0.11595000  1
  N  N1209  1  0.04874000  0.63337000  0.10732000  1
  N  N1210  1  0.13376000  0.60129000  0.17920000  1
  N  N1211  1  0.17516000  0.71865000  0.21242000  1
  N  N1212  1  0.16357000  0.49313000  0.04744000  1
  N  N1213  1  0.04874000  0.41536000  0.94124000  1
  N  N1214  1  0.13358000  0.53237000  0.95426000  1
  N  N1215  1  0.17485000  0.45643000  0.96226000  1
  N  N1216  1  0.62300000  0.67046000  0.50686000  1
  N  N1217  1  0.69212000  0.63336000  0.58462000  1
  N  N1218  1  0.64693000  0.60120000  0.46762000  1
  N  N1219  1  0.75617000  0.71841000  0.54357000  1
  N  N1220  1  0.37711000  0.49304000  0.32957000  1
  N  N1221  1  0.30806000  0.41539000  0.36666000  1
  N  N1222  1  0.35328000  0.53247000  0.39869000  1
  N  N1223  1  0.24408000  0.45651000  0.28135000  1
  N  N1224  1  0.62297000  0.95255000  0.11601000  1
  N  N1225  1  0.69189000  0.05882000  0.10750000  1
  N  N1226  1  0.64706000  0.04589000  0.17929000  1
  N  N1227  1  0.75614000  0.03778000  0.21272000  1
  N  N1228  1  0.37712000  0.88376000  0.04763000  1
  N  N1229  1  0.30800000  0.89244000  0.94120000  1
  N  N1230  1  0.35305000  0.82061000  0.95421000  1
  N  N1231  1  0.24379000  0.78721000  0.96216000  1
  N  N1232  1  0.55448000  0.88407000  0.50697000  1
  N  N1233  1  0.52608000  0.89268000  0.58464000  1
  N  N1234  1  0.42208000  0.82079000  0.46753000  1
  N  N1235  1  0.50622000  0.78757000  0.54349000  1
  N  N1236  1  0.44567000  0.95256000  0.32957000  1
  N  N1237  1  0.47408000  0.05874000  0.36659000  1
  N  N1238  1  0.57811000  0.04573000  0.39880000  1
  N  N1239  1  0.49416000  0.03772000  0.28158000  1
  N  N1240  1  0.44572000  0.49332000  0.11620000  1
  N  N1241  1  0.47436000  0.41556000  0.10757000  1
  N  N1242  1  0.57827000  0.53243000  0.17942000  1
  N  N1243  1  0.49442000  0.45658000  0.21279000  1
  N  N1244  1  0.55440000  0.67039000  0.04743000  1
  N  N1245  1  0.52558000  0.63308000  0.94119000  1
  N  N1246  1  0.42183000  0.60115000  0.95406000  1
  N  N1247  1  0.50561000  0.71834000  0.96218000  1
  N  N1248  1  0.16345000  0.04744000  0.67041000  1
  N  N1249  1  0.04867000  0.94117000  0.63306000  1
  N  N1250  1  0.13340000  0.95411000  0.60117000  1
  N  N1251  1  0.17494000  0.96221000  0.71836000  1
  N  N1252  1  0.16387000  0.11624000  0.49335000  1
  N  N1253  1  0.04877000  0.10756000  0.41556000  1
  N  N1254  1  0.13360000  0.17939000  0.53243000  1
  N  N1255  1  0.17495000  0.21279000  0.45658000  1
  N  N1256  1  0.83640000  0.32954000  0.95254000  1
  N  N1257  1  0.95126000  0.36663000  0.05875000  1
  N  N1258  1  0.86641000  0.39879000  0.04572000  1
  N  N1259  1  0.82515000  0.28158000  0.03776000  1
  N  N1260  1  0.83652000  0.50695000  0.88406000  1
  N  N1261  1  0.95126000  0.58460000  0.89267000  1
  N  N1262  1  0.86622000  0.46753000  0.82080000  1
  N  N1263  1  0.82484000  0.54349000  0.78757000  1
  N  N1264  1  0.37704000  0.32961000  0.88401000  1
  N  N1265  1  0.30811000  0.36692000  0.89250000  1
  N  N1266  1  0.35290000  0.39884000  0.82068000  1
  N  N1267  1  0.24384000  0.28165000  0.78727000  1
  N  N1268  1  0.62288000  0.50668000  0.95240000  1
  N  N1269  1  0.69202000  0.58444000  0.05879000  1
  N  N1270  1  0.64699000  0.46756000  0.04584000  1
  N  N1271  1  0.75620000  0.54341000  0.03783000  1
  N  N1272  1  0.37700000  0.04743000  0.49310000  1
  N  N1273  1  0.30785000  0.94126000  0.41534000  1
  N  N1274  1  0.35307000  0.95426000  0.53238000  1
  N  N1275  1  0.24385000  0.96227000  0.45644000  1
  N  N1276  1  0.62290000  0.11593000  0.67041000  1
  N  N1277  1  0.69196000  0.10732000  0.63340000  1
  N  N1278  1  0.64673000  0.17920000  0.60129000  1
  N  N1279  1  0.75591000  0.21242000  0.71864000  1
  N  N1280  1  0.44563000  0.11602000  0.95258000  1
  N  N1281  1  0.47442000  0.10749000  0.05882000  1
  N  N1282  1  0.57815000  0.17930000  0.04592000  1
  N  N1283  1  0.49438000  0.21271000  0.03781000  1
  N  N1284  1  0.55426000  0.04761000  0.88377000  1
  N  N1285  1  0.52566000  0.94120000  0.89243000  1
  N  N1286  1  0.42175000  0.95419000  0.82060000  1
  N  N1287  1  0.50561000  0.96220000  0.78722000  1
  N  N1288  1  0.55430000  0.50686000  0.67043000  1
  N  N1289  1  0.52588000  0.58464000  0.63338000  1
  N  N1290  1  0.42189000  0.46763000  0.60121000  1
  N  N1291  1  0.50582000  0.54356000  0.71842000  1
  N  N1292  1  0.44554000  0.32959000  0.49307000  1
  N  N1293  1  0.47394000  0.36662000  0.41536000  1
  N  N1294  1  0.57790000  0.39870000  0.53247000  1
  N  N1295  1  0.49377000  0.28135000  0.45650000  1
  N  N1296  1  0.16385000  0.04761000  0.49336000  1
  N  N1297  1  0.04877000  0.94120000  0.41554000  1
  N  N1298  1  0.13359000  0.95419000  0.53244000  1
  N  N1299  1  0.17498000  0.96220000  0.45659000  1
  N  N1300  1  0.16345000  0.11602000  0.67039000  1
  N  N1301  1  0.04867000  0.10749000  0.63308000  1
  N  N1302  1  0.13339000  0.17930000  0.60115000  1
  N  N1303  1  0.17491000  0.21272000  0.71833000  1
  N  N1304  1  0.83652000  0.32959000  0.88405000  1
  N  N1305  1  0.95127000  0.36663000  0.89268000  1
  N  N1306  1  0.86623000  0.39870000  0.82080000  1
  N  N1307  1  0.82485000  0.28135000  0.78758000  1
  N  N1308  1  0.83643000  0.50686000  0.95256000  1
  N  N1309  1  0.95126000  0.58464000  0.05876000  1
  N  N1310  1  0.86643000  0.46763000  0.04574000  1
  N  N1311  1  0.82515000  0.54356000  0.03774000  1
  N  N1312  1  0.37700000  0.32954000  0.49314000  1
  N  N1313  1  0.30788000  0.36663000  0.41538000  1
  N  N1314  1  0.35308000  0.39880000  0.53238000  1
  N  N1315  1  0.24383000  0.28158000  0.45643000  1
  N  N1316  1  0.62289000  0.50695000  0.67043000  1
  N  N1317  1  0.69193000  0.58460000  0.63334000  1
  N  N1318  1  0.64673000  0.46753000  0.60131000  1
  N  N1319  1  0.75592000  0.54349000  0.71865000  1
  N  N1320  1  0.37703000  0.04744000  0.88399000  1
  N  N1321  1  0.30811000  0.94117000  0.89250000  1
  N  N1322  1  0.35294000  0.95411000  0.82071000  1
  N  N1323  1  0.24386000  0.96221000  0.78728000  1
  N  N1324  1  0.62289000  0.11624000  0.95237000  1
  N  N1325  1  0.69200000  0.10756000  0.05879000  1
  N  N1326  1  0.64696000  0.17939000  0.04579000  1
  N  N1327  1  0.75620000  0.21278000  0.03784000  1
  N  N1328  1  0.44552000  0.11593000  0.49303000  1
  N  N1329  1  0.47392000  0.10732000  0.41536000  1
  N  N1330  1  0.57791000  0.17920000  0.53247000  1
  N  N1331  1  0.49378000  0.21242000  0.45651000  1
  N  N1332  1  0.55433000  0.04743000  0.67043000  1
  N  N1333  1  0.52593000  0.94126000  0.63341000  1
  N  N1334  1  0.42188000  0.95426000  0.60120000  1
  N  N1335  1  0.50583000  0.96227000  0.71842000  1
  N  N1336  1  0.55428000  0.50668000  0.88380000  1
  N  N1337  1  0.52565000  0.58444000  0.89243000  1
  N  N1338  1  0.42172000  0.46756000  0.82058000  1
  N  N1339  1  0.50558000  0.54341000  0.78721000  1
  N  N1340  1  0.44560000  0.32961000  0.95257000  1
  N  N1341  1  0.47441000  0.36691000  0.05881000  1
  N  N1342  1  0.57817000  0.39884000  0.04594000  1
  N  N1343  1  0.49439000  0.28165000  0.03781000  1
  N  N1344  1  0.83654000  0.95255000  0.32959000  1
  N  N1345  1  0.95132000  0.05882000  0.36694000  1
  N  N1346  1  0.86660000  0.04589000  0.39883000  1
  N  N1347  1  0.82506000  0.03778000  0.28164000  1
  N  N1348  1  0.83614000  0.88376000  0.50665000  1
  N  N1349  1  0.95124000  0.89244000  0.58444000  1
  N  N1350  1  0.86641000  0.82061000  0.46756000  1
  N  N1351  1  0.82505000  0.78721000  0.54342000  1
  N  N1352  1  0.16361000  0.67046000  0.04746000  1
  N  N1353  1  0.04874000  0.63336000  0.94125000  1
  N  N1354  1  0.13358000  0.60120000  0.95428000  1
  N  N1355  1  0.17484000  0.71841000  0.96224000  1
  N  N1356  1  0.16348000  0.49304000  0.11593000  1
  N  N1357  1  0.04873000  0.41539000  0.10733000  1
  N  N1358  1  0.13377000  0.53246000  0.17919000  1
  N  N1359  1  0.17517000  0.45651000  0.21243000  1
  N  N1360  1  0.62297000  0.67039000  0.11599000  1
  N  N1361  1  0.69189000  0.63308000  0.10750000  1
  N  N1362  1  0.64710000  0.60115000  0.17932000  1
  N  N1363  1  0.75616000  0.71834000  0.21273000  1
  N  N1364  1  0.37713000  0.49332000  0.04760000  1
  N  N1365  1  0.30799000  0.41556000  0.94121000  1
  N  N1366  1  0.35301000  0.53243000  0.95416000  1
  N  N1367  1  0.24379000  0.45658000  0.96217000  1
  N  N1368  1  0.62299000  0.95256000  0.50690000  1
  N  N1369  1  0.69215000  0.05874000  0.58466000  1
  N  N1370  1  0.64693000  0.04573000  0.46762000  1
  N  N1371  1  0.75614000  0.03772000  0.54356000  1
  N  N1372  1  0.37711000  0.88407000  0.32959000  1
  N  N1373  1  0.30804000  0.89268000  0.36660000  1
  N  N1374  1  0.35327000  0.82079000  0.39871000  1
  N  N1375  1  0.24408000  0.78757000  0.28135000  1
  N  N1376  1  0.55436000  0.88397000  0.04742000  1
  N  N1377  1  0.52559000  0.89251000  0.94118000  1
  N  N1378  1  0.42185000  0.82070000  0.95408000  1
  N  N1379  1  0.50561000  0.78728000  0.96219000  1
  N  N1380  1  0.44575000  0.95239000  0.11623000  1
  N  N1381  1  0.47434000  0.05880000  0.10757000  1
  N  N1382  1  0.57825000  0.04580000  0.17939000  1
  N  N1383  1  0.49440000  0.03780000  0.21278000  1
  N  N1384  1  0.44570000  0.49313000  0.32957000  1
  N  N1385  1  0.47412000  0.41536000  0.36662000  1
  N  N1386  1  0.57812000  0.53237000  0.39879000  1
  N  N1387  1  0.49418000  0.45643000  0.28158000  1
  N  N1388  1  0.55446000  0.67041000  0.50693000  1
  N  N1389  1  0.52605000  0.63337000  0.58464000  1
  N  N1390  1  0.42209000  0.60129000  0.46753000  1
  N  N1391  1  0.50623000  0.71865000  0.54350000  1
