# generated using pymatgen
data_H28C41(NO2)4
_symmetry_space_group_name_H-M   'P 1'
_cell_length_a   55.93520000
_cell_length_b   64.14460000
_cell_length_c   64.14460000
_cell_angle_alpha   120.00000000
_cell_angle_beta   90.00000000
_cell_angle_gamma   90.00000000
_symmetry_Int_Tables_number   1
_chemical_formula_structural   H28C41(NO2)4
_chemical_formula_sum   'H336 C492 N48 O96'
_cell_volume   199313.18514049
_cell_formula_units_Z   12
loop_
 _symmetry_equiv_pos_site_id
 _symmetry_equiv_pos_as_xyz
  1  'x, y, z'
loop_
 _atom_site_type_symbol
 _atom_site_label
 _atom_site_symmetry_multiplicity
 _atom_site_fract_x
 _atom_site_fract_y
 _atom_site_fract_z
 _atom_site_occupancy
  H  26  1  0.81810900  0.55566900  0.42637500  1
  H  27  1  0.85849700  0.56201400  0.41948000  1
  H  28  1  0.81753400  0.62298800  0.49040500  1
  H  29  1  0.85796100  0.62934900  0.48360200  1
  H  30  1  0.90265000  0.62185400  0.49070400  1
  H  31  1  0.92484700  0.60402700  0.50942600  1
  H  32  1  0.92672000  0.53843500  0.44374900  1
  H  33  1  0.90455900  0.55616300  0.42500800  1
  H  34  1  0.92905800  0.58908100  0.41747500  1
  H  35  1  0.93688300  0.58044200  0.37765300  1
  H  36  1  0.86373800  0.58890000  0.36793700  1
  H  37  1  0.85587000  0.59762100  0.40773400  1
  H  38  1  0.85658800  0.63766200  0.44571900  1
  H  39  1  0.92899800  0.62933400  0.45846400  1
  H  40  1  0.93694200  0.66901600  0.46662900  1
  H  45  1  0.86456000  0.67729700  0.45397800  1
  H  71  1  0.81731700  0.91259900  0.48829500  1
  H  72  1  0.85769300  0.89952000  0.48243600  1
  H  73  1  0.81904100  0.91390600  0.42324300  1
  H  74  1  0.85953400  0.90079200  0.41731100  1
  H  75  1  0.90587900  0.91151800  0.42264000  1
  H  76  1  0.92889500  0.94750200  0.44036900  1
  H  77  1  0.92559800  0.95026400  0.50733300  1
  H  78  1  0.90269100  0.91426100  0.48964000  1
  H  79  1  0.92904700  0.87411400  0.45861200  1
  H  80  1  0.93681300  0.84299000  0.46736900  1
  H  81  1  0.86453300  0.82177900  0.45416500  1
  H  82  1  0.85672100  0.85284100  0.44540200  1
  H  83  1  0.85626900  0.85393100  0.40688000  1
  H  84  1  0.92961600  0.87151100  0.41678900  1
  H  85  1  0.93742800  0.83995800  0.37712000  1
  H  90  1  0.86410600  0.82256100  0.36721800  1
  H  116  1  0.81740500  0.61964400  0.13211100  1
  H  117  1  0.85775400  0.62689100  0.14528400  1
  H  118  1  0.81894600  0.55351300  0.13128100  1
  H  119  1  0.85940600  0.56071200  0.14446900  1
  H  120  1  0.90574700  0.55527200  0.13349900  1
  H  121  1  0.92881000  0.53705300  0.09753900  1
  H  122  1  0.92575200  0.60137600  0.09498600  1
  H  123  1  0.90279500  0.61964000  0.13095500  1
  H  124  1  0.92897000  0.62863200  0.17118900  1
  H  125  1  0.93667600  0.66851000  0.20232000  1
  H  126  1  0.86426700  0.67659800  0.22312600  1
  H  127  1  0.85651500  0.63676200  0.19204900  1
  H  128  1  0.85623000  0.59728600  0.19125800  1
  H  129  1  0.92953200  0.58930500  0.17353100  1
  H  130  1  0.93733500  0.58131200  0.20516500  1
  H  135  1  0.86404400  0.58913200  0.22272000  1
  H  161  1  0.31760900  0.50325900  0.60566700  1
  H  162  1  0.35795700  0.49716800  0.61275200  1
  H  163  1  0.31886400  0.43805100  0.53943400  1
  H  164  1  0.35933500  0.43190000  0.54647800  1
  H  165  1  0.40570000  0.43728100  0.54090900  1
  H  166  1  0.42874100  0.45500800  0.52266100  1
  H  167  1  0.42585400  0.52186400  0.58702100  1
  H  168  1  0.40292200  0.50417800  0.60532200  1
  H  169  1  0.42908900  0.47298200  0.61425600  1
  H  170  1  0.43685400  0.48174100  0.65414000  1
  H  171  1  0.36450000  0.46885300  0.66226300  1
  H  172  1  0.35668200  0.46008900  0.62243200  1
  H  173  1  0.35628200  0.42148400  0.58284600  1
  H  174  1  0.42959500  0.43128900  0.57492100  1
  H  175  1  0.43739500  0.39160700  0.56676900  1
  H  180  1  0.36410200  0.38180900  0.57451900  1
  H  206  1  0.31712400  0.14707600  0.54242000  1
  H  207  1  0.35748900  0.16019900  0.54831000  1
  H  208  1  0.31884800  0.14574200  0.60745600  1
  H  209  1  0.35932300  0.15888700  0.61341800  1
  H  210  1  0.40577900  0.14823200  0.60811500  1
  H  211  1  0.42884400  0.11227500  0.59037200  1
  H  212  1  0.42537100  0.10945800  0.52338700  1
  H  213  1  0.40241600  0.14542800  0.54109200  1
  H  214  1  0.42880700  0.18555600  0.57203900  1
  H  215  1  0.43653400  0.21666200  0.56324700  1
  H  216  1  0.36428400  0.23794900  0.57663800  1
  H  217  1  0.35650700  0.20690300  0.58543500  1
  H  218  1  0.35603700  0.20571400  0.62393100  1
  H  219  1  0.42940800  0.18827000  0.61390000  1
  H  220  1  0.43725400  0.21986200  0.65353100  1
  H  225  1  0.36390700  0.23713000  0.66356200  1
  H  251  1  0.31729000  0.44015200  0.89858000  1
  H  252  1  0.35764800  0.43290000  0.88542700  1
  H  253  1  0.31885700  0.50627300  0.89938600  1
  H  254  1  0.35932500  0.49906800  0.88622100  1
  H  255  1  0.40561000  0.50452100  0.89726200  1
  H  256  1  0.42866200  0.52275100  0.93322500  1
  H  257  1  0.42564400  0.45842500  0.93577500  1
  H  258  1  0.40269800  0.44014300  0.89979200  1
  H  259  1  0.42886600  0.43110600  0.85959400  1
  H  260  1  0.43656400  0.39122900  0.82844600  1
  H  261  1  0.36419300  0.38323400  0.80753000  1
  H  262  1  0.35644800  0.42306300  0.83862100  1
  H  263  1  0.35625500  0.46254400  0.83942000  1
  H  264  1  0.42952400  0.47042500  0.85727600  1
  H  265  1  0.43743800  0.47850400  0.82572100  1
  H  270  1  0.36418200  0.47079700  0.80804300  1
  H  296  1  0.13508000  0.14516800  0.60570800  1
  H  297  1  0.09471700  0.15848300  0.61273700  1
  H  298  1  0.13495800  0.14683900  0.54082900  1
  H  299  1  0.09452200  0.16003600  0.54773300  1
  H  300  1  0.04921600  0.14607900  0.54148400  1
  H  301  1  0.02608600  0.11019600  0.52393900  1
  H  302  1  0.02538100  0.11151800  0.59027500  1
  H  303  1  0.04857200  0.14738800  0.60785900  1
  H  304  1  0.02404200  0.18758600  0.61457300  1
  H  305  1  0.01646700  0.21917100  0.65422100  1
  H  306  1  0.08971800  0.23695600  0.66334700  1
  H  307  1  0.09733200  0.20542200  0.62368900  1
  H  308  1  0.09660100  0.20660000  0.58522900  1
  H  309  1  0.02396400  0.18627000  0.57340300  1
  H  310  1  0.01617100  0.21768600  0.56504300  1
  H  315  1  0.08877800  0.23786000  0.57678000  1
  H  341  1  0.13674800  0.43841700  0.54139400  1
  H  342  1  0.09645600  0.43081800  0.54714800  1
  H  343  1  0.13378500  0.50579000  0.60522300  1
  H  344  1  0.09336700  0.49826900  0.61104300  1
  H  345  1  0.04668400  0.50270200  0.60557300  1
  H  346  1  0.02418900  0.52022600  0.58684500  1
  H  347  1  0.02959100  0.45581700  0.52033000  1
  H  348  1  0.05204100  0.43816000  0.53906300  1
  H  349  1  0.02475700  0.42937000  0.57026200  1
  H  350  1  0.01715200  0.38967800  0.56211600  1
  H  351  1  0.08926200  0.38255900  0.57658600  1
  H  352  1  0.09693500  0.42221600  0.58470800  1
  H  353  1  0.09748800  0.46249400  0.62251800  1
  H  354  1  0.02393800  0.46866300  0.61214200  1
  H  355  1  0.01618500  0.47685400  0.65185200  1
  H  360  1  0.08972000  0.47086800  0.66219700  1
  H  386  1  0.13509700  0.50543100  0.90058000  1
  H  387  1  0.09476500  0.49905800  0.88712200  1
  H  388  1  0.13518500  0.43861200  0.89834900  1
  H  389  1  0.09479900  0.43224200  0.88502100  1
  H  390  1  0.04961800  0.44013300  0.89925100  1
  H  391  1  0.02643100  0.45840300  0.93509600  1
  H  392  1  0.02518800  0.52329100  0.93354200  1
  H  393  1  0.04844500  0.50507800  0.89771300  1
  H  394  1  0.02428400  0.47138200  0.85740100  1
  H  395  1  0.01679800  0.47937400  0.82575900  1
  H  396  1  0.09016900  0.47131500  0.80850300  1
  H  397  1  0.09770200  0.46324300  0.84008700  1
  H  398  1  0.09679200  0.42341300  0.83855700  1
  H  399  1  0.02421400  0.43171800  0.85907200  1
  H  400  1  0.01646000  0.39193500  0.82766500  1
  H  405  1  0.08901000  0.38369500  0.80729200  1
  H  431  1  0.63533000  0.91480400  0.42482600  1
  H  432  1  0.59496900  0.90147900  0.41776600  1
  H  433  1  0.63510300  0.91329700  0.48978800  1
  H  434  1  0.59467400  0.90007500  0.48284500  1
  H  435  1  0.54935000  0.91379200  0.48903800  1
  H  436  1  0.52616100  0.94963600  0.50661700  1
  H  437  1  0.52555100  0.94851000  0.44037400  1
  H  438  1  0.54880100  0.91267600  0.42275600  1
  H  439  1  0.52425100  0.87243200  0.41597500  1
  H  440  1  0.51665500  0.84084200  0.37634000  1
  H  441  1  0.58989900  0.82303600  0.36717500  1
  H  442  1  0.59753600  0.85457600  0.40682100  1
  H  443  1  0.59695000  0.85348700  0.44531900  1
  H  444  1  0.52424100  0.87356600  0.45704500  1
  H  445  1  0.51655500  0.84208900  0.46533400  1
  H  450  1  0.58923200  0.82215700  0.45369100  1
  H  476  1  0.63518700  0.61986400  0.49047800  1
  H  477  1  0.59485400  0.62712200  0.48427500  1
  H  478  1  0.63485200  0.55518200  0.42375000  1
  H  479  1  0.59447200  0.56229900  0.41754700  1
  H  480  1  0.54928200  0.55615200  0.42542700  1
  H  481  1  0.52613200  0.53860500  0.44374600  1
  H  482  1  0.52535400  0.60495200  0.50875000  1
  H  483  1  0.54857200  0.62253600  0.49048100  1
  H  484  1  0.52419400  0.62923700  0.45685500  1
  H  485  1  0.51668900  0.66886100  0.46485200  1
  H  486  1  0.59002400  0.67801900  0.45660200  1
  H  487  1  0.59757000  0.63836600  0.44853300  1
  H  488  1  0.59668700  0.60002600  0.40874200  1
  H  489  1  0.52407100  0.58802000  0.41709000  1
  H  490  1  0.51631500  0.57973100  0.37733700  1
  H  495  1  0.58891400  0.59166200  0.36905500  1
  H  521  1  0.63521500  0.55453700  0.13025200  1
  H  522  1  0.59486900  0.56089800  0.14365600  1
  H  523  1  0.63526700  0.62125300  0.13227100  1
  H  524  1  0.59486200  0.62761400  0.14554600  1
  H  525  1  0.54962500  0.61981000  0.13138800  1
  H  526  1  0.52642500  0.60153200  0.09554600  1
  H  527  1  0.52536300  0.53659200  0.09700800  1
  H  528  1  0.54863000  0.55481200  0.13282800  1
  H  529  1  0.52426000  0.58850800  0.17306000  1
  H  530  1  0.51662800  0.58044700  0.20463100  1
  H  531  1  0.58993300  0.58854900  0.22215900  1
  H  532  1  0.59761500  0.59668700  0.19063800  1
  H  533  1  0.59686700  0.63647800  0.19205900  1
  H  534  1  0.52429400  0.62823100  0.17153500  1
  H  535  1  0.51656200  0.66801700  0.20295200  1
  H  540  1  0.58910800  0.67619800  0.22333200  1
  H  548  1  0.87943800  0.60848100  0.32747600  1
  H  552  1  0.96193200  0.54674300  0.29622500  1
  H  553  1  0.87962100  0.60876400  0.28299100  1
  H  554  1  0.93393200  0.52842200  0.24069100  1
  H  556  1  0.93860200  0.57590100  0.23877200  1
  H  558  1  0.93845600  0.57607200  0.33911300  1
  H  566  1  0.87998100  0.76326400  0.43690600  1
  H  570  1  0.96230300  0.79385400  0.49889200  1
  H  571  1  0.88009800  0.71859300  0.43662300  1
  H  572  1  0.93417600  0.75662000  0.51712300  1
  H  574  1  0.93883800  0.70717700  0.46975900  1
  H  576  1  0.93884700  0.80752000  0.46961600  1
  H  584  1  0.87964100  0.71782300  0.28180900  1
  H  588  1  0.96202800  0.74924900  0.25132900  1
  H  589  1  0.87979200  0.76223900  0.32656500  1
  H  590  1  0.93396200  0.80473800  0.28864400  1
  H  592  1  0.93867500  0.80659400  0.33796100  1
  H  594  1  0.93859400  0.70631000  0.23765300  1
  H  602  1  0.37998400  0.45137800  0.70338800  1
  H  606  1  0.46219900  0.51351400  0.73492500  1
  H  607  1  0.38007400  0.45109700  0.74781100  1
  H  608  1  0.43401800  0.53169500  0.79036200  1
  H  610  1  0.43877600  0.48433500  0.79237100  1
  H  612  1  0.43884500  0.48413800  0.69192900  1
  H  620  1  0.37968800  0.29639600  0.59380800  1
  H  624  1  0.46196700  0.26582600  0.53174400  1
  H  625  1  0.37983600  0.34113900  0.59413200  1
  H  626  1  0.43386300  0.30315500  0.51361600  1
  H  628  1  0.43865600  0.35249800  0.56109400  1
  H  630  1  0.43854300  0.25211900  0.56098400  1
  H  638  1  0.37949600  0.34197400  0.74891400  1
  H  642  1  0.46196300  0.31055800  0.77929800  1
  H  643  1  0.37961300  0.29755800  0.70416700  1
  H  644  1  0.43387900  0.25507300  0.74201800  1
  H  646  1  0.43852900  0.25323400  0.69267600  1
  H  648  1  0.43850200  0.35349500  0.79301800  1
  H  656  1  0.07429300  0.29746100  0.70402300  1
  H  660  1  0.99138800  0.26728700  0.73496600  1
  H  661  1  0.07397300  0.34237700  0.74845900  1
  H  662  1  0.01909900  0.30462300  0.79065800  1
  H  664  1  0.01467800  0.35402800  0.79228200  1
  H  666  1  0.01502800  0.25378200  0.69220000  1
  H  674  1  0.07403400  0.34116200  0.59387600  1
  H  678  1  0.99122600  0.31009400  0.53259800  1
  H  679  1  0.07362100  0.29686200  0.59454000  1
  H  680  1  0.01887000  0.25440400  0.51454600  1
  H  682  1  0.01436500  0.25306900  0.56252000  1
  H  684  1  0.01497300  0.35290100  0.56166600  1
  H  692  1  0.07494600  0.45114700  0.74776900  1
  H  696  1  0.99176200  0.51190400  0.77752400  1
  H  697  1  0.07457000  0.45046100  0.70266400  1
  H  698  1  0.01933500  0.53006500  0.73995900  1
  H  700  1  0.01496000  0.48185900  0.69071400  1
  H  702  1  0.01549800  0.48292300  0.79126900  1
  H  710  1  0.57445400  0.76252300  0.32659900  1
  H  714  1  0.49150600  0.79261900  0.29563300  1
  H  715  1  0.57411300  0.71757200  0.28219700  1
  H  716  1  0.51918800  0.75521000  0.23994400  1
  H  718  1  0.51476400  0.70581500  0.23846400  1
  H  720  1  0.51519100  0.80620200  0.33839300  1
  H  728  1  0.57463100  0.71859200  0.43642700  1
  H  732  1  0.49167400  0.74960100  0.49747400  1
  H  733  1  0.57424700  0.76300200  0.43580700  1
  H  734  1  0.51930100  0.80532300  0.51565500  1
  H  736  1  0.51483500  0.80658700  0.46760400  1
  H  738  1  0.51533200  0.70683800  0.46828600  1
  H  746  1  0.57434000  0.60875400  0.28283700  1
  H  750  1  0.49148100  0.54756200  0.25258200  1
  H  751  1  0.57389100  0.60934800  0.32781200  1
  H  752  1  0.51907400  0.52937400  0.29011100  1
  H  754  1  0.51455100  0.57730700  0.33946400  1
  H  756  1  0.51517300  0.57675200  0.23903300  1
  H  764  1  0.69812600  0.60377500  0.43738900  1
  H  768  1  0.70315700  0.56890500  0.50329000  1
  H  769  1  0.75003200  0.59232200  0.42625600  1
  H  770  1  0.75612100  0.55875000  0.49164100  1
  H  772  1  0.77974000  0.55409400  0.44281400  1
  H  774  1  0.67256900  0.60106100  0.49257100  1
  H  782  1  0.69822000  0.87766300  0.44053400  1
  H  786  1  0.70348900  0.97838900  0.47562300  1
  H  787  1  0.75010700  0.87776500  0.45194700  1
  H  788  1  0.75652400  0.97677700  0.48588100  1
  H  790  1  0.77973800  0.93218100  0.49044900  1
  H  792  1  0.67294700  0.93508700  0.44291900  1
  H  800  1  0.69840800  0.60707300  0.16740600  1
  H  804  1  0.70322300  0.54179500  0.06655900  1
  H  805  1  0.75035800  0.61812300  0.16714900  1
  H  806  1  0.75630400  0.55337900  0.06803900  1
  H  808  1  0.77982900  0.60217700  0.11253100  1
  H  810  1  0.67277300  0.55231800  0.10978500  1
  H  818  1  0.19832100  0.45570300  0.59322600  1
  H  822  1  0.20341600  0.49116600  0.52793500  1
  H  823  1  0.25040400  0.46698700  0.60437300  1
  H  824  1  0.25643800  0.50128400  0.53956800  1
  H  826  1  0.27998800  0.50555200  0.58838200  1
  H  828  1  0.17316500  0.45791300  0.53834200  1
  H  836  1  0.19818100  0.18217000  0.58988800  1
  H  840  1  0.20312100  0.08143600  0.55504100  1
  H  841  1  0.25009300  0.18186800  0.57855100  1
  H  842  1  0.25618200  0.08289800  0.54490000  1
  H  844  1  0.27961800  0.12731200  0.54021100  1
  H  846  1  0.17258400  0.12457600  0.58736200  1
  H  854  1  0.19828100  0.45300300  0.86328300  1
  H  858  1  0.20310300  0.51791900  0.96418000  1
  H  859  1  0.25023200  0.44186500  0.86347700  1
  H  860  1  0.25618800  0.50626400  0.96266400  1
  H  862  1  0.27968400  0.45755900  0.91805400  1
  H  864  1  0.17270900  0.50759100  0.92082800  1
  H  872  1  0.99458800  0.47476600  0.48975100  1
  H  876  1  0.97835400  0.56958100  0.57073100  1
  H  877  1  0.94285100  0.49124400  0.47250800  1
  H  878  1  0.98604900  0.58207700  0.52388700  1
  H  880  1  0.95846500  0.53256600  0.46585800  1
  H  882  1  0.99290600  0.52564800  0.56404200  1
  H  890  1  0.99792400  0.05828700  0.56912300  1
  H  894  1  0.96177200  0.06353600  0.49392300  1
  H  895  1  0.96777000  0.01812500  0.55798000  1
  H  896  1  0.95510800  0.00188300  0.46198700  1
  H  898  1  0.93938100  0.98984200  0.51945000  1
  H  900  1  0.01291300  0.07016100  0.51156500  1
  H  908  1  0.99762100  0.55531100  0.98677100  1
  H  912  1  0.96221300  0.47469400  0.98173700  1
  H  913  1  0.96738300  0.58418500  0.02692000  1
  H  914  1  0.95556300  0.50449000  0.04338900  1
  H  916  1  0.93926100  0.57384500  0.05529000  1
  H  918  1  0.01323500  0.48607400  0.97509900  1
  H  926  1  0.49798900  0.58375000  0.54083800  1
  H  930  1  0.46186300  0.50859300  0.46032800  1
  H  931  1  0.46779700  0.57257800  0.56981300  1
  H  932  1  0.45514600  0.47662100  0.48999600  1
  H  934  1  0.43938700  0.53403800  0.55950900  1
  H  936  1  0.51304200  0.52623200  0.47143000  1
  H  944  1  0.49798500  0.00168200  0.46158500  1
  H  948  1  0.46182900  0.99619800  0.53666500  1
  H  949  1  0.46774700  0.04179400  0.47276300  1
  H  950  1  0.45503700  0.05783400  0.56867600  1
  H  952  1  0.43926900  0.06993900  0.51126900  1
  H  954  1  0.51297900  0.98969300  0.51906700  1
  H  962  1  0.49757400  0.50463500  0.04399500  1
  H  966  1  0.46223000  0.58520600  0.04887500  1
  H  967  1  0.46726600  0.47573900  0.00392700  1
  H  968  1  0.45548600  0.55530300  0.98724000  1
  H  970  1  0.43914000  0.48600800  0.97550300  1
  H  972  1  0.51321900  0.57382800  0.05550900  1
  C  1  1  0.90135400  0.67734800  0.46176900  1
  C  2  1  0.91970700  0.66295200  0.46317100  1
  C  3  1  0.91486400  0.63946300  0.45854300  1
  C  4  1  0.89150200  0.62940500  0.45285000  1
  C  5  1  0.87346400  0.64419000  0.45122800  1
  C  6  1  0.87814000  0.66766300  0.45588400  1
  C  7  1  0.88698500  0.60262200  0.44372800  1
  C  8  1  0.89128200  0.59264900  0.41676500  1
  C  9  1  0.87292400  0.59278400  0.40146800  1
  C  10  1  0.87753500  0.58788500  0.37789400  1
  C  11  1  0.90093300  0.58313500  0.36857300  1
  C  12  1  0.91954200  0.58299300  0.38340700  1
  C  13  1  0.91478300  0.58791300  0.40700000  1
  C  14  1  0.90271900  0.59160400  0.45522700  1
  C  15  1  0.86207800  0.59727100  0.44972200  1
  C  16  1  0.85028600  0.57507100  0.43465400  1
  C  17  1  0.82645600  0.57110000  0.43881800  1
  C  18  1  0.81386100  0.58881200  0.45903200  1
  C  19  1  0.82613000  0.60984200  0.47552000  1
  C  20  1  0.84997100  0.61363300  0.47127400  1
  C  21  1  0.90824300  0.60446400  0.48020300  1
  C  22  1  0.92120700  0.59392300  0.49140500  1
  C  23  1  0.92888700  0.56979000  0.47823800  1
  C  24  1  0.92250000  0.55630300  0.45365900  1
  C  25  1  0.90942000  0.56692000  0.44259500  1
  C  46  1  0.90138600  0.82858800  0.36794000  1
  C  47  1  0.92007700  0.84335800  0.38282200  1
  C  48  1  0.91533000  0.86223700  0.40631300  1
  C  49  1  0.89177900  0.86767800  0.41592700  1
  C  50  1  0.87337800  0.85226500  0.40067900  1
  C  51  1  0.87796500  0.83341100  0.37719200  1
  C  52  1  0.88733100  0.88532600  0.44273200  1
  C  53  1  0.89160200  0.86828900  0.45265200  1
  C  54  1  0.87351600  0.85199000  0.45118700  1
  C  55  1  0.87810000  0.83336100  0.45615200  1
  C  56  1  0.90126100  0.82966800  0.46225400  1
  C  57  1  0.91961600  0.84548800  0.46371200  1
  C  58  1  0.91486800  0.86414700  0.45875900  1
  C  59  1  0.90314500  0.90778500  0.45371700  1
  C  60  1  0.86246500  0.89675700  0.44820100  1
  C  61  1  0.85000400  0.90256800  0.46975200  1
  C  62  1  0.82617500  0.91068100  0.47349800  1
  C  63  1  0.81422100  0.91443100  0.45625000  1
  C  64  1  0.82716400  0.91123600  0.43602700  1
  C  65  1  0.85104400  0.90330300  0.43250800  1
  C  66  1  0.91040200  0.91894200  0.44038100  1
  C  67  1  0.92384800  0.94038500  0.45086500  1
  C  68  1  0.92980400  0.95233900  0.47551700  1
  C  69  1  0.92182300  0.94212900  0.48936200  1
  C  70  1  0.90849400  0.92060100  0.47873400  1
  C  91  1  0.90130700  0.58368900  0.21663500  1
  C  92  1  0.91998700  0.58363100  0.20177100  1
  C  93  1  0.91524500  0.58818200  0.18284900  1
  C  94  1  0.89170800  0.59240400  0.17741400  1
  C  95  1  0.87332700  0.59272200  0.19292300  1
  C  96  1  0.87789700  0.58814900  0.21181900  1
  C  97  1  0.88727300  0.60155400  0.15976100  1
  C  98  1  0.89147500  0.62851900  0.17680000  1
  C  99  1  0.87334000  0.64337300  0.19300200  1
  C  100  1  0.87788500  0.66697100  0.21163900  1
  C  101  1  0.90106200  0.67674400  0.21545500  1
  C  102  1  0.91946700  0.66237700  0.19972200  1
  C  103  1  0.91475400  0.63876100  0.18105700  1
  C  104  1  0.90312600  0.59012900  0.13733200  1
  C  105  1  0.86242700  0.59554600  0.14828800  1
  C  106  1  0.85001900  0.61121400  0.14234300  1
  C  107  1  0.82622100  0.60681300  0.13414200  1
  C  108  1  0.81423100  0.58585900  0.13046400  1
  C  109  1  0.82710300  0.56891700  0.13385800  1
  C  110  1  0.85096200  0.57335700  0.14186100  1
  C  111  1  0.91032400  0.56561600  0.12611800  1
  C  112  1  0.92379700  0.55467800  0.10469100  1
  C  113  1  0.92983400  0.56742600  0.09280700  1
  C  114  1  0.92191100  0.59150400  0.10306900  1
  C  115  1  0.90855700  0.60237600  0.12458000  1
  C  136  1  0.40136400  0.38247200  0.56907200  1
  C  137  1  0.42005000  0.39733700  0.56914500  1
  C  138  1  0.41531100  0.42083800  0.57378400  1
  C  139  1  0.39177100  0.43048200  0.57802900  1
  C  140  1  0.37337900  0.41526200  0.57826500  1
  C  141  1  0.37795500  0.39175900  0.57359000  1
  C  142  1  0.38734600  0.45729900  0.58723400  1
  C  143  1  0.39161600  0.46715800  0.61418100  1
  C  144  1  0.37350700  0.46577100  0.62903400  1
  C  145  1  0.37809300  0.47073100  0.65262400  1
  C  146  1  0.40127500  0.47673200  0.66237600  1
  C  147  1  0.41965200  0.47811900  0.64799300  1
  C  148  1  0.41490000  0.47320500  0.62439600  1
  C  149  1  0.40316100  0.46830200  0.57577900  1
  C  150  1  0.36248700  0.46284700  0.58133700  1
  C  151  1  0.35015900  0.48448600  0.59708500  1
  C  152  1  0.32635400  0.48837100  0.59278900  1
  C  153  1  0.31428700  0.47117700  0.57184800  1
  C  154  1  0.32707900  0.45081400  0.55483600  1
  C  155  1  0.35094400  0.44716300  0.55917000  1
  C  156  1  0.41030900  0.45499600  0.55125200  1
  C  157  1  0.42376400  0.46548000  0.54029800  1
  C  158  1  0.42984000  0.49010000  0.55304900  1
  C  159  1  0.42197800  0.50391800  0.57714800  1
  C  160  1  0.40863900  0.49329100  0.58804100  1
  C  181  1  0.40120700  0.23118300  0.66276900  1
  C  182  1  0.41989100  0.21641500  0.64787500  1
  C  183  1  0.41512500  0.19752500  0.62439700  1
  C  184  1  0.39155700  0.19202500  0.61482100  1
  C  185  1  0.37316600  0.20742700  0.63009700  1
  C  186  1  0.37777100  0.22630900  0.65356600  1
  C  187  1  0.38712300  0.17437900  0.58801400  1
  C  188  1  0.39137400  0.19142100  0.57809700  1
  C  189  1  0.37328600  0.20773600  0.57960800  1
  C  190  1  0.37784400  0.22634400  0.57460500  1
  C  191  1  0.40098700  0.23001100  0.56844700  1
  C  192  1  0.41935000  0.21418400  0.56695800  1
  C  193  1  0.41462300  0.19553400  0.57192600  1
  C  194  1  0.40294800  0.15192900  0.57702400  1
  C  195  1  0.36226200  0.16293500  0.58253400  1
  C  196  1  0.34979100  0.15716700  0.56100000  1
  C  197  1  0.32597700  0.14901300  0.55723000  1
  C  198  1  0.31403800  0.14518100  0.57443100  1
  C  199  1  0.32697100  0.14841800  0.59467700  1
  C  200  1  0.35085600  0.15634500  0.59819900  1
  C  201  1  0.41026900  0.14079700  0.59036300  1
  C  202  1  0.42373300  0.11936300  0.57986900  1
  C  203  1  0.42966500  0.10741200  0.55521200  1
  C  204  1  0.42161800  0.11759500  0.54136300  1
  C  205  1  0.40826000  0.13910300  0.55199800  1
  C  226  1  0.40143200  0.47625000  0.81423400  1
  C  227  1  0.42007400  0.47620700  0.82908500  1
  C  228  1  0.41526400  0.47159900  0.84795500  1
  C  229  1  0.39170000  0.46739100  0.85333800  1
  C  230  1  0.37336200  0.46713400  0.83782100  1
  C  231  1  0.37800400  0.47174800  0.81896300  1
  C  232  1  0.38719600  0.45822800  0.87096800  1
  C  233  1  0.39138700  0.43126300  0.85392400  1
  C  234  1  0.37326200  0.41643400  0.83768600  1
  C  235  1  0.37780200  0.39283800  0.81904000  1
  C  236  1  0.40096800  0.38304400  0.81525000  1
  C  237  1  0.41936400  0.39738400  0.83102200  1
  C  238  1  0.41465300  0.42099500  0.84969700  1
  C  239  1  0.40301500  0.46965800  0.89342100  1
  C  240  1  0.36233200  0.46423100  0.88239900  1
  C  241  1  0.34991000  0.44856600  0.88833900  1
  C  242  1  0.32609500  0.45295100  0.89648700  1
  C  243  1  0.31411500  0.47391000  0.90016400  1
  C  244  1  0.32700200  0.49085300  0.89678300  1
  C  245  1  0.35086900  0.48641500  0.88880800  1
  C  246  1  0.41018900  0.49417900  0.90464400  1
  C  247  1  0.42365600  0.50512400  0.92607300  1
  C  248  1  0.42970300  0.49237500  0.93795200  1
  C  249  1  0.42179300  0.46829500  0.92769200  1
  C  250  1  0.40844600  0.45741300  0.90617400  1
  C  271  1  0.05187400  0.23050300  0.56945900  1
  C  272  1  0.03341000  0.21493400  0.56835200  1
  C  273  1  0.03816700  0.19610900  0.57305900  1
  C  274  1  0.06153400  0.19158300  0.57859000  1
  C  275  1  0.07970100  0.20771000  0.57982600  1
  C  276  1  0.07512100  0.22646000  0.57504800  1
  C  277  1  0.06597300  0.17421400  0.58808900  1
  C  278  1  0.06183600  0.19159700  0.61500300  1
  C  279  1  0.08030400  0.20706300  0.63007200  1
  C  280  1  0.07584300  0.22599800  0.65356100  1
  C  281  1  0.05248600  0.23085000  0.66299200  1
  C  282  1  0.03377500  0.21586900  0.64837000  1
  C  283  1  0.03838900  0.19691800  0.62489100  1
  C  284  1  0.05006200  0.15182600  0.57713700  1
  C  285  1  0.09078400  0.16266800  0.58202000  1
  C  286  1  0.10273300  0.15592800  0.59731400  1
  C  287  1  0.12654300  0.14772800  0.59307100  1
  C  288  1  0.13894100  0.14478500  0.57258600  1
  C  289  1  0.12649800  0.14891600  0.55591000  1
  C  290  1  0.10265300  0.15694300  0.56019800  1
  C  291  1  0.04391700  0.13946200  0.55230700  1
  C  292  1  0.03047800  0.11800000  0.54175000  1
  C  293  1  0.02319500  0.10741100  0.55546300  1
  C  294  1  0.02994200  0.11890600  0.57989400  1
  C  295  1  0.04349500  0.14027500  0.59029300  1
  C  316  1  0.05231800  0.47536500  0.66123200  1
  C  317  1  0.03355100  0.47489200  0.64624600  1
  C  318  1  0.03825700  0.47024000  0.62273200  1
  C  319  1  0.06183100  0.46639900  0.61320000  1
  C  320  1  0.08032300  0.46675500  0.62862400  1
  C  321  1  0.07578400  0.47143900  0.65213300  1
  C  322  1  0.06624300  0.45683900  0.58631600  1
  C  323  1  0.06212600  0.42992900  0.57680900  1
  C  324  1  0.08021100  0.41541300  0.57882200  1
  C  325  1  0.07570200  0.39193800  0.57425700  1
  C  326  1  0.05262200  0.38195600  0.56802300  1
  C  327  1  0.03428400  0.39599200  0.56597500  1
  C  328  1  0.03895400  0.41947700  0.57051500  1
  C  329  1  0.05032300  0.46776700  0.57486100  1
  C  330  1  0.09105500  0.46286100  0.58078700  1
  C  331  1  0.10386000  0.44683300  0.55959700  1
  C  332  1  0.12761600  0.45142300  0.55588300  1
  C  333  1  0.13915000  0.47289600  0.57276100  1
  C  334  1  0.12591400  0.49006700  0.59264100  1
  C  335  1  0.10207200  0.48545800  0.59608200  1
  C  336  1  0.04249700  0.49209700  0.58777800  1
  C  337  1  0.02925200  0.50261200  0.57671100  1
  C  338  1  0.02379900  0.48940800  0.55188200  1
  C  339  1  0.03256100  0.46568500  0.53849700  1
  C  340  1  0.04569000  0.45524300  0.54969200  1
  C  361  1  0.05214300  0.38363100  0.81474900  1
  C  362  1  0.03368700  0.39803000  0.83038500  1
  C  363  1  0.03842000  0.42157500  0.84919400  1
  C  364  1  0.06175500  0.43169400  0.85365800  1
  C  365  1  0.07991400  0.41686100  0.83746800  1
  C  366  1  0.07535300  0.39333400  0.81871200  1
  C  367  1  0.06617700  0.45855900  0.87104600  1
  C  368  1  0.06212000  0.46809600  0.85365200  1
  C  369  1  0.08065600  0.46786300  0.83833600  1
  C  370  1  0.07624200  0.47236300  0.81935700  1
  C  371  1  0.05288400  0.47678500  0.81435100  1
  C  372  1  0.03410900  0.47699900  0.82920600  1
  C  373  1  0.03866600  0.47248700  0.84817700  1
  C  374  1  0.05021700  0.46998100  0.89340200  1
  C  375  1  0.09096100  0.46403500  0.88264800  1
  C  376  1  0.10284200  0.48613900  0.88955600  1
  C  377  1  0.12662300  0.49013900  0.89783400  1
  C  378  1  0.13905700  0.47256900  0.90070100  1
  C  379  1  0.12668600  0.45166400  0.89637900  1
  C  380  1  0.10287800  0.44786600  0.88824200  1
  C  381  1  0.04419800  0.45752900  0.90581200  1
  C  382  1  0.03072100  0.46839700  0.92725000  1
  C  383  1  0.02326600  0.49264100  0.93776100  1
  C  384  1  0.02987000  0.50555900  0.92620600  1
  C  385  1  0.04346300  0.49462900  0.90485800  1
  C  406  1  0.55229600  0.82936300  0.46092100  1
  C  407  1  0.53378600  0.84489800  0.46204900  1
  C  408  1  0.53848000  0.86377600  0.45740800  1
  C  409  1  0.56182700  0.86837700  0.45190300  1
  C  410  1  0.58004800  0.85229100  0.45065800  1
  C  411  1  0.57553000  0.83350200  0.45539100  1
  C  412  1  0.56619800  0.88578300  0.44244000  1
  C  413  1  0.56204900  0.86842200  0.41552200  1
  C  414  1  0.58051100  0.85296300  0.40043800  1
  C  415  1  0.57603100  0.83401000  0.37696100  1
  C  416  1  0.55267300  0.82917600  0.36753100  1
  C  417  1  0.53396800  0.84416000  0.38216800  1
  C  418  1  0.53859500  0.86309000  0.40565400  1
  C  419  1  0.55025100  0.90814500  0.45342200  1
  C  420  1  0.59099100  0.89736700  0.44852100  1
  C  421  1  0.60296400  0.90407200  0.43321200  1
  C  422  1  0.62676500  0.91229400  0.43748100  1
  C  423  1  0.63913600  0.91527400  0.45799400  1
  C  424  1  0.62665900  0.91120000  0.47469100  1
  C  425  1  0.60282300  0.90315400  0.47037800  1
  C  426  1  0.54406200  0.92044300  0.47824100  1
  C  427  1  0.53058500  0.94188100  0.48881700  1
  C  428  1  0.52331300  0.95251500  0.47514400  1
  C  429  1  0.53010600  0.94108900  0.45072800  1
  C  430  1  0.54369500  0.91974000  0.44030600  1
  C  451  1  0.55201400  0.58427700  0.36902600  1
  C  452  1  0.53355000  0.58304600  0.38341500  1
  C  453  1  0.53828400  0.58770800  0.40693500  1
  C  454  1  0.56163000  0.59328400  0.41704400  1
  C  455  1  0.57979200  0.59463100  0.40220600  1
  C  456  1  0.57524400  0.58989100  0.37868800  1
  C  457  1  0.56606000  0.60272900  0.44389800  1
  C  458  1  0.56202000  0.62966500  0.45348400  1
  C  459  1  0.58053100  0.64474500  0.45319100  1
  C  460  1  0.57611000  0.66822300  0.45769200  1
  C  461  1  0.55275400  0.67765600  0.46215300  1
  C  462  1  0.53400000  0.66304000  0.46245100  1
  C  463  1  0.53857300  0.63955400  0.45792100  1
  C  464  1  0.55009400  0.59181200  0.45532700  1
  C  465  1  0.59083900  0.59653200  0.44930500  1
  C  466  1  0.60283900  0.61171300  0.47133900  1
  C  467  1  0.62659800  0.60730900  0.47527400  1
  C  468  1  0.63891400  0.58680300  0.45766000  1
  C  469  1  0.62643900  0.57025600  0.43681800  1
  C  470  1  0.60263300  0.57469200  0.43312300  1
  C  471  1  0.54396300  0.56697700  0.44285900  1
  C  472  1  0.53051000  0.55642000  0.45375400  1
  C  473  1  0.52320400  0.57013500  0.47804700  1
  C  474  1  0.52993100  0.59457100  0.49098500  1
  C  475  1  0.54349700  0.60497100  0.48002500  1
  C  496  1  0.55224100  0.67628600  0.21588300  1
  C  497  1  0.53377800  0.66189400  0.20025800  1
  C  498  1  0.53850000  0.63835900  0.18142300  1
  C  499  1  0.56183100  0.62822500  0.17695800  1
  C  500  1  0.57999300  0.64304000  0.19315700  1
  C  501  1  0.57545000  0.66657600  0.21190500  1
  C  502  1  0.56623200  0.60135600  0.15957000  1
  C  503  1  0.56208400  0.59181500  0.17694700  1
  C  504  1  0.58055600  0.59204700  0.19232200  1
  C  505  1  0.57605200  0.58751200  0.21126400  1
  C  506  1  0.55266600  0.58305400  0.21616700  1
  C  507  1  0.53395400  0.58286800  0.20127000  1
  C  508  1  0.53860200  0.58739900  0.18232700  1
  C  509  1  0.55031200  0.58993300  0.13718800  1
  C  510  1  0.59103600  0.59587300  0.14801200  1
  C  511  1  0.60293900  0.57379500  0.14118100  1
  C  512  1  0.62672200  0.56978700  0.13290500  1
  C  513  1  0.63914900  0.58732900  0.12999000  1
  C  514  1  0.62676800  0.60821600  0.13426500  1
  C  515  1  0.60295000  0.61200800  0.14236900  1
  C  516  1  0.54424800  0.60239800  0.12480200  1
  C  517  1  0.53076400  0.59152700  0.10336800  1
  C  518  1  0.52335700  0.56726700  0.09283600  1
  C  519  1  0.53002800  0.55433000  0.10435000  1
  C  520  1  0.54361800  0.56526400  0.12569600  1
  C  541  1  0.92034100  0.57687600  0.26706700  1
  C  542  1  0.90753000  0.59465400  0.28724400  1
  C  543  1  0.90746000  0.59455700  0.30924800  1
  C  544  1  0.92031400  0.57676800  0.31159300  1
  C  545  1  0.93292000  0.55889500  0.29135300  1
  C  546  1  0.93257400  0.55869300  0.26922700  1
  C  555  1  0.92247600  0.57789900  0.24602500  1
  C  557  1  0.92231400  0.57769000  0.33362400  1
  C  559  1  0.92074500  0.73451600  0.46862800  1
  C  560  1  0.90801900  0.73691100  0.45080200  1
  C  561  1  0.90798200  0.75901100  0.45089900  1
  C  562  1  0.92078300  0.77916200  0.46873700  1
  C  563  1  0.93333100  0.77678800  0.48663600  1
  C  564  1  0.93295300  0.75486100  0.48683700  1
  C  573  1  0.92276300  0.71247000  0.46767800  1
  C  575  1  0.92273500  0.80031900  0.46789200  1
  C  577  1  0.92045300  0.77826800  0.31063600  1
  C  578  1  0.90769100  0.75805600  0.30820700  1
  C  579  1  0.90764800  0.73607000  0.28609200  1
  C  580  1  0.92046600  0.73377500  0.26595700  1
  C  581  1  0.93303400  0.75405000  0.26836000  1
  C  582  1  0.93266300  0.77616000  0.29030300  1
  C  591  1  0.92256500  0.79929600  0.33271700  1
  C  593  1  0.92246600  0.71177300  0.24481200  1
  C  595  1  0.42064800  0.48318200  0.76392500  1
  C  596  1  0.40795400  0.46533900  0.74369100  1
  C  597  1  0.40794200  0.46543600  0.72168800  1
  C  598  1  0.42072300  0.48330200  0.71940300  1
  C  599  1  0.43322800  0.50122300  0.73969300  1
  C  600  1  0.43282600  0.50142100  0.76181800  1
  C  609  1  0.42269800  0.48218600  0.78498800  1
  C  611  1  0.42272100  0.48243600  0.69739700  1
  C  613  1  0.42044400  0.32517500  0.56210600  1
  C  614  1  0.40771300  0.32276000  0.57991300  1
  C  615  1  0.40766600  0.30064200  0.57978100  1
  C  616  1  0.42046500  0.28050000  0.56192500  1
  C  617  1  0.43299800  0.28288900  0.54402800  1
  C  618  1  0.43262900  0.30483300  0.54386400  1
  C  627  1  0.42254800  0.34725200  0.56315000  1
  C  629  1  0.42243400  0.25934100  0.56276200  1
  C  631  1  0.42032000  0.28153900  0.72003600  1
  C  632  1  0.40754700  0.30175100  0.72247900  1
  C  633  1  0.40751600  0.32373500  0.74459800  1
  C  634  1  0.42037200  0.32603000  0.76471200  1
  C  635  1  0.43294900  0.30575500  0.76229700  1
  C  636  1  0.43256700  0.28364800  0.74035200  1
  C  645  1  0.42241600  0.26051100  0.69795100  1
  C  647  1  0.42237100  0.34802800  0.78586600  1
  C  649  1  0.03303300  0.32652600  0.76422600  1
  C  650  1  0.04600500  0.32405800  0.74410300  1
  C  651  1  0.04615000  0.30192400  0.72213300  1
  C  652  1  0.03322600  0.28182500  0.71978000  1
  C  653  1  0.02045200  0.28426700  0.73996600  1
  C  654  1  0.02072200  0.30622400  0.76206200  1
  C  663  1  0.03085500  0.34861200  0.78523300  1
  C  665  1  0.03121700  0.26071900  0.69776500  1
  C  667  1  0.03273300  0.28101800  0.56287500  1
  C  668  1  0.04569000  0.30117200  0.58049600  1
  C  669  1  0.04587300  0.32308500  0.58021900  1
  C  670  1  0.03300400  0.32534800  0.56238700  1
  C  671  1  0.02023400  0.30513100  0.54468600  1
  C  672  1  0.02045900  0.28309400  0.54466700  1
  C  681  1  0.03055300  0.26006100  0.56404400  1
  C  683  1  0.03111500  0.34729400  0.56311800  1
  C  685  1  0.03349200  0.48183400  0.71837000  1
  C  686  1  0.04657700  0.46432000  0.72096800  1
  C  687  1  0.04674700  0.46461900  0.74317100  1
  C  688  1  0.03372700  0.48235400  0.76319400  1
  C  689  1  0.02088000  0.49998800  0.76063000  1
  C  690  1  0.02111600  0.49998700  0.73860400  1
  C  699  1  0.03120800  0.48054400  0.69620400  1
  C  701  1  0.03169700  0.48153400  0.78435000  1
  C  703  1  0.53314400  0.73337400  0.26643300  1
  C  704  1  0.54613200  0.73587400  0.28656000  1
  C  705  1  0.54629100  0.75803100  0.30850600  1
  C  706  1  0.53335300  0.77811100  0.31083200  1
  C  707  1  0.52056700  0.77563900  0.29063900  1
  C  708  1  0.52082100  0.75365800  0.26856800  1
  C  717  1  0.53095500  0.71127100  0.24545100  1
  C  719  1  0.53137400  0.79925300  0.33282100  1
  C  721  1  0.53328300  0.77874300  0.46736600  1
  C  722  1  0.54629300  0.75862000  0.44976600  1
  C  723  1  0.54646800  0.73668900  0.45001000  1
  C  724  1  0.53354200  0.73438600  0.46778400  1
  C  725  1  0.52073800  0.75458100  0.48548000  1
  C  726  1  0.52097400  0.77663500  0.48553600  1
  C  735  1  0.53105400  0.79968900  0.46619100  1
  C  737  1  0.53152900  0.71239800  0.46693300  1
  C  739  1  0.53297400  0.57770600  0.31191900  1
  C  740  1  0.54596800  0.59533800  0.30943300  1
  C  741  1  0.54617700  0.59511300  0.28726900  1
  C  742  1  0.53329900  0.57732100  0.26716100  1
  C  743  1  0.52050800  0.55959800  0.26962100  1
  C  744  1  0.52071000  0.55952500  0.29161000  1
  C  753  1  0.53075000  0.57884300  0.33402400  1
  C  755  1  0.53134300  0.57817100  0.24601800  1
  C  757  1  0.75104200  0.57628200  0.45968300  1
  C  758  1  0.73885500  0.59222900  0.45404600  1
  C  759  1  0.71427700  0.59703100  0.45927500  1
  C  760  1  0.70147600  0.58591400  0.47016300  1
  C  761  1  0.71360400  0.57002800  0.47585100  1
  C  762  1  0.73817000  0.56507600  0.47044200  1
  C  771  1  0.77496500  0.57104600  0.45394800  1
  C  773  1  0.67751400  0.59092000  0.47549300  1
  C  775  1  0.75129100  0.92729700  0.46815200  1
  C  776  1  0.73910300  0.90574400  0.45213100  1
  C  777  1  0.71453900  0.90621700  0.44730300  1
  C  778  1  0.70176200  0.92823400  0.45847000  1
  C  779  1  0.71389600  0.94978000  0.47441800  1
  C  780  1  0.73844600  0.94927700  0.47939800  1
  C  789  1  0.77515400  0.92673300  0.47352200  1
  C  791  1  0.67780900  0.92859800  0.45347000  1
  C  793  1  0.75130200  0.58496900  0.11758900  1
  C  794  1  0.73915700  0.59046300  0.13915400  1
  C  795  1  0.71456400  0.58528900  0.13874000  1
  C  796  1  0.70171200  0.57460700  0.11676900  1
  C  797  1  0.71380100  0.56904700  0.09521100  1
  C  798  1  0.73837800  0.57440400  0.09565800  1
  C  807  1  0.77519000  0.59080800  0.11810100  1
  C  809  1  0.67773100  0.56935700  0.11645500  1
  C  811  1  0.25139300  0.48338600  0.57120300  1
  C  812  1  0.23922500  0.46734200  0.57671800  1
  C  813  1  0.21463800  0.46258300  0.57152200  1
  C  814  1  0.20181200  0.47386200  0.56081500  1
  C  815  1  0.21391400  0.48985500  0.55525900  1
  C  816  1  0.23849000  0.49475800  0.56063000  1
  C  825  1  0.27529900  0.48863700  0.57698300  1
  C  827  1  0.17789300  0.46876100  0.55537200  1
  C  829  1  0.25110700  0.13236900  0.56249000  1
  C  830  1  0.23894300  0.15396600  0.57843300  1
  C  831  1  0.21435200  0.15357200  0.58321000  1
  C  832  1  0.20152100  0.13158500  0.57206600  1
  C  833  1  0.21363300  0.10999300  0.55619500  1
  C  834  1  0.23820800  0.11042000  0.55126300  1
  C  843  1  0.27499100  0.13286100  0.55714900  1
  C  845  1  0.17754300  0.13128900  0.57703200  1
  C  847  1  0.25118700  0.47485400  0.91307600  1
  C  848  1  0.23905200  0.46947000  0.89153700  1
  C  849  1  0.21446600  0.47468100  0.89197400  1
  C  850  1  0.20161200  0.48528800  0.91394200  1
  C  851  1  0.21368800  0.49073500  0.93547300  1
  C  852  1  0.23826000  0.48534400  0.93500400  1
  C  861  1  0.27506700  0.46897500  0.91253600  1
  C  863  1  0.17763800  0.49056100  0.91427300  1
  C  865  1  0.96486800  0.53636000  0.49924300  1
  C  866  1  0.96757100  0.51170800  0.49226300  1
  C  867  1  0.97888100  0.50475300  0.50758900  1
  C  868  1  0.98713200  0.52228800  0.53074600  1
  C  869  1  0.98397800  0.54694100  0.53793300  1
  C  870  1  0.97357100  0.55388200  0.52221000  1
  C  879  1  0.95469600  0.54266700  0.48327500  1
  C  881  1  0.99723300  0.51596200  0.54672700  1
  C  883  1  0.96146300  0.00953500  0.51004200  1
  C  884  1  0.97690400  0.01956000  0.53032200  1
  C  885  1  0.99154100  0.03965800  0.53574500  1
  C  886  1  0.99091400  0.05058400  0.52121700  1
  C  887  1  0.97513500  0.04083400  0.50120100  1
  C  888  1  0.96086900  0.02043300  0.49548900  1
  C  897  1  0.94678700  0.99009100  0.50549600  1
  C  899  1  0.00575000  0.06987300  0.52559700  1
  C  901  1  0.96148800  0.54486300  0.03562200  1
  C  902  1  0.97678100  0.55519200  0.02555500  1
  C  903  1  0.99145700  0.54058900  0.00546500  1
  C  904  1  0.99102800  0.51513600  0.99459900  1
  C  905  1  0.97538900  0.50479400  0.00438300  1
  C  906  1  0.96107900  0.51941400  0.02477200  1
  C  915  1  0.94676800  0.55969100  0.05505800  1
  C  917  1  0.00591600  0.50030600  0.97532800  1
  C  919  1  0.46149100  0.52466400  0.53043400  1
  C  920  1  0.47694300  0.54493500  0.54071600  1
  C  921  1  0.49159400  0.55037100  0.52606000  1
  C  922  1  0.49098100  0.53585600  0.50060600  1
  C  923  1  0.47519300  0.51584800  0.49031300  1
  C  924  1  0.46090700  0.51012500  0.50498000  1
  C  933  1  0.44681200  0.52009500  0.54531000  1
  C  935  1  0.50582600  0.54025500  0.48572100  1
  C  937  1  0.46140900  0.05027300  0.52065600  1
  C  938  1  0.47687700  0.04031700  0.50039800  1
  C  939  1  0.49155600  0.02024300  0.49495900  1
  C  940  1  0.49094700  0.00927400  0.50944800  1
  C  941  1  0.47514400  0.01895900  0.52944600  1
  C  942  1  0.46083900  0.03934200  0.53517900  1
  C  951  1  0.44669400  0.06969500  0.52522000  1
  C  953  1  0.50581400  0.99000000  0.50504500  1
  C  955  1  0.46139500  0.51498800  0.99511400  1
  C  956  1  0.47669300  0.50468200  0.00519800  1
  C  957  1  0.49141000  0.51930000  0.02524700  1
  C  958  1  0.49100700  0.54474800  0.03606100  1
  C  959  1  0.47536600  0.55507000  0.02625800  1
  C  960  1  0.46102300  0.54043300  0.00590300  1
  C  969  1  0.44665300  0.50014700  0.97570600  1
  C  971  1  0.50592800  0.55959200  0.05529600  1
  N  41  1  0.79049500  0.58808100  0.46233500  1
  N  42  1  0.94059100  0.56082400  0.49017200  1
  N  43  1  0.90446800  0.69894000  0.46398800  1
  N  44  1  0.90395900  0.58092300  0.34696500  1
  N  86  1  0.79086300  0.91842800  0.45665000  1
  N  87  1  0.94268900  0.97252700  0.48410300  1
  N  88  1  0.90432100  0.80922700  0.34630200  1
  N  89  1  0.90437800  0.81029200  0.46447800  1
  N  131  1  0.79086700  0.58229800  0.12649600  1
  N  132  1  0.94274400  0.55585700  0.07263200  1
  N  133  1  0.90423100  0.58146300  0.23602900  1
  N  134  1  0.90413100  0.69836100  0.23481500  1
  N  176  1  0.29091900  0.47167900  0.56837200  1
  N  177  1  0.44273000  0.49869200  0.54145700  1
  N  178  1  0.40430000  0.36083500  0.56680300  1
  N  179  1  0.40437500  0.47900600  0.68399500  1
  N  221  1  0.29067400  0.14123400  0.57405000  1
  N  222  1  0.44258500  0.08724400  0.54661700  1
  N  223  1  0.40415300  0.25055400  0.68440300  1
  N  224  1  0.40409100  0.24938300  0.56621900  1
  N  266  1  0.29075800  0.47749700  0.90416500  1
  N  267  1  0.44262300  0.50395000  0.95811600  1
  N  268  1  0.40442900  0.47848100  0.79485400  1
  N  269  1  0.40403500  0.36143300  0.79588000  1
  N  311  1  0.16232700  0.14088800  0.56935600  1
  N  312  1  0.01018500  0.08731700  0.54696600  1
  N  313  1  0.04886900  0.24987400  0.56721700  1
  N  314  1  0.04958800  0.25037300  0.68455000  1
  N  356  1  0.16249700  0.47657500  0.57250100  1
  N  357  1  0.01198400  0.49831600  0.53995700  1
  N  358  1  0.04948800  0.47762100  0.68287600  1
  N  359  1  0.04954500  0.36046300  0.56607300  1
  N  401  1  0.16243100  0.47327900  0.90468000  1
  N  402  1  0.01022800  0.50419600  0.95784100  1
  N  403  1  0.04914800  0.36202500  0.79537200  1
  N  404  1  0.05004400  0.47873000  0.79477000  1
  N  446  1  0.66251800  0.91916800  0.46125700  1
  N  447  1  0.51027300  0.97259100  0.48366500  1
  N  448  1  0.54935700  0.80997300  0.46314000  1
  N  449  1  0.54975900  0.80961500  0.34600600  1
  N  491  1  0.66228400  0.58348100  0.45825200  1
  N  492  1  0.51019800  0.56162800  0.48963500  1
  N  493  1  0.54904100  0.58203400  0.34741300  1
  N  494  1  0.54989300  0.69919200  0.46412700  1
  N  536  1  0.66253100  0.58664500  0.12607300  1
  N  537  1  0.51029100  0.55571200  0.07278000  1
  N  538  1  0.54926100  0.69789600  0.23526100  1
  N  539  1  0.54973600  0.58105400  0.23570400  1
  O  547  1  0.89638200  0.61303300  0.32862000  1
  O  549  1  0.89657400  0.61324700  0.28646600  1
  O  550  1  0.94524200  0.54124100  0.29268000  1
  O  551  1  0.94534600  0.54133500  0.25044900  1
  O  565  1  0.89694200  0.75991600  0.43240900  1
  O  567  1  0.89707100  0.71754400  0.43219500  1
  O  568  1  0.94559700  0.79577800  0.50434300  1
  O  569  1  0.94564100  0.75345100  0.50424500  1
  O  583  1  0.89659800  0.71666900  0.28516400  1
  O  585  1  0.89675300  0.75878400  0.32756300  1
  O  586  1  0.94532800  0.75277900  0.24939000  1
  O  587  1  0.94540300  0.79496800  0.29175000  1
  O  601  1  0.39695600  0.44692100  0.70227200  1
  O  603  1  0.39705200  0.44669700  0.74442000  1
  O  604  1  0.44548500  0.51894200  0.73842400  1
  O  605  1  0.44549900  0.51883600  0.78064600  1
  O  619  1  0.39665500  0.29973300  0.59828100  1
  O  621  1  0.39680400  0.34212600  0.59855800  1
  O  622  1  0.44525600  0.26390700  0.52630400  1
  O  623  1  0.44532800  0.30627200  0.52647700  1
  O  637  1  0.39644600  0.34313500  0.74554300  1
  O  639  1  0.39656600  0.30101100  0.70313600  1
  O  640  1  0.44526900  0.30702400  0.78125200  1
  O  641  1  0.44531000  0.26483400  0.73888600  1
  O  655  1  0.05739100  0.30093500  0.70279200  1
  O  657  1  0.05705200  0.34339600  0.74489500  1
  O  658  1  0.00803600  0.26532300  0.73861900  1
  O  659  1  0.00778400  0.30771800  0.78078200  1
  O  673  1  0.05711100  0.34246000  0.59853500  1
  O  675  1  0.05669800  0.30046000  0.59910100  1
  O  676  1  0.00787900  0.30638400  0.52700900  1
  O  677  1  0.00753600  0.26433500  0.52747200  1
  O  691  1  0.05806400  0.44636300  0.74427200  1
  O  693  1  0.05768800  0.44577100  0.70168900  1
  O  694  1  0.00838800  0.51758200  0.77950200  1
  O  695  1  0.00808100  0.51708200  0.73697200  1
  O  709  1  0.55755400  0.75906100  0.32785700  1
  O  711  1  0.55719800  0.71655200  0.28578100  1
  O  712  1  0.50815100  0.79456800  0.29195700  1
  O  713  1  0.50787900  0.75212800  0.24983400  1
  O  727  1  0.55773300  0.71733000  0.43170000  1
  O  729  1  0.55733800  0.75937200  0.43119900  1
  O  730  1  0.50832000  0.75328000  0.50309900  1
  O  731  1  0.50799900  0.79536200  0.50270600  1
  O  745  1  0.55742900  0.61344700  0.28625700  1
  O  747  1  0.55697100  0.61391900  0.32877700  1
  O  748  1  0.50813400  0.54196300  0.25067000  1
  O  749  1  0.50775700  0.54232100  0.29312800  1
  O  763  1  0.70333200  0.61303900  0.45427500  1
  O  765  1  0.75049200  0.60348600  0.44373200  1
  O  766  1  0.70164200  0.55856700  0.48574600  1
  O  767  1  0.74907900  0.54912700  0.47551900  1
  O  781  1  0.70357300  0.88523500  0.43126900  1
  O  783  1  0.75073100  0.88417000  0.44086500  1
  O  784  1  0.70195000  0.97114200  0.48592200  1
  O  785  1  0.74935500  0.97026600  0.49543900  1
  O  799  1  0.70364300  0.59019300  0.15972800  1
  O  801  1  0.75084600  0.60062400  0.16069200  1
  O  802  1  0.70178400  0.55936000  0.07389700  1
  O  803  1  0.74923700  0.56950500  0.07466200  1
  O  817  1  0.20370700  0.44648200  0.57639700  1
  O  819  1  0.25089800  0.45595100  0.58687300  1
  O  820  1  0.20192500  0.50142000  0.54549000  1
  O  821  1  0.24938000  0.51081500  0.55569400  1
  O  835  1  0.20341600  0.17459500  0.59918800  1
  O  837  1  0.25061900  0.17551700  0.58968000  1
  O  838  1  0.20164100  0.08865600  0.54471400  1
  O  839  1  0.24909000  0.08938700  0.53529000  1
  O  853  1  0.20355200  0.46987600  0.87101300  1
  O  855  1  0.25073800  0.45937400  0.87000100  1
  O  856  1  0.20166700  0.50034900  0.95678100  1
  O  857  1  0.24910800  0.49013700  0.95597100  1
  O  871  1  0.98038500  0.48081600  0.50014600  1
  O  873  1  0.95973800  0.49400600  0.47035000  1
  O  874  1  0.99213100  0.56455800  0.55974300  1
  O  875  1  0.97177900  0.57786200  0.52995800  1
  O  889  1  0.00709800  0.04752300  0.55456100  1
  O  891  1  0.97884700  0.00929200  0.54443600  1
  O  892  1  0.97369200  0.05055800  0.48657400  1
  O  893  1  0.94559900  0.01229100  0.47642000  1
  O  907  1  0.00687600  0.55161600  0.99756600  1
  O  909  1  0.97854500  0.57958000  0.03577400  1
  O  910  1  0.97414000  0.48044200  0.99471600  1
  O  911  1  0.94596100  0.50841400  0.03296000  1
  O  925  1  0.50715700  0.56918000  0.53702900  1
  O  927  1  0.47887000  0.55903200  0.56510100  1
  O  928  1  0.47377100  0.50123700  0.46596000  1
  O  929  1  0.44563900  0.49105800  0.49403400  1
  O  943  1  0.50713300  0.01244200  0.47616600  1
  O  945  1  0.47880200  0.05063100  0.48632500  1
  O  946  1  0.47372300  0.00919700  0.54403800  1
  O  947  1  0.44555100  0.04742300  0.55422700  1
  O  961  1  0.50682400  0.50828800  0.03316700  1
  O  963  1  0.47842500  0.48029700  0.99503200  1
  O  964  1  0.47414000  0.57941800  0.03587700  1
  O  965  1  0.44589600  0.55141900  0.99770500  1
