# generated using pymatgen
data_H24C41(NO)8
_symmetry_space_group_name_H-M   'P 1'
_cell_length_a   28.91050000
_cell_length_b   60.92090000
_cell_length_c   104.03100000
_cell_angle_alpha   90.00000000
_cell_angle_beta   90.00000000
_cell_angle_gamma   90.00000000
_symmetry_Int_Tables_number   1
_chemical_formula_structural   H24C41(NO)8
_chemical_formula_sum   'H768 C1312 N256 O256'
_cell_volume   183224.98152686
_cell_formula_units_Z   32
loop_
 _symmetry_equiv_pos_site_id
 _symmetry_equiv_pos_as_xyz
  1  'x, y, z'
loop_
 _atom_site_type_symbol
 _atom_site_label
 _atom_site_symmetry_multiplicity
 _atom_site_fract_x
 _atom_site_fract_y
 _atom_site_fract_z
 _atom_site_occupancy
  H  25  1  0.30640600  0.33122000  0.28949300  1
  H  26  1  0.33434600  0.29462300  0.28672300  1
  H  27  1  0.31633900  0.21380000  0.29140600  1
  H  28  1  0.27233600  0.18250900  0.29762200  1
  H  29  1  0.16981100  0.22383300  0.31307100  1
  H  30  1  0.18769900  0.30679100  0.30820200  1
  H  31  1  0.27580100  0.26318600  0.32445100  1
  H  32  1  0.19805900  0.27019300  0.35841300  1
  H  33  1  0.12894500  0.27151600  0.34611700  1
  H  34  1  0.18882800  0.25933000  0.28150100  1
  H  35  1  0.04471300  0.26692800  0.30453100  1
  H  36  1  0.04329500  0.26162100  0.28190900  1
  H  39  1  0.30201900  0.25435000  0.28327500  1
  H  40  1  0.33055000  0.25566300  0.29834000  1
  H  42  1  0.09457600  0.25538400  0.32461400  1
  H  43  1  0.09897800  0.28425200  0.32293200  1
  H  76  1  0.30661600  0.42086900  0.46214800  1
  H  77  1  0.33441500  0.45747900  0.46496600  1
  H  78  1  0.31604200  0.53830700  0.46041700  1
  H  79  1  0.27185000  0.56957800  0.45428500  1
  H  80  1  0.16956600  0.52823000  0.43873500  1
  H  81  1  0.18777800  0.44527000  0.44349100  1
  H  82  1  0.27577600  0.48895900  0.42730400  1
  H  83  1  0.19815600  0.48191200  0.39332400  1
  H  84  1  0.12900500  0.48056600  0.40560200  1
  H  85  1  0.18868500  0.49261300  0.47023900  1
  H  86  1  0.04465200  0.48507400  0.44717300  1
  H  87  1  0.04315400  0.49028900  0.46979200  1
  H  90  1  0.30194300  0.49771100  0.46847300  1
  H  91  1  0.33044500  0.49648400  0.45340100  1
  H  93  1  0.09454900  0.49668000  0.42711100  1
  H  94  1  0.09898600  0.46780900  0.42876800  1
  H  127  1  0.41406400  0.43524200  0.28454600  1
  H  128  1  0.40801800  0.47342100  0.28041400  1
  H  129  1  0.45663000  0.55004000  0.28784200  1
  H  130  1  0.50904000  0.57641000  0.29626900  1
  H  131  1  0.58859200  0.52589500  0.31278800  1
  H  132  1  0.53321400  0.44628700  0.30693500  1
  H  133  1  0.46790200  0.49497800  0.32163100  1
  H  134  1  0.53665900  0.47721900  0.35575400  1
  H  135  1  0.60607700  0.47167400  0.34401700  1
  H  136  1  0.56104200  0.49440200  0.27940600  1
  H  137  1  0.69657000  0.47302400  0.30349200  1
  H  138  1  0.70292800  0.47934300  0.28097500  1
  H  141  1  0.45977400  0.50936100  0.27871600  1
  H  142  1  0.42379400  0.51051600  0.29251100  1
  H  144  1  0.64907900  0.48723700  0.32344500  1
  H  145  1  0.63429200  0.45935500  0.32084900  1
  H  178  1  0.41422700  0.31667200  0.46736900  1
  H  179  1  0.40835300  0.27847800  0.47148800  1
  H  180  1  0.45692700  0.20189000  0.46388900  1
  H  181  1  0.50909500  0.17555900  0.45528700  1
  H  182  1  0.58853300  0.22618400  0.43884200  1
  H  183  1  0.53313500  0.30573900  0.44486200  1
  H  184  1  0.46786400  0.25708900  0.43016100  1
  H  185  1  0.53641400  0.27495700  0.39602500  1
  H  186  1  0.60588000  0.28050700  0.40773800  1
  H  187  1  0.56130500  0.25754200  0.47234900  1
  H  188  1  0.69654300  0.27921500  0.44823200  1
  H  189  1  0.70303500  0.27290000  0.47074300  1
  H  192  1  0.46025800  0.24255600  0.47310500  1
  H  193  1  0.42405000  0.24142000  0.45935600  1
  H  195  1  0.64903700  0.26493700  0.42828200  1
  H  196  1  0.63415000  0.29280100  0.43090500  1
  H  229  1  0.69119200  0.67103100  0.71204400  1
  H  230  1  0.66518700  0.70787900  0.71508100  1
  H  231  1  0.68655300  0.78847400  0.71068700  1
  H  232  1  0.73167500  0.81942100  0.70455900  1
  H  233  1  0.83232700  0.77739900  0.68880400  1
  H  234  1  0.81088800  0.69444000  0.69336900  1
  H  235  1  0.72480200  0.73882700  0.67737200  1
  H  236  1  0.80214400  0.73120600  0.64338100  1
  H  237  1  0.87127500  0.72945600  0.65564600  1
  H  238  1  0.81208200  0.74180300  0.72030000  1
  H  239  1  0.95581800  0.73328100  0.69719600  1
  H  240  1  0.95751000  0.73839900  0.71983500  1
  H  243  1  0.69945500  0.74776500  0.71866400  1
  H  244  1  0.67054200  0.74686200  0.70364400  1
  H  246  1  0.90624100  0.74533300  0.67716200  1
  H  247  1  0.90094900  0.71648700  0.67878200  1
  H  280  1  0.69179700  0.58120300  0.54010300  1
  H  281  1  0.66416300  0.54460300  0.53715500  1
  H  282  1  0.68338800  0.46371800  0.54118100  1
  H  283  1  0.72811900  0.43242500  0.54699900  1
  H  284  1  0.83082900  0.47372900  0.56236000  1
  H  285  1  0.81142800  0.55671900  0.55832000  1
  H  286  1  0.72489900  0.51274200  0.57447100  1
  H  287  1  0.80433000  0.51882100  0.60818800  1
  H  288  1  0.87286600  0.52026200  0.59564000  1
  H  289  1  0.80929000  0.51057400  0.53116100  1
  H  290  1  0.95485300  0.51697700  0.55358400  1
  H  291  1  0.95477700  0.51309700  0.53084800  1
  H  294  1  0.69681200  0.50451900  0.53331200  1
  H  295  1  0.66891600  0.50537000  0.54847900  1
  H  297  1  0.90594700  0.50456000  0.57378100  1
  H  298  1  0.90190700  0.53349900  0.57249600  1
  H  331  1  0.58756100  0.56747200  0.71671500  1
  H  332  1  0.59437900  0.52941500  0.72112900  1
  H  333  1  0.54656900  0.45241800  0.71451000  1
  H  334  1  0.49438800  0.42567000  0.70639500  1
  H  335  1  0.41419500  0.47548700  0.68939500  1
  H  336  1  0.46801000  0.55541400  0.69466900  1
  H  337  1  0.53456000  0.50665400  0.68031800  1
  H  338  1  0.46599000  0.52378000  0.64605700  1
  H  339  1  0.39634400  0.52925200  0.65770500  1
  H  340  1  0.44093300  0.50768300  0.72249100  1
  H  341  1  0.30541000  0.52820300  0.69813800  1
  H  342  1  0.29879000  0.52211300  0.72067000  1
  H  345  1  0.54316200  0.49332200  0.72323700  1
  H  346  1  0.57887600  0.49194200  0.70939800  1
  H  348  1  0.35329700  0.51387500  0.67832000  1
  H  349  1  0.36776200  0.54183100  0.68078200  1
  H  382  1  0.58695600  0.68539400  0.53446800  1
  H  383  1  0.59314400  0.72358300  0.53037800  1
  H  384  1  0.54489200  0.80022500  0.53793900  1
  H  385  1  0.49266500  0.82660700  0.54644500  1
  H  386  1  0.41278100  0.77607600  0.56282400  1
  H  387  1  0.46787800  0.69646600  0.55688400  1
  H  388  1  0.53307900  0.74501600  0.57167500  1
  H  389  1  0.46379000  0.72722900  0.60571100  1
  H  390  1  0.39449300  0.72179700  0.59389500  1
  H  391  1  0.44063900  0.74459900  0.52936400  1
  H  392  1  0.30461700  0.72329100  0.55324100  1
  H  393  1  0.29872900  0.72955300  0.53071200  1
  H  396  1  0.54151900  0.75957200  0.52873200  1
  H  397  1  0.57753700  0.76065700  0.54252100  1
  H  399  1  0.35184100  0.73748000  0.57328100  1
  H  400  1  0.36651700  0.70958500  0.57068600  1
  H  433  1  0.80511500  0.33098200  0.78933700  1
  H  434  1  0.83334100  0.29443100  0.78659700  1
  H  435  1  0.81584200  0.21358500  0.79129300  1
  H  436  1  0.77195800  0.18224000  0.79747600  1
  H  437  1  0.66930000  0.22343100  0.81297900  1
  H  438  1  0.68670500  0.30639900  0.80812100  1
  H  439  1  0.77516100  0.26290700  0.82435800  1
  H  440  1  0.69751100  0.26982900  0.85834100  1
  H  441  1  0.62834600  0.27107000  0.84606600  1
  H  442  1  0.68800200  0.25896900  0.78142700  1
  H  443  1  0.54396500  0.26641800  0.80451000  1
  H  444  1  0.54246400  0.26115500  0.78188600  1
  H  447  1  0.80132800  0.25411500  0.78318300  1
  H  448  1  0.82985000  0.25546900  0.79824800  1
  H  450  1  0.59397100  0.25489800  0.82457500  1
  H  451  1  0.59822900  0.28377100  0.82289400  1
  H  484  1  0.80652700  0.42090500  0.96231500  1
  H  485  1  0.83438900  0.45751200  0.96511200  1
  H  486  1  0.81605300  0.53835300  0.96054500  1
  H  487  1  0.77185800  0.56962600  0.95441100  1
  H  488  1  0.66949000  0.52827400  0.93891000  1
  H  489  1  0.68768100  0.44532500  0.94366400  1
  H  490  1  0.77566900  0.48899000  0.92745400  1
  H  491  1  0.69794000  0.48201400  0.89349000  1
  H  492  1  0.62881600  0.48068600  0.90578500  1
  H  493  1  0.68875600  0.49259500  0.97040900  1
  H  494  1  0.54460800  0.48515700  0.94739300  1
  H  495  1  0.54322500  0.49028000  0.97001400  1
  H  498  1  0.80196800  0.49775200  0.96861100  1
  H  499  1  0.83041800  0.49652100  0.95353400  1
  H  501  1  0.59446200  0.49679700  0.92731600  1
  H  502  1  0.59882700  0.46792000  0.92895400  1
  H  535  1  0.91125700  0.43498700  0.78485900  1
  H  536  1  0.90519300  0.47313700  0.78064800  1
  H  537  1  0.95451100  0.54977600  0.78767400  1
  H  538  1  0.00728700  0.57616600  0.79591400  1
  H  539  1  0.08712100  0.52570200  0.81237700  1
  H  540  1  0.03106600  0.44611700  0.80696500  1
  H  541  1  0.96657600  0.49492100  0.82164200  1
  H  542  1  0.03657900  0.47763300  0.85564800  1
  H  543  1  0.10567500  0.47209800  0.84374900  1
  H  544  1  0.05770300  0.49333500  0.77913300  1
  H  545  1  0.19455100  0.47277700  0.80286900  1
  H  546  1  0.19951100  0.47806100  0.78021400  1
  H  549  1  0.95707800  0.50896900  0.77869200  1
  H  550  1  0.92157100  0.51036200  0.79257400  1
  H  552  1  0.14781700  0.48756400  0.82293000  1
  H  553  1  0.13331700  0.45958300  0.82059300  1
  H  586  1  0.91426600  0.31671900  0.96736100  1
  H  587  1  0.90827200  0.27852900  0.97147600  1
  H  588  1  0.95656600  0.20190800  0.96386200  1
  H  589  1  0.00867600  0.17554300  0.95528000  1
  H  590  1  0.08805900  0.22610000  0.93874100  1
  H  591  1  0.03292100  0.30569300  0.94476500  1
  H  592  1  0.96738900  0.25705800  0.93009800  1
  H  593  1  0.03578200  0.27484000  0.89592000  1
  H  594  1  0.10531700  0.28038200  0.90759900  1
  H  595  1  0.06116100  0.25747500  0.97224500  1
  H  596  1  0.19625700  0.27906400  0.94803000  1
  H  597  1  0.20294700  0.27269500  0.97053400  1
  H  600  1  0.96002800  0.24257000  0.97305200  1
  H  601  1  0.92373700  0.24145600  0.95932200  1
  H  603  1  0.14856500  0.26482600  0.92811700  1
  H  604  1  0.13374600  0.29269500  0.93074900  1
  H  637  1  0.19615600  0.67079000  0.21239600  1
  H  638  1  0.16796100  0.70734900  0.21512100  1
  H  639  1  0.18556800  0.78819300  0.21040300  1
  H  640  1  0.22951400  0.81952100  0.20422700  1
  H  641  1  0.33228100  0.77829500  0.18881300  1
  H  642  1  0.31469800  0.69533000  0.19366000  1
  H  643  1  0.22645400  0.73886700  0.17738900  1
  H  644  1  0.30428900  0.73185100  0.14344400  1
  H  645  1  0.37338300  0.73057900  0.15575500  1
  H  646  1  0.31321400  0.74277400  0.22034200  1
  H  647  1  0.45746000  0.73521000  0.19738200  1
  H  648  1  0.45875000  0.74047700  0.22000400  1
  H  651  1  0.20001700  0.74766200  0.21854300  1
  H  652  1  0.17156900  0.74630800  0.20346700  1
  H  654  1  0.40766500  0.74675600  0.17726900  1
  H  655  1  0.40331400  0.71788700  0.17895400  1
  H  688  1  0.19138800  0.58118900  0.04014200  1
  H  689  1  0.16384600  0.54458500  0.03715200  1
  H  690  1  0.18329000  0.46370000  0.04107700  1
  H  691  1  0.22811800  0.43241000  0.04684600  1
  H  692  1  0.33088000  0.47372000  0.06217400  1
  H  693  1  0.31123100  0.55671700  0.05825100  1
  H  694  1  0.22496700  0.51266200  0.07438100  1
  H  695  1  0.30462800  0.51859700  0.10806400  1
  H  696  1  0.37307900  0.52008800  0.09548000  1
  H  697  1  0.30895700  0.51070200  0.03103400  1
  H  698  1  0.45473800  0.51697100  0.05334900  1
  H  699  1  0.45443700  0.51321000  0.03061300  1
  H  702  1  0.19658400  0.50453500  0.03323700  1
  H  703  1  0.16878800  0.50531800  0.04842000  1
  H  705  1  0.40599400  0.50447400  0.07357000  1
  H  706  1  0.40197100  0.53341800  0.07233400  1
  H  739  1  0.09024700  0.56668800  0.21703300  1
  H  740  1  0.09602600  0.52854000  0.22129300  1
  H  741  1  0.04620400  0.45193900  0.21433500  1
  H  742  1  0.99335800  0.42560100  0.20606000  1
  H  743  1  0.91421100  0.47613400  0.18941800  1
  H  744  1  0.97076500  0.55563200  0.19477700  1
  H  745  1  0.03532300  0.50667200  0.18027100  1
  H  746  1  0.96615400  0.52385700  0.14611300  1
  H  747  1  0.89683300  0.52954300  0.15788100  1
  H  748  1  0.94319700  0.50870800  0.22265400  1
  H  749  1  0.80722200  0.52957400  0.19859900  1
  H  750  1  0.80173600  0.52462200  0.22127100  1
  H  753  1  0.04387200  0.49280800  0.22323700  1
  H  754  1  0.07955900  0.49126500  0.20939700  1
  H  756  1  0.85413200  0.51433300  0.17867400  1
  H  757  1  0.86888800  0.54230200  0.18094000  1
  H  790  1  0.08693600  0.68531200  0.03459500  1
  H  791  1  0.09313100  0.72349300  0.03047700  1
  H  792  1  0.04505000  0.80016600  0.03802400  1
  H  793  1  0.99291900  0.82657400  0.04654300  1
  H  794  1  0.91341900  0.77610900  0.06313500  1
  H  795  1  0.96830500  0.69647400  0.05717700  1
  H  796  1  0.03398700  0.74507800  0.07182900  1
  H  797  1  0.96555500  0.72729600  0.10600100  1
  H  798  1  0.89599200  0.72181400  0.09431800  1
  H  799  1  0.94042300  0.74466300  0.02969100  1
  H  800  1  0.80507400  0.72329700  0.05386100  1
  H  801  1  0.79849900  0.72971600  0.03135200  1
  H  804  1  0.04155600  0.75949900  0.02888200  1
  H  805  1  0.07779900  0.76060000  0.04262500  1
  H  807  1  0.85280100  0.73743500  0.07379000  1
  H  808  1  0.86750800  0.70955200  0.07116200  1
  H  841  1  0.81787900  0.82778400  0.28888600  1
  H  842  1  0.84071500  0.79037500  0.28626200  1
  H  843  1  0.81129000  0.71027400  0.29127600  1
  H  844  1  0.76263600  0.68059100  0.29748900  1
  H  845  1  0.66697900  0.72535800  0.31304200  1
  H  846  1  0.69633500  0.80733300  0.30781800  1
  H  847  1  0.77754400  0.76204800  0.32433800  1
  H  848  1  0.69971100  0.77215100  0.35800900  1
  H  849  1  0.63104000  0.77444700  0.34553200  1
  H  850  1  0.69217000  0.76022900  0.28112800  1
  H  851  1  0.54796000  0.77126300  0.30362800  1
  H  852  1  0.54725800  0.76670800  0.28091900  1
  H  855  1  0.80287400  0.75113000  0.28304600  1
  H  856  1  0.83170400  0.75171800  0.29808200  1
  H  858  1  0.59579700  0.75836300  0.32396000  1
  H  859  1  0.60297400  0.78709800  0.32224300  1
  H  892  1  0.81355200  0.92412900  0.46326200  1
  H  893  1  0.83669900  0.96153800  0.46567800  1
  H  894  1  0.80842600  0.04157400  0.45997800  1
  H  895  1  0.76047100  0.07122700  0.45336700  1
  H  896  1  0.66542200  0.02639100  0.43757400  1
  H  897  1  0.69318000  0.94446800  0.44371700  1
  H  898  1  0.77618800  0.98944900  0.42713000  1
  H  899  1  0.70064100  0.97809700  0.39319000  1
  H  900  1  0.63123400  0.97586900  0.40535000  1
  H  901  1  0.68754900  0.99306100  0.46984700  1
  H  902  1  0.54527900  0.98041500  0.44666400  1
  H  903  1  0.54261200  0.98657300  0.46922700  1
  H  906  1  0.79913500  0.00096200  0.46843500  1
  H  907  1  0.82879500  0.99992000  0.45353400  1
  H  909  1  0.59428600  0.99241100  0.42648200  1
  H  910  1  0.60203400  0.96379800  0.42866700  1
  H  943  1  0.91233900  0.93960600  0.28426800  1
  H  944  1  0.90821600  0.97806700  0.28107200  1
  H  945  1  0.96309300  0.05355000  0.28959400  1
  H  946  1  0.01849300  0.07849500  0.29802700  1
  H  947  1  0.09402600  0.02577000  0.31361300  1
  H  948  1  0.03266500  0.94768000  0.30661700  1
  H  949  1  0.97091700  0.99666400  0.32234700  1
  H  950  1  0.03882500  0.97589700  0.35601300  1
  H  951  1  0.10764000  0.96984000  0.34406300  1
  H  952  1  0.06254700  0.99629400  0.27993800  1
  H  953  1  0.19703200  0.97133700  0.30329400  1
  H  954  1  0.20293700  0.97824000  0.28082200  1
  H  957  1  0.96198600  0.01329400  0.27990300  1
  H  958  1  0.92706800  0.01434000  0.29390700  1
  H  960  1  0.15141800  0.98572000  0.32362200  1
  H  961  1  0.13440500  0.95823200  0.32066000  1
  H  994  1  0.90884200  0.81229800  0.46734600  1
  H  995  1  0.90497500  0.77386800  0.47067100  1
  H  996  1  0.96106900  0.69840900  0.46266600  1
  H  997  1  0.01695200  0.67349200  0.45443700  1
  H  998  1  0.09229500  0.72620900  0.43877900  1
  H  999  1  0.02979800  0.80423200  0.44525800  1
  H  1000  1  0.96889700  0.75502400  0.42964700  1
  H  1001  1  0.03764200  0.77523000  0.39600000  1
  H  1002  1  0.10622000  0.78138800  0.40803600  1
  H  1003  1  0.05915800  0.75663900  0.47229700  1
  H  1004  1  0.19429500  0.78111500  0.44906100  1
  H  1005  1  0.19908500  0.77546800  0.47168700  1
  H  1008  1  0.95911100  0.73883200  0.47213800  1
  H  1009  1  0.92465700  0.73743700  0.45805600  1
  H  1011  1  0.14945700  0.76581500  0.42871700  1
  H  1012  1  0.13248300  0.79339800  0.43136900  1
  H  1045  1  0.18083200  0.17387000  0.71276600  1
  H  1046  1  0.15883600  0.21139400  0.71548000  1
  H  1047  1  0.19010000  0.29134500  0.71082500  1
  H  1048  1  0.23932700  0.32087400  0.70476700  1
  H  1049  1  0.33437600  0.27589200  0.68913700  1
  H  1050  1  0.30354500  0.19388900  0.69425300  1
  H  1051  1  0.22313200  0.23954200  0.67770700  1
  H  1052  1  0.30092100  0.22929400  0.64404300  1
  H  1053  1  0.36952000  0.22677300  0.65653100  1
  H  1054  1  0.30848700  0.24101400  0.72093500  1
  H  1055  1  0.45256600  0.22965400  0.69843100  1
  H  1056  1  0.45334700  0.23423800  0.72113500  1
  H  1059  1  0.19755400  0.25041800  0.71892400  1
  H  1060  1  0.16902300  0.25006500  0.70384200  1
  H  1062  1  0.40491200  0.24268400  0.67812200  1
  H  1063  1  0.39736800  0.21396400  0.67980700  1
  H  1096  1  0.18471200  0.07774200  0.53875400  1
  H  1097  1  0.16208400  0.04030900  0.53616100  1
  H  1098  1  0.19149100  0.96028900  0.54147500  1
  H  1099  1  0.23999200  0.93069000  0.54788900  1
  H  1100  1  0.33473400  0.97561200  0.56373000  1
  H  1101  1  0.30531400  0.05753300  0.55823100  1
  H  1102  1  0.22365900  0.01221600  0.57461300  1
  H  1103  1  0.30015700  0.02282900  0.60847300  1
  H  1104  1  0.36925000  0.02518300  0.59618800  1
  H  1105  1  0.31087300  0.01007000  0.53163800  1
  H  1106  1  0.45395900  0.02185900  0.55460100  1
  H  1107  1  0.45570300  0.01696700  0.53189600  1
  H  1110  1  0.20013400  0.00108100  0.53320500  1
  H  1111  1  0.17059900  0.00175300  0.54813300  1
  H  1113  1  0.40549300  0.00901500  0.57479800  1
  H  1114  1  0.39796900  0.03771000  0.57295300  1
  H  1147  1  0.08970000  0.06401200  0.71696400  1
  H  1148  1  0.09487200  0.02566900  0.72054600  1
  H  1149  1  0.04135700  0.94961900  0.71300900  1
  H  1150  1  0.98643700  0.92411500  0.70491100  1
  H  1151  1  0.90919200  0.97596000  0.68896900  1
  H  1152  1  0.96837100  0.05459800  0.69522300  1
  H  1153  1  0.03124600  0.00555300  0.67979300  1
  H  1154  1  0.96225200  0.02523200  0.64607500  1
  H  1155  1  0.89351200  0.03118300  0.65807800  1
  H  1156  1  0.94040200  0.00637700  0.72232800  1
  H  1157  1  0.80482500  0.02994400  0.69897400  1
  H  1158  1  0.79942600  0.02338500  0.72148300  1
  H  1161  1  0.04183900  0.99017200  0.72229500  1
  H  1162  1  0.07626800  0.98891100  0.70820500  1
  H  1164  1  0.85048300  0.01550700  0.67869200  1
  H  1165  1  0.86688500  0.04314000  0.68144400  1
  H  1198  1  0.09248800  0.18980500  0.53454700  1
  H  1199  1  0.09667000  0.22823700  0.53127100  1
  H  1200  1  0.04087400  0.30375100  0.53925500  1
  H  1201  1  0.98489100  0.32870500  0.54737700  1
  H  1202  1  0.90926800  0.27607000  0.56302300  1
  H  1203  1  0.97143200  0.19799800  0.55657900  1
  H  1204  1  0.03243600  0.24706000  0.57228500  1
  H  1205  1  0.96314500  0.22684500  0.60584400  1
  H  1206  1  0.89465700  0.22086200  0.59373600  1
  H  1207  1  0.94283400  0.24558100  0.52954700  1
  H  1208  1  0.80703500  0.22149400  0.55261100  1
  H  1209  1  0.80266000  0.22716000  0.52997500  1
  H  1212  1  0.04281800  0.26334800  0.52980300  1
  H  1213  1  0.07712000  0.26467600  0.54391700  1
  H  1215  1  0.85179700  0.23662300  0.57302500  1
  H  1216  1  0.86850100  0.20900600  0.57037000  1
  H  1249  1  0.31675300  0.82740500  0.78870500  1
  H  1250  1  0.33939600  0.78998600  0.78604800  1
  H  1251  1  0.30982300  0.70992400  0.79111100  1
  H  1252  1  0.26118900  0.68028300  0.79738200  1
  H  1253  1  0.16599300  0.72511000  0.81310100  1
  H  1254  1  0.19553600  0.80706400  0.80783900  1
  H  1255  1  0.27687900  0.76171100  0.82424800  1
  H  1256  1  0.19968200  0.77203000  0.85801400  1
  H  1257  1  0.13081200  0.77436500  0.84563100  1
  H  1258  1  0.19057200  0.75990400  0.78113300  1
  H  1259  1  0.04696600  0.77132900  0.80388300  1
  H  1260  1  0.04574300  0.76680600  0.78116700  1
  H  1263  1  0.30137900  0.75077600  0.78289900  1
  H  1264  1  0.33050700  0.75134700  0.79789100  1
  H  1266  1  0.09507600  0.75829200  0.82412800  1
  H  1267  1  0.10246100  0.78701300  0.82238900  1
  H  1300  1  0.31402700  0.92429100  0.96324700  1
  H  1301  1  0.33696200  0.96172200  0.96567900  1
  H  1302  1  0.30835600  0.04172100  0.95995900  1
  H  1303  1  0.26029800  0.07131700  0.95331900  1
  H  1304  1  0.16573000  0.02637700  0.93740600  1
  H  1305  1  0.19387600  0.94448600  0.94354700  1
  H  1306  1  0.27682400  0.98954600  0.92704000  1
  H  1307  1  0.20167200  0.97810500  0.89304200  1
  H  1308  1  0.13214800  0.97582300  0.90514500  1
  H  1309  1  0.18767900  0.99303900  0.96969700  1
  H  1310  1  0.04574900  0.98019300  0.94638500  1
  H  1311  1  0.04280900  0.98628100  0.96895700  1
  H  1314  1  0.29918300  0.00109600  0.96839000  1
  H  1315  1  0.32905400  0.00009600  0.95352000  1
  H  1317  1  0.09490100  0.99232000  0.92624900  1
  H  1318  1  0.10277400  0.96371400  0.92842900  1
  H  1351  1  0.40954700  0.93947100  0.78440000  1
  H  1352  1  0.40560700  0.97790800  0.78111500  1
  H  1353  1  0.46160700  0.05335700  0.78920900  1
  H  1354  1  0.51751400  0.07826100  0.79743900  1
  H  1355  1  0.59335200  0.02548700  0.81284600  1
  H  1356  1  0.53086600  0.94748800  0.80634000  1
  H  1357  1  0.47040000  0.99664600  0.82209800  1
  H  1358  1  0.53982800  0.97622200  0.85559000  1
  H  1359  1  0.60814600  0.97009800  0.84342100  1
  H  1360  1  0.55950600  0.99524000  0.77931800  1
  H  1361  1  0.69531800  0.97070000  0.80221100  1
  H  1362  1  0.69948600  0.97648000  0.77958600  1
  H  1365  1  0.45968100  0.01298200  0.77963400  1
  H  1366  1  0.42541300  0.01428400  0.79375500  1
  H  1368  1  0.65093600  0.98582000  0.82269300  1
  H  1369  1  0.63393200  0.95825200  0.82000500  1
  H  1402  1  0.40919700  0.81236700  0.96729400  1
  H  1403  1  0.40534000  0.77393900  0.97063000  1
  H  1404  1  0.46126100  0.69847800  0.96259400  1
  H  1405  1  0.51707100  0.67354400  0.95434800  1
  H  1406  1  0.59227600  0.72622400  0.93859400  1
  H  1407  1  0.52986600  0.80427300  0.94508600  1
  H  1408  1  0.46883600  0.75503000  0.92952800  1
  H  1409  1  0.53733700  0.77517100  0.89582500  1
  H  1410  1  0.60598700  0.78137300  0.90782000  1
  H  1411  1  0.55952700  0.75665100  0.97212000  1
  H  1412  1  0.69447400  0.78103000  0.94875300  1
  H  1413  1  0.69960400  0.77522600  0.97137000  1
  H  1416  1  0.45943800  0.73890000  0.97204300  1
  H  1417  1  0.42482800  0.73750400  0.95799300  1
  H  1419  1  0.64937300  0.76583300  0.92846200  1
  H  1420  1  0.63243100  0.79341600  0.93113300  1
  H  1453  1  0.68416600  0.17440000  0.21307800  1
  H  1454  1  0.66129600  0.21180300  0.21567200  1
  H  1455  1  0.69061400  0.29189200  0.21057100  1
  H  1456  1  0.73928100  0.32155700  0.20435600  1
  H  1457  1  0.83477300  0.27677400  0.18873500  1
  H  1458  1  0.80543400  0.19481500  0.19399700  1
  H  1459  1  0.72413800  0.24006100  0.17749600  1
  H  1460  1  0.80177100  0.22980000  0.14380600  1
  H  1461  1  0.87051000  0.22753600  0.15625800  1
  H  1462  1  0.80972600  0.24200300  0.22066300  1
  H  1463  1  0.95380200  0.23077200  0.19813600  1
  H  1464  1  0.95460400  0.23536800  0.22084400  1
  H  1467  1  0.69908500  0.25105700  0.21880900  1
  H  1468  1  0.67013000  0.25043100  0.20379200  1
  H  1470  1  0.90591300  0.24367500  0.17780200  1
  H  1471  1  0.89866600  0.21495100  0.17955100  1
  H  1504  1  0.68497600  0.07782400  0.03874900  1
  H  1505  1  0.66234700  0.04039000  0.03613300  1
  H  1506  1  0.69182500  0.96035300  0.04137100  1
  H  1507  1  0.74036000  0.93074000  0.04775200  1
  H  1508  1  0.83525300  0.97564100  0.06354200  1
  H  1509  1  0.80577300  0.05757200  0.05811700  1
  H  1510  1  0.72418600  0.01218300  0.07449500  1
  H  1511  1  0.80077100  0.02274800  0.10834300  1
  H  1512  1  0.86982900  0.02516100  0.09604300  1
  H  1513  1  0.81123800  0.01014300  0.03150000  1
  H  1514  1  0.95438600  0.02197200  0.05442800  1
  H  1515  1  0.95605700  0.01710400  0.03172300  1
  H  1518  1  0.70040300  0.00116700  0.03311500  1
  H  1519  1  0.67099500  0.00180500  0.04806300  1
  H  1521  1  0.90603000  0.00906500  0.07462900  1
  H  1522  1  0.89843100  0.03776000  0.07280700  1
  H  1555  1  0.59196800  0.06231100  0.21724700  1
  H  1556  1  0.59582100  0.02388100  0.22057200  1
  H  1557  1  0.53969300  0.94842700  0.21254600  1
  H  1558  1  0.48380700  0.92352300  0.20430200  1
  H  1559  1  0.40838100  0.97627200  0.18871200  1
  H  1560  1  0.47100500  0.05425500  0.19515800  1
  H  1561  1  0.53163400  0.00497300  0.17953900  1
  H  1562  1  0.46280400  0.02530100  0.14592800  1
  H  1563  1  0.39431700  0.03153600  0.15800100  1
  H  1564  1  0.44180500  0.00667300  0.22221700  1
  H  1565  1  0.30657700  0.03135700  0.19909300  1
  H  1566  1  0.30199000  0.02569900  0.22172400  1
  H  1569  1  0.54166800  0.98885400  0.22204000  1
  H  1570  1  0.57610200  0.98744500  0.20795400  1
  H  1572  1  0.35113200  0.01599900  0.17870800  1
  H  1573  1  0.36829200  0.04355900  0.18135300  1
  H  1606  1  0.59272600  0.18975900  0.03456200  1
  H  1607  1  0.59697000  0.22818600  0.03127600  1
  H  1608  1  0.54119800  0.30372700  0.03920800  1
  H  1609  1  0.48519700  0.32870000  0.04729900  1
  H  1610  1  0.40953300  0.27610100  0.06297100  1
  H  1611  1  0.47160000  0.19800900  0.05655800  1
  H  1612  1  0.53267800  0.24713900  0.07224100  1
  H  1613  1  0.46352300  0.22691600  0.10581900  1
  H  1614  1  0.39502600  0.22086900  0.09372300  1
  H  1615  1  0.44302900  0.24565200  0.02953600  1
  H  1616  1  0.30726400  0.22154800  0.05260800  1
  H  1617  1  0.30278800  0.22734300  0.02998400  1
  H  1620  1  0.54315900  0.26331400  0.02978000  1
  H  1621  1  0.57741300  0.26464800  0.04390300  1
  H  1623  1  0.35207600  0.23659600  0.07301900  1
  H  1624  1  0.36884200  0.20899100  0.07035000  1
  H  1639  1  0.48536300  0.34703200  0.32567100  1
  H  1643  1  0.38663100  0.36906100  0.27930300  1
  H  1645  1  0.43687200  0.31201100  0.32714000  1
  H  1647  1  0.40505000  0.41051300  0.30094900  1
  H  1654  1  0.48456800  0.40481400  0.42604800  1
  H  1658  1  0.38684500  0.38288200  0.47260000  1
  H  1660  1  0.43592800  0.43979200  0.42458600  1
  H  1662  1  0.40490800  0.34139500  0.45097300  1
  H  1669  1  0.51400000  0.65278300  0.67367600  1
  H  1673  1  0.60647800  0.62781800  0.72159800  1
  H  1675  1  0.56021500  0.68841100  0.67170700  1
  H  1677  1  0.59536500  0.59253300  0.70052200  1
  H  1684  1  0.51674600  0.59740000  0.57590800  1
  H  1688  1  0.61340300  0.61830200  0.52897200  1
  H  1690  1  0.56507500  0.56230500  0.57717200  1
  H  1692  1  0.59602200  0.66069800  0.55088300  1
  H  1699  1  0.98305800  0.34681100  0.82591500  1
  H  1703  1  0.88539100  0.36907100  0.77932800  1
  H  1705  1  0.93487800  0.31167500  0.82722200  1
  H  1707  1  0.90271300  0.41025900  0.80125000  1
  H  1714  1  0.98447200  0.40486600  0.92604200  1
  H  1718  1  0.88711700  0.38188200  0.97259100  1
  H  1720  1  0.93570500  0.43980200  0.92455800  1
  H  1722  1  0.90487500  0.34139500  0.95093000  1
  H  1729  1  0.01932000  0.65488700  0.17586400  1
  H  1733  1  0.11619600  0.63281300  0.22259100  1
  H  1735  1  0.06755400  0.69001300  0.17463300  1
  H  1737  1  0.09911900  0.59141500  0.20064700  1
  H  1744  1  0.01702600  0.59732300  0.07608200  1
  H  1748  1  0.11340400  0.61699700  0.02903100  1
  H  1750  1  0.06501900  0.56210800  0.07717300  1
  H  1752  1  0.09618000  0.66057800  0.05098300  1
  H  1759  1  0.97357700  0.85002300  0.32580200  1
  H  1763  1  0.90839600  0.87582800  0.27565300  1
  H  1765  1  0.92841700  0.81396900  0.32478500  1
  H  1767  1  0.90301400  0.91253000  0.29889400  1
  H  1774  1  0.97104800  0.90211000  0.42611400  1
  H  1778  1  0.90492700  0.87581700  0.47608800  1
  H  1780  1  0.92602000  0.93819300  0.42719000  1
  H  1782  1  0.89984900  0.83940600  0.45275100  1
  H  1789  1  0.02107900  0.15101900  0.67435400  1
  H  1793  1  0.09891800  0.12777800  0.72434800  1
  H  1795  1  0.06569200  0.18724500  0.67373600  1
  H  1797  1  0.09725800  0.09103500  0.70220700  1
  H  1804  1  0.03085900  0.10022300  0.57598600  1
  H  1808  1  0.09348500  0.12642000  0.52559900  1
  H  1810  1  0.07523500  0.06397800  0.57469300  1
  H  1812  1  0.10122200  0.16261200  0.54907000  1
  H  1819  1  0.47091900  0.84991300  0.82589000  1
  H  1823  1  0.40771700  0.87645800  0.77559900  1
  H  1825  1  0.42615600  0.81376600  0.82470700  1
  H  1827  1  0.40070500  0.91236200  0.79898200  1
  H  1834  1  0.47055600  0.90222800  0.92602900  1
  H  1838  1  0.40566600  0.87485600  0.97602200  1
  H  1840  1  0.42543000  0.93827500  0.92720100  1
  H  1842  1  0.39998300  0.83940900  0.95266100  1
  H  1849  1  0.53116300  0.15186500  0.17568200  1
  H  1853  1  0.59335500  0.12546800  0.22607600  1
  H  1855  1  0.57576300  0.18804700  0.17696200  1
  H  1857  1  0.60100300  0.08942700  0.20267500  1
  H  1864  1  0.53051600  0.10023500  0.07599900  1
  H  1868  1  0.59378400  0.12523500  0.02556900  1
  H  1870  1  0.57466600  0.06392700  0.07472500  1
  H  1872  1  0.60131400  0.16251800  0.04905300  1
  H  1879  1  0.02712400  0.21254500  0.25040300  1
  H  1883  1  0.93753400  0.29104500  0.26895300  1
  H  1885  1  0.10279300  0.22987400  0.25528600  1
  H  1887  1  0.89222600  0.26665700  0.24840100  1
  H  1894  1  0.02677000  0.53881700  0.50174100  1
  H  1898  1  0.93637600  0.46127200  0.48223500  1
  H  1900  1  0.10251800  0.52168500  0.49665500  1
  H  1902  1  0.89138900  0.48496900  0.50273600  1
  H  1909  1  0.72002900  0.53793200  0.25014200  1
  H  1913  1  0.81973300  0.46229500  0.26908700  1
  H  1915  1  0.64708000  0.51924700  0.25527600  1
  H  1917  1  0.86169700  0.48677400  0.24796200  1
  H  1924  1  0.72174100  0.21447200  0.50127800  1
  H  1928  1  0.82043500  0.29063800  0.48296500  1
  H  1930  1  0.64792700  0.23272800  0.49608000  1
  H  1932  1  0.86215000  0.26566400  0.50292200  1
  H  1939  1  0.97271900  0.78841100  0.75147300  1
  H  1943  1  0.06888900  0.71108500  0.73345800  1
  H  1945  1  0.89782600  0.77058500  0.74653800  1
  H  1947  1  0.10906800  0.73461500  0.75409300  1
  H  1954  1  0.28071800  0.46391500  0.75122300  1
  H  1958  1  0.18170500  0.54003800  0.73301900  1
  H  1960  1  0.35418300  0.48220400  0.74600900  1
  H  1962  1  0.14013900  0.51509500  0.75301200  1
  H  1969  1  0.28063300  0.78767300  0.50016300  1
  H  1973  1  0.17987500  0.71199300  0.51846100  1
  H  1975  1  0.35435900  0.76895200  0.50474500  1
  H  1977  1  0.13967400  0.73609400  0.49817000  1
  H  1984  1  0.52635900  0.21189800  0.75058100  1
  H  1988  1  0.43706200  0.29045600  0.76914000  1
  H  1990  1  0.60196400  0.22966800  0.75502800  1
  H  1992  1  0.39083700  0.26552000  0.74884000  1
  H  1999  1  0.52703700  0.53887000  0.00178200  1
  H  2003  1  0.43769900  0.46133000  0.98196300  1
  H  2005  1  0.60292600  0.52128900  0.99712200  1
  H  2007  1  0.39090300  0.48585000  0.00209200  1
  H  2014  1  0.22203200  0.21437000  0.00107800  1
  H  2018  1  0.31877000  0.29100100  0.98287600  1
  H  2020  1  0.14830200  0.23222400  0.99551600  1
  H  2022  1  0.36185100  0.26621800  0.00327700  1
  H  2029  1  0.47494800  0.78952300  0.25147100  1
  H  2033  1  0.56310700  0.71056600  0.23264100  1
  H  2035  1  0.39927700  0.77184400  0.24695500  1
  H  2037  1  0.61004800  0.73553500  0.25331000  1
  H  2044  1  0.77988200  0.78783000  0.00049600  1
  H  2048  1  0.67860100  0.71174300  0.01801700  1
  H  2050  1  0.85325700  0.76994800  0.00598900  1
  H  2052  1  0.64081500  0.73501600  0.99717900  1
  H  2059  1  0.52693300  0.03861300  0.50116700  1
  H  2063  1  0.42937000  0.96093200  0.48427800  1
  H  2065  1  0.60090300  0.02225900  0.49444500  1
  H  2067  1  0.39300600  0.98319700  0.50582200  1
  H  2074  1  0.22156400  0.03819500  0.25057200  1
  H  2078  1  0.32222300  0.96209600  0.26828900  1
  H  2080  1  0.14780600  0.02000500  0.25563600  1
  H  2082  1  0.36142900  0.98595500  0.24792300  1
  H  2089  1  0.78009700  0.96390100  0.75092000  1
  H  2093  1  0.68339200  0.04123900  0.73342300  1
  H  2095  1  0.85469600  0.98257800  0.74682100  1
  H  2097  1  0.64023100  0.01517000  0.75253500  1
  H  2104  1  0.02735200  0.03856200  0.00092800  1
  H  2108  1  0.93085900  0.96091200  0.98383700  1
  H  2110  1  0.10097500  0.02227900  0.99395000  1
  H  2112  1  0.89307700  0.98318700  0.00582700  1
  H  2119  1  0.07119900  0.13107200  0.32272600  1
  H  2123  1  0.26901100  0.12282200  0.28988500  1
  H  2125  1  0.05475600  0.09373600  0.31645600  1
  H  2127  1  0.23785100  0.15994600  0.31318600  1
  H  2134  1  0.07003500  0.62100200  0.42963800  1
  H  2138  1  0.26841800  0.62921000  0.46224300  1
  H  2140  1  0.05344900  0.65826400  0.43600400  1
  H  2142  1  0.23706100  0.59229600  0.43888100  1
  H  2149  1  0.71367100  0.61971900  0.31599700  1
  H  2153  1  0.49397600  0.63188700  0.29725000  1
  H  2155  1  0.72424500  0.65903000  0.31272600  1
  H  2157  1  0.54126700  0.59211400  0.31531300  1
  H  2164  1  0.71268500  0.13216400  0.43484500  1
  H  2168  1  0.49333600  0.12064300  0.45402300  1
  H  2170  1  0.72298300  0.09285400  0.43813400  1
  H  2172  1  0.54064400  0.16017900  0.43600600  1
  H  2179  1  0.93437000  0.87052300  0.68068800  1
  H  2183  1  0.73191000  0.87803800  0.71176800  1
  H  2185  1  0.95013500  0.90799600  0.68682900  1
  H  2187  1  0.76665200  0.84185500  0.68909700  1
  H  2194  1  0.93083400  0.38150000  0.57171000  1
  H  2198  1  0.73081000  0.37324000  0.53945100  1
  H  2200  1  0.94780800  0.34416100  0.56561300  1
  H  2202  1  0.76362900  0.40969700  0.56236100  1
  H  2209  1  0.28916900  0.38185600  0.68680900  1
  H  2213  1  0.50880500  0.36923300  0.70550000  1
  H  2215  1  0.27815200  0.34254800  0.68979000  1
  H  2217  1  0.46187700  0.40907000  0.68775900  1
  H  2224  1  0.28837100  0.86991400  0.56657700  1
  H  2228  1  0.50629000  0.88245600  0.54709500  1
  H  2230  1  0.27779900  0.90918500  0.56322000  1
  H  2232  1  0.46066300  0.84219400  0.56555000  1
  H  2239  1  0.57074100  0.13057900  0.82234000  1
  H  2243  1  0.76848200  0.12272000  0.78943700  1
  H  2245  1  0.55421000  0.09335200  0.81589100  1
  H  2247  1  0.73743100  0.15953800  0.81295000  1
  H  2254  1  0.57008700  0.62095600  0.92961900  1
  H  2258  1  0.76833600  0.62935900  0.96226700  1
  H  2260  1  0.55346700  0.65824800  0.93593000  1
  H  2262  1  0.73706400  0.59230000  0.93896600  1
  H  2269  1  0.21227900  0.61935900  0.81576700  1
  H  2273  1  0.99268700  0.63181800  0.79698200  1
  H  2275  1  0.22297600  0.65867900  0.81258700  1
  H  2277  1  0.03983000  0.59186300  0.81494400  1
  H  2284  1  0.21234800  0.13219700  0.93472200  1
  H  2288  1  0.99327500  0.12044400  0.95408800  1
  H  2290  1  0.22285700  0.09291200  0.93805600  1
  H  2292  1  0.04018400  0.16004100  0.93606200  1
  H  2299  1  0.43079500  0.87114300  0.17939400  1
  H  2303  1  0.23113800  0.87815700  0.21189900  1
  H  2305  1  0.44733900  0.90837400  0.18582000  1
  H  2307  1  0.26414200  0.84219600  0.18874500  1
  H  2314  1  0.43102300  0.38157500  0.07153500  1
  H  2318  1  0.23090300  0.37314500  0.03933300  1
  H  2320  1  0.44802700  0.34421400  0.06549800  1
  H  2322  1  0.26375300  0.40968200  0.06219500  1
  H  2329  1  0.78851600  0.38256000  0.18618700  1
  H  2333  1  0.00826200  0.37017900  0.20478500  1
  H  2335  1  0.77775500  0.34320400  0.18921300  1
  H  2337  1  0.96105500  0.40994300  0.18694300  1
  H  2344  1  0.78877200  0.86999400  0.06652800  1
  H  2348  1  0.00679700  0.88243700  0.04712900  1
  H  2350  1  0.77822600  0.90925700  0.06310900  1
  H  2352  1  0.96110700  0.84228300  0.06563900  1
  H  2359  1  0.32601400  0.23518500  0.37830900  1
  H  2363  1  0.39148700  0.31949200  0.39599000  1
  H  2365  1  0.29058900  0.25198600  0.35577700  1
  H  2367  1  0.46154500  0.28743500  0.39237600  1
  H  2374  1  0.32617100  0.51693100  0.37347000  1
  H  2378  1  0.39183300  0.43264800  0.35578800  1
  H  2380  1  0.29066900  0.50013300  0.39598100  1
  H  2382  1  0.46179400  0.46471600  0.35943800  1
  H  2389  1  0.67465400  0.76667200  0.62349200  1
  H  2393  1  0.60824600  0.68224400  0.60602700  1
  H  2395  1  0.71002500  0.74990600  0.64602800  1
  H  2397  1  0.53854800  0.71469600  0.60948500  1
  H  2404  1  0.67670900  0.48453500  0.62850000  1
  H  2408  1  0.60986500  0.56880400  0.64612900  1
  H  2410  1  0.71171700  0.50117800  0.60592900  1
  H  2412  1  0.54074500  0.53658600  0.64245100  1
  H  2419  1  0.82555100  0.23499800  0.87823500  1
  H  2423  1  0.89147200  0.31937500  0.89591600  1
  H  2425  1  0.79012400  0.25173500  0.85568600  1
  H  2427  1  0.96094500  0.28732400  0.89228200  1
  H  2434  1  0.82585900  0.51704000  0.87363100  1
  H  2438  1  0.89245400  0.43287500  0.85584700  1
  H  2440  1  0.79049500  0.50018500  0.89613100  1
  H  2442  1  0.96179900  0.46504800  0.85956600  1
  H  2449  1  0.17614300  0.76690500  0.12360000  1
  H  2453  1  0.10982700  0.68267100  0.10581400  1
  H  2455  1  0.21168900  0.75004700  0.14608400  1
  H  2457  1  0.04043300  0.71473200  0.10960600  1
  H  2464  1  0.17714400  0.48447400  0.12847600  1
  H  2468  1  0.11059600  0.56874800  0.14591100  1
  H  2470  1  0.21208100  0.50103700  0.10588000  1
  H  2472  1  0.04098500  0.53649800  0.14237200  1
  H  2479  1  0.82873000  0.73401100  0.37747200  1
  H  2483  1  0.89033000  0.81798400  0.39669400  1
  H  2485  1  0.79199200  0.75160800  0.35531200  1
  H  2487  1  0.96194400  0.78693700  0.39238600  1
  H  2494  1  0.83068400  0.01753100  0.37451700  1
  H  2498  1  0.89062800  0.93367000  0.35469100  1
  H  2500  1  0.79281900  0.99951700  0.39645300  1
  H  2502  1  0.96293400  0.96425400  0.35943500  1
  H  2509  1  0.17246700  0.26765400  0.62450800  1
  H  2513  1  0.11001800  0.18360400  0.60539100  1
  H  2515  1  0.20888900  0.25002300  0.64670300  1
  H  2517  1  0.03870900  0.21505400  0.60954900  1
  H  2524  1  0.17058500  0.98408000  0.62748200  1
  H  2528  1  0.10932300  0.06801100  0.64707700  1
  H  2530  1  0.20795800  0.00186900  0.60543900  1
  H  2532  1  0.03788500  0.03716300  0.64245500  1
  H  2539  1  0.32916100  0.73365000  0.87724700  1
  H  2543  1  0.39013500  0.81769000  0.89675100  1
  H  2545  1  0.29201700  0.75130800  0.85513900  1
  H  2547  1  0.46159300  0.78688500  0.89226200  1
  H  2554  1  0.33167800  0.01771200  0.87448600  1
  H  2558  1  0.39214100  0.93393100  0.85451800  1
  H  2560  1  0.29380900  0.99961700  0.89639600  1
  H  2562  1  0.46399000  0.96456500  0.85930200  1
  H  2569  1  0.67270700  0.26801000  0.12439900  1
  H  2573  1  0.61014800  0.18410600  0.10514300  1
  H  2575  1  0.70949600  0.25038600  0.14653100  1
  H  2577  1  0.53919500  0.21522400  0.10952700  1
  H  2584  1  0.67081100  0.98373200  0.12720600  1
  H  2588  1  0.61117600  0.06757000  0.14710500  1
  H  2590  1  0.70848300  0.00170300  0.10525200  1
  H  2592  1  0.53871100  0.03701700  0.14236800  1
  C  1  1  0.16004700  0.26391600  0.29987300  1
  C  2  1  0.11770900  0.26614000  0.30660700  1
  C  3  1  0.16075700  0.26823000  0.32784100  1
  C  4  1  0.20375800  0.26579400  0.32145500  1
  C  5  1  0.24480600  0.26526900  0.32903900  1
  C  6  1  0.24445600  0.26684100  0.34264700  1
  C  7  1  0.20073000  0.26901500  0.34863300  1
  C  8  1  0.15980300  0.26989800  0.34138200  1
  C  9  1  0.07551200  0.26546600  0.29974900  1
  C  10  1  0.07471400  0.26221200  0.28637400  1
  C  11  1  0.11608800  0.26000900  0.27926900  1
  C  12  1  0.15820200  0.26125200  0.28628700  1
  C  13  1  0.23450000  0.28219700  0.30199900  1
  C  14  1  0.27753000  0.27873500  0.29573000  1
  C  15  1  0.26882500  0.23765100  0.29825800  1
  C  16  1  0.22584600  0.24066000  0.30457700  1
  C  17  1  0.28563300  0.21617700  0.29610700  1
  C  18  1  0.25995700  0.19773200  0.29993000  1
  C  19  1  0.21689700  0.20022900  0.30616400  1
  C  20  1  0.20088800  0.22175800  0.30851000  1
  C  21  1  0.21866500  0.30409600  0.30365500  1
  C  22  1  0.24448500  0.32215600  0.29915700  1
  C  23  1  0.28699300  0.31844400  0.29292800  1
  C  24  1  0.30333300  0.29693300  0.29127800  1
  C  37  1  0.20596400  0.26324000  0.30696800  1
  C  38  1  0.29678100  0.25645100  0.29361800  1
  C  41  1  0.11606400  0.26865300  0.32079700  1
  C  44  1  0.11575700  0.25643100  0.26561300  1
  C  45  1  0.28654100  0.26568400  0.34994400  1
  C  46  1  0.18805400  0.18202100  0.30919300  1
  C  47  1  0.22902800  0.34206700  0.30071400  1
  C  52  1  0.15996200  0.48809200  0.45186100  1
  C  53  1  0.11764900  0.48588000  0.44511400  1
  C  54  1  0.16075500  0.48386200  0.42388700  1
  C  55  1  0.20373000  0.48631600  0.43028400  1
  C  56  1  0.24480000  0.48686300  0.42271000  1
  C  57  1  0.24449500  0.48528700  0.40910100  1
  C  58  1  0.20079200  0.48310100  0.40310500  1
  C  59  1  0.15984400  0.48220800  0.41034500  1
  C  60  1  0.07543600  0.48652000  0.45196300  1
  C  61  1  0.07459800  0.48971400  0.46534300  1
  C  62  1  0.11593300  0.49187100  0.47247100  1
  C  63  1  0.15806700  0.49069400  0.46545000  1
  C  64  1  0.23448800  0.46987900  0.44972500  1
  C  65  1  0.27751800  0.47335200  0.45599200  1
  C  66  1  0.26865100  0.51444000  0.45351800  1
  C  67  1  0.22569000  0.51141900  0.44719200  1
  C  68  1  0.28534700  0.53592000  0.45571100  1
  C  69  1  0.25956400  0.55435700  0.45193300  1
  C  70  1  0.21651600  0.55185400  0.44569000  1
  C  71  1  0.20064800  0.53031600  0.44329100  1
  C  72  1  0.21873500  0.44797300  0.44804100  1
  C  73  1  0.24463700  0.42991700  0.45250800  1
  C  74  1  0.28714100  0.43364000  0.45873700  1
  C  75  1  0.30339700  0.45516100  0.46041600  1
  C  88  1  0.20589300  0.48883100  0.44477300  1
  C  89  1  0.29669000  0.49564600  0.45812800  1
  C  92  1  0.11604500  0.48340600  0.43092100  1
  C  95  1  0.11536500  0.49536200  0.48615000  1
  C  96  1  0.28660500  0.48643900  0.40181600  1
  C  97  1  0.18749700  0.57004300  0.44274800  1
  C  98  1  0.22926200  0.41000100  0.45091900  1
  C  103  1  0.58485000  0.48616500  0.29794700  1
  C  104  1  0.62479000  0.47993400  0.30495600  1
  C  105  1  0.57878300  0.47992800  0.32570800  1
  C  106  1  0.53847500  0.48693700  0.31910800  1
  C  107  1  0.49720000  0.49013600  0.32636700  1
  C  108  1  0.49473000  0.48614200  0.33978300  1
  C  109  1  0.53583600  0.47950400  0.34601700  1
  C  110  1  0.57705300  0.47646200  0.33912200  1
  C  111  1  0.66751800  0.47744600  0.29849500  1
  C  112  1  0.67134400  0.48133900  0.28522300  1
  C  113  1  0.63236500  0.48739500  0.27788200  1
  C  114  1  0.58955700  0.48949600  0.28446200  1
  C  115  1  0.50409300  0.47501500  0.29891300  1
  C  116  1  0.46658100  0.48287900  0.29141500  1
  C  117  1  0.49115700  0.52202000  0.29528400  1
  C  118  1  0.52952400  0.51478100  0.30265800  1
  C  119  1  0.48382400  0.54468000  0.29331200  1
  C  120  1  0.51442500  0.56022200  0.29842300  1
  C  121  1  0.55323800  0.55355400  0.30568000  1
  C  122  1  0.56025000  0.53087200  0.30765900  1
  C  123  1  0.50720700  0.45203400  0.30117100  1
  C  124  1  0.47339500  0.43712800  0.29662600  1
  C  125  1  0.43818000  0.44542900  0.28856400  1
  C  126  1  0.43484500  0.46793200  0.28598100  1
  C  139  1  0.53920200  0.49061700  0.30467900  1
  C  140  1  0.45861500  0.50654600  0.28909900  1
  C  143  1  0.62356200  0.47629800  0.31905200  1
  C  146  1  0.63628100  0.49104500  0.26434200  1
  C  147  1  0.45263500  0.48917100  0.34687500  1
  C  148  1  0.58656900  0.56912200  0.30988400  1
  C  149  1  0.47389300  0.41463500  0.30048500  1
  C  154  1  0.58495700  0.26586100  0.45380400  1
  C  155  1  0.62481800  0.27217400  0.44678700  1
  C  156  1  0.57870000  0.27219100  0.42605100  1
  C  157  1  0.53844400  0.26514600  0.43266200  1
  C  158  1  0.49713400  0.26194300  0.42541600  1
  C  159  1  0.49458100  0.26597600  0.41200400  1
  C  160  1  0.53564900  0.27264100  0.40576000  1
  C  161  1  0.57689400  0.27569000  0.41264100  1
  C  162  1  0.66754600  0.27473200  0.45323500  1
  C  163  1  0.67145100  0.27084500  0.46650500  1
  C  164  1  0.63257300  0.26468300  0.47386200  1
  C  165  1  0.58976800  0.26249500  0.46728600  1
  C  166  1  0.50418700  0.27698100  0.45289200  1
  C  167  1  0.46678500  0.26907700  0.46041900  1
  C  168  1  0.49139200  0.22995900  0.45648200  1
  C  169  1  0.52965500  0.23724100  0.44908300  1
  C  170  1  0.48407300  0.20728500  0.45841100  1
  C  171  1  0.51454600  0.19177300  0.45321100  1
  C  172  1  0.55321100  0.19848700  0.44590900  1
  C  173  1  0.56028800  0.22118000  0.44400400  1
  C  174  1  0.50721000  0.29996600  0.45064600  1
  C  175  1  0.47341300  0.31484300  0.45523200  1
  C  176  1  0.43832200  0.30650400  0.46332300  1
  C  177  1  0.43507000  0.28399300  0.46589000  1
  C  190  1  0.53927800  0.26141300  0.44708700  1
  C  191  1  0.45892000  0.24539900  0.46272600  1
  C  194  1  0.62349600  0.27584300  0.43269400  1
  C  197  1  0.63668200  0.26106300  0.48742700  1
  C  198  1  0.45245100  0.26295400  0.40492500  1
  C  199  1  0.58629200  0.18293900  0.44154100  1
  C  200  1  0.47377900  0.33733600  0.45137100  1
  C  205  1  0.84060400  0.73709100  0.70190700  1
  C  206  1  0.88284500  0.73461200  0.69515200  1
  C  207  1  0.83965700  0.73297200  0.67393400  1
  C  208  1  0.79677200  0.73572700  0.68034000  1
  C  209  1  0.75571100  0.73654300  0.67277200  1
  C  210  1  0.75594000  0.73491300  0.65916500  1
  C  211  1  0.79956400  0.73245000  0.65316000  1
  C  212  1  0.84050100  0.73131400  0.66039300  1
  C  213  1  0.92509600  0.73494400  0.70199300  1
  C  214  1  0.92606100  0.73809000  0.71537400  1
  C  215  1  0.88479600  0.74052800  0.72249800  1
  C  216  1  0.84260400  0.73965800  0.71549500  1
  C  217  1  0.76542700  0.71946000  0.69976600  1
  C  218  1  0.72263700  0.72327600  0.70609200  1
  C  219  1  0.73298600  0.76428500  0.70367000  1
  C  220  1  0.77572500  0.76095800  0.69727900  1
  C  221  1  0.71706400  0.78587500  0.70592800  1
  C  222  1  0.74337300  0.80413000  0.70213500  1
  C  223  1  0.78625000  0.80133600  0.69584300  1
  C  224  1  0.80136300  0.77969000  0.69338700  1
  C  225  1  0.78015900  0.69741100  0.69797800  1
  C  226  1  0.75342500  0.67956200  0.70236800  1
  C  227  1  0.71123300  0.68364400  0.70868100  1
  C  228  1  0.69603400  0.70530400  0.71048900  1
  C  241  1  0.79469700  0.73820900  0.69483000  1
  C  242  1  0.70437700  0.74571300  0.70830500  1
  C  245  1  0.88436000  0.73218900  0.68095800  1
  C  248  1  0.88559800  0.74396000  0.73616900  1
  C  249  1  0.71383700  0.73622900  0.65188900  1
  C  250  1  0.81573100  0.81936800  0.69289500  1
  C  251  1  0.76753400  0.65947700  0.70059900  1
  C  256  1  0.83926200  0.51417700  0.54945300  1
  C  257  1  0.88200800  0.51610100  0.55601500  1
  C  258  1  0.84013400  0.51752600  0.57746000  1
  C  259  1  0.79678300  0.51532900  0.57122900  1
  C  260  1  0.75611900  0.51466900  0.57896200  1
  C  261  1  0.75711900  0.51596800  0.59257900  1
  C  262  1  0.80117200  0.51787700  0.59841000  1
  C  263  1  0.84176000  0.51882700  0.59101100  1
  C  264  1  0.92375700  0.51573300  0.54893300  1
  C  265  1  0.92368100  0.51330700  0.53549000  1
  C  266  1  0.88183500  0.51163600  0.52855700  1
  C  267  1  0.84022700  0.51225300  0.53582500  1
  C  268  1  0.76469400  0.53213800  0.55206200  1
  C  269  1  0.72147800  0.52868400  0.54589200  1
  C  270  1  0.73089700  0.48756900  0.54803900  1
  C  271  1  0.77413700  0.49057100  0.55422100  1
  C  272  1  0.71429700  0.46608800  0.54578000  1
  C  273  1  0.74040500  0.44764000  0.54936600  1
  C  274  1  0.78374300  0.45013800  0.55545000  1
  C  275  1  0.79956700  0.47166100  0.55789900  1
  C  276  1  0.78031100  0.55404000  0.55384900  1
  C  277  1  0.75411300  0.57212100  0.54955600  1
  C  278  1  0.71145100  0.56841900  0.54340800  1
  C  279  1  0.69529400  0.54690100  0.54165000  1
  C  292  1  0.79378400  0.51315300  0.55673700  1
  C  293  1  0.70246400  0.50638700  0.54365400  1
  C  296  1  0.88446000  0.51804400  0.57023000  1
  C  299  1  0.88089100  0.50942000  0.51480900  1
  C  300  1  0.71533500  0.51479900  0.60001500  1
  C  301  1  0.81295000  0.43196500  0.55826300  1
  C  302  1  0.76942300  0.59203200  0.55121400  1
  C  307  1  0.41726300  0.51554800  0.70387300  1
  C  308  1  0.37731600  0.52151900  0.69678900  1
  C  309  1  0.42352400  0.52130800  0.67607400  1
  C  310  1  0.46384200  0.51450200  0.68274400  1
  C  311  1  0.50523800  0.51131800  0.67553300  1
  C  312  1  0.50782200  0.51516700  0.66210500  1
  C  313  1  0.46670200  0.52159300  0.65580300  1
  C  314  1  0.42536400  0.52459700  0.66264600  1
  C  315  1  0.33445800  0.52395500  0.70318800  1
  C  316  1  0.33048400  0.52020600  0.71646800  1
  C  317  1  0.36942600  0.51433800  0.72388000  1
  C  318  1  0.41240700  0.51238400  0.71737200  1
  C  319  1  0.49786400  0.52701000  0.70284600  1
  C  320  1  0.53569400  0.51946600  0.71033100  1
  C  321  1  0.51163700  0.48013300  0.70682700  1
  C  322  1  0.47312600  0.48704800  0.69940800  1
  C  323  1  0.51925400  0.45754900  0.70901200  1
  C  324  1  0.48876000  0.44177600  0.70408800  1
  C  325  1  0.44983600  0.44811100  0.69677500  1
  C  326  1  0.44260700  0.47072400  0.69456500  1
  C  327  1  0.49430800  0.54992500  0.70041600  1
  C  328  1  0.52791500  0.56509900  0.70478500  1
  C  329  1  0.56354200  0.55710500  0.71281500  1
  C  330  1  0.56734400  0.53466900  0.71556100  1
  C  343  1  0.46305000  0.51113000  0.69719900  1
  C  344  1  0.54406500  0.49587900  0.71283000  1
  C  347  1  0.37865100  0.52494200  0.68267600  1
  C  350  1  0.36531000  0.51079100  0.73743600  1
  C  351  1  0.55006300  0.51222700  0.65506800  1
  C  352  1  0.41659600  0.43234100  0.69274200  1
  C  353  1  0.52667300  0.58752300  0.70077900  1
  C  358  1  0.41644400  0.73640100  0.54786400  1
  C  359  1  0.37637200  0.73017900  0.55481400  1
  C  360  1  0.42206800  0.73007700  0.57562400  1
  C  361  1  0.46250700  0.73705800  0.56907500  1
  C  362  1  0.50369900  0.74019000  0.57637900  1
  C  363  1  0.50597200  0.73616000  0.58979300  1
  C  364  1  0.46474400  0.72955100  0.59597800  1
  C  365  1  0.42360700  0.72656900  0.58903600  1
  C  366  1  0.33377100  0.72770200  0.54828700  1
  C  367  1  0.33021800  0.73157100  0.53500600  1
  C  368  1  0.36934700  0.73759800  0.52771500  1
  C  369  1  0.41199200  0.73973200  0.53437400  1
  C  370  1  0.49712700  0.72519500  0.54889800  1
  C  371  1  0.53466400  0.73305600  0.54140700  1
  C  372  1  0.51021600  0.77219900  0.54532100  1
  C  373  1  0.47179400  0.76495800  0.55267200  1
  C  374  1  0.51767700  0.79486200  0.54340100  1
  C  375  1  0.48716500  0.81040900  0.54855100  1
  C  376  1  0.44832800  0.80373800  0.55579400  1
  C  377  1  0.44115100  0.78105300  0.55770400  1
  C  378  1  0.49395900  0.70221600  0.55114400  1
  C  379  1  0.52767300  0.68729500  0.54656800  1
  C  380  1  0.56289900  0.69559100  0.53850500  1
  C  381  1  0.56634400  0.71810200  0.53595800  1
  C  394  1  0.46200200  0.74079700  0.55465300  1
  C  395  1  0.54269500  0.75672300  0.53911100  1
  C  398  1  0.37736800  0.72651800  0.56891100  1
  C  401  1  0.36589800  0.74117800  0.51415300  1
  C  402  1  0.54799800  0.73912900  0.59692300  1
  C  403  1  0.41517800  0.81932000  0.56007700  1
  C  404  1  0.52715400  0.66480800  0.55042900  1
  C  409  1  0.65929300  0.26350600  0.79981200  1
  C  410  1  0.61697300  0.26568600  0.80656100  1
  C  411  1  0.66010600  0.26781600  0.82778100  1
  C  412  1  0.70309000  0.26542600  0.82138100  1
  C  413  1  0.74417200  0.26495200  0.82895300  1
  C  414  1  0.74386800  0.26652600  0.84256300  1
  C  415  1  0.70015400  0.26865000  0.84856100  1
  C  416  1  0.65919300  0.26948400  0.84132200  1
  C  417  1  0.57474900  0.26498300  0.79971700  1
  C  418  1  0.57390200  0.26175400  0.78634000  1
  C  419  1  0.61525000  0.25960200  0.77922000  1
  C  420  1  0.65739100  0.26085800  0.78622600  1
  C  421  1  0.73365700  0.28187200  0.80191600  1
  C  422  1  0.77668600  0.27847000  0.79563600  1
  C  423  1  0.76822900  0.23737500  0.79816500  1
  C  424  1  0.72524800  0.24032800  0.80449100  1
  C  425  1  0.78513700  0.21592300  0.79600100  1
  C  426  1  0.75953000  0.19744500  0.79980500  1
  C  427  1  0.71645900  0.19988700  0.80604300  1
  C  428  1  0.70038200  0.22139500  0.80841600  1
  C  429  1  0.71767300  0.30374700  0.80356700  1
  C  430  1  0.74332800  0.32183900  0.79904100  1
  C  431  1  0.78583200  0.31818700  0.79279800  1
  C  432  1  0.80233800  0.29669800  0.79116500  1
  C  445  1  0.70524500  0.26287900  0.80689300  1
  C  446  1  0.79607700  0.25621100  0.79352600  1
  C  449  1  0.61538200  0.26819200  0.82075200  1
  C  452  1  0.61488700  0.25608000  0.76555900  1
  C  453  1  0.78598400  0.26542300  0.84985000  1
  C  454  1  0.68763200  0.18165400  0.80902800  1
  C  455  1  0.72768700  0.34172200  0.80057900  1
  C  460  1  0.65993600  0.48813700  0.95204100  1
  C  461  1  0.61759500  0.48594900  0.94530700  1
  C  462  1  0.66062500  0.48394400  0.92406300  1
  C  463  1  0.70362600  0.48637200  0.93045000  1
  C  464  1  0.74467400  0.48690700  0.92286600  1
  C  465  1  0.74433100  0.48534600  0.90925600  1
  C  466  1  0.70060700  0.48318300  0.90327000  1
  C  467  1  0.65967400  0.48230600  0.91052100  1
  C  468  1  0.57541700  0.48658400  0.95217500  1
  C  469  1  0.57464900  0.48972600  0.96556400  1
  C  470  1  0.61601500  0.49183300  0.97267700  1
  C  471  1  0.65810700  0.49069400  0.96563100  1
  C  472  1  0.73444600  0.46992400  0.94988000  1
  C  473  1  0.77749200  0.47339500  0.95613800  1
  C  474  1  0.76862700  0.51448400  0.95366700  1
  C  475  1  0.72563900  0.51146400  0.94735400  1
  C  476  1  0.78533700  0.53596400  0.95585100  1
  C  477  1  0.75955100  0.55440300  0.95207300  1
  C  478  1  0.71648000  0.55189800  0.94584400  1
  C  479  1  0.70058600  0.53036000  0.94345900  1
  C  480  1  0.71865900  0.44802400  0.94820500  1
  C  481  1  0.74453900  0.42996400  0.95267700  1
  C  482  1  0.78706700  0.43367900  0.95889600  1
  C  483  1  0.80335800  0.45519700  0.96056200  1
  C  496  1  0.70583700  0.48887900  0.94493900  1
  C  497  1  0.79667900  0.49568700  0.95826900  1
  C  500  1  0.61593500  0.48350400  0.93111200  1
  C  503  1  0.61560000  0.49523100  0.98636500  1
  C  504  1  0.78643000  0.48648900  0.90196300  1
  C  505  1  0.68747700  0.57008600  0.94288900  1
  C  506  1  0.72909100  0.41005700  0.95110700  1
  C  511  1  0.08257400  0.48579800  0.79766700  1
  C  512  1  0.12287400  0.47976500  0.80457100  1
  C  513  1  0.07769700  0.48007000  0.82547800  1
  C  514  1  0.03708700  0.48691700  0.81896300  1
  C  515  1  0.99606000  0.49017000  0.82632000  1
  C  516  1  0.99406100  0.48632400  0.83975700  1
  C  517  1  0.03542800  0.47981400  0.84590500  1
  C  518  1  0.07644600  0.47677600  0.83891300  1
  C  519  1  0.16524800  0.47708000  0.79795100  1
  C  520  1  0.16827800  0.48038400  0.78460300  1
  C  521  1  0.12883200  0.48609000  0.77736500  1
  C  522  1  0.08652200  0.48864700  0.78412800  1
  C  523  1  0.00178900  0.47479800  0.79893200  1
  C  524  1  0.96409900  0.48263600  0.79149100  1
  C  525  1  0.98912500  0.52178000  0.79512000  1
  C  526  1  0.02769500  0.51456300  0.80241700  1
  C  527  1  0.98186800  0.54443100  0.79308700  1
  C  528  1  0.01269000  0.55998400  0.79808600  1
  C  529  1  0.05167100  0.55333300  0.80527400  1
  C  530  1  0.05866800  0.53066100  0.80728900  1
  C  531  1  0.00487800  0.45183900  0.80125400  1
  C  532  1  0.97091300  0.43691800  0.79681500  1
  C  533  1  0.93548700  0.44518700  0.78881200  1
  C  534  1  0.93213800  0.46767200  0.78618000  1
  C  547  1  0.03724600  0.49041200  0.80452000  1
  C  548  1  0.95624400  0.50628600  0.78909000  1
  C  551  1  0.12227400  0.47645300  0.81870200  1
  C  554  1  0.13134500  0.48861600  0.76371700  1
  C  555  1  0.95215200  0.48936600  0.84693500  1
  C  556  1  0.08507000  0.56890500  0.80942400  1
  C  557  1  0.97155000  0.41443600  0.80069300  1
  C  562  1  0.08467600  0.26578400  0.95367900  1
  C  563  1  0.12449500  0.27207100  0.94663500  1
  C  564  1  0.07822800  0.27210600  0.92592800  1
  C  565  1  0.03799900  0.26508700  0.93256200  1
  C  566  1  0.99664100  0.26189400  0.92533700  1
  C  567  1  0.99401600  0.26590700  0.91192300  1
  C  568  1  0.03506300  0.27254400  0.90565700  1
  C  569  1  0.07634800  0.27558700  0.91251700  1
  C  570  1  0.16729600  0.27458900  0.95305100  1
  C  571  1  0.17131200  0.27067700  0.96631400  1
  C  572  1  0.13248500  0.26451500  0.97369600  1
  C  573  1  0.08959300  0.26239900  0.96716000  1
  C  574  1  0.00393500  0.27695600  0.95281200  1
  C  575  1  0.96657200  0.26908200  0.96036400  1
  C  576  1  0.99102400  0.22994600  0.95642000  1
  C  577  1  0.02925300  0.23719800  0.94899600  1
  C  578  1  0.98368000  0.20728000  0.95837000  1
  C  579  1  0.01412000  0.19174600  0.95317600  1
  C  580  1  0.05275400  0.19843000  0.94585300  1
  C  581  1  0.05982900  0.22111500  0.94391800  1
  C  582  1  0.00702800  0.29993800  0.95056700  1
  C  583  1  0.97333500  0.31484300  0.95518000  1
  C  584  1  0.93828500  0.30653200  0.96329500  1
  C  585  1  0.93496400  0.28402300  0.96586200  1
  C  598  1  0.03893000  0.26136200  0.94698900  1
  C  599  1  0.95863800  0.24541000  0.96268000  1
  C  602  1  0.12307800  0.27574100  0.93254400  1
  C  605  1  0.13669100  0.26085500  0.98725000  1
  C  606  1  0.95185100  0.26288500  0.90485900  1
  C  607  1  0.08584200  0.18285700  0.94151600  1
  C  608  1  0.97373600  0.33733600  0.95132500  1
  C  613  1  0.34211000  0.73820900  0.20199000  1
  C  614  1  0.38448000  0.73599600  0.19527200  1
  C  615  1  0.34151900  0.73387700  0.17402300  1
  C  616  1  0.29849300  0.73630100  0.18039900  1
  C  617  1  0.25746600  0.73679500  0.17280800  1
  C  618  1  0.25785700  0.73520800  0.15920100  1
  C  619  1  0.30160000  0.73304900  0.15322400  1
  C  620  1  0.34251200  0.73219900  0.16048300  1
  C  621  1  0.42663400  0.73667500  0.20214900  1
  C  622  1  0.42735000  0.73989900  0.21552800  1
  C  623  1  0.38594600  0.74206600  0.22262200  1
  C  624  1  0.34387900  0.74085500  0.21557600  1
  C  625  1  0.26774600  0.71987300  0.19984300  1
  C  626  1  0.22468600  0.72329300  0.20610400  1
  C  627  1  0.23321200  0.76438400  0.20356900  1
  C  628  1  0.27623900  0.76141600  0.19726800  1
  C  629  1  0.21631100  0.78584300  0.20571600  1
  C  630  1  0.24191700  0.80431200  0.20189800  1
  C  631  1  0.28506300  0.80185300  0.19570100  1
  C  632  1  0.30114800  0.78034000  0.19334900  1
  C  633  1  0.28370800  0.69799300  0.19820100  1
  C  634  1  0.25800500  0.67991000  0.20271700  1
  C  635  1  0.21547500  0.68357900  0.20894300  1
  C  636  1  0.19899000  0.70507200  0.21056800  1
  C  649  1  0.29622100  0.73885500  0.19488200  1
  C  650  1  0.20531700  0.74555900  0.20820100  1
  C  653  1  0.38618800  0.73347800  0.18108200  1
  C  656  1  0.38632700  0.74562600  0.23629300  1
  C  657  1  0.21577900  0.73633700  0.15190300  1
  C  658  1  0.31390200  0.82007900  0.19271300  1
  C  659  1  0.27362800  0.66002400  0.20118400  1
  C  664  1  0.33911600  0.51421600  0.04930300  1
  C  665  1  0.38192000  0.51610400  0.05583600  1
  C  666  1  0.34021900  0.51743500  0.07731400  1
  C  667  1  0.29682100  0.51526500  0.07110600  1
  C  668  1  0.25621300  0.51457300  0.07886100  1
  C  669  1  0.25730200  0.51582200  0.09247700  1
  C  670  1  0.30140000  0.51770000  0.09828800  1
  C  671  1  0.34194000  0.51867800  0.09086600  1
  C  672  1  0.42359300  0.51575800  0.04872000  1
  C  673  1  0.42338200  0.51340100  0.03527100  1
  C  674  1  0.38147400  0.51178900  0.02836200  1
  C  675  1  0.33995100  0.51236100  0.03567000  1
  C  676  1  0.26452900  0.53213000  0.05198200  1
  C  677  1  0.22127500  0.52867000  0.04583300  1
  C  678  1  0.23081000  0.48755200  0.04792600  1
  C  679  1  0.27409100  0.49055800  0.05408400  1
  C  680  1  0.21423100  0.46607200  0.04565800  1
  C  681  1  0.24040000  0.44762500  0.04921400  1
  C  682  1  0.28377700  0.45012700  0.05527400  1
  C  683  1  0.29958800  0.47165000  0.05772800  1
  C  684  1  0.28009100  0.55403500  0.05379300  1
  C  685  1  0.25379600  0.57211600  0.04954600  1
  C  686  1  0.21110500  0.56840600  0.04341500  1
  C  687  1  0.19500300  0.54688500  0.04163200  1
  C  700  1  0.29370300  0.51314300  0.05661500  1
  C  701  1  0.20230300  0.50637000  0.04357800  1
  C  704  1  0.38449300  0.51797900  0.07005500  1
  C  707  1  0.38022500  0.50965000  0.01460700  1
  C  708  1  0.21555700  0.51462500  0.09993200  1
  C  709  1  0.31302100  0.43195900  0.05806600  1
  C  710  1  0.26901300  0.59203500  0.05123300  1
  C  715  1  0.91885600  0.51613500  0.20403400  1
  C  716  1  0.87879800  0.52225100  0.19704100  1
  C  717  1  0.92437700  0.52164100  0.17621400  1
  C  718  1  0.96478800  0.51476800  0.18281500  1
  C  719  1  0.00595600  0.51141300  0.17553300  1
  C  720  1  0.00827100  0.51520600  0.16209500  1
  C  721  1  0.96707000  0.52170800  0.15586100  1
  C  722  1  0.92592300  0.52484300  0.16277500  1
  C  723  1  0.83633900  0.52519300  0.20357800  1
  C  724  1  0.83300200  0.52209500  0.21693300  1
  C  725  1  0.87218100  0.51626300  0.22424800  1
  C  726  1  0.91458100  0.51342400  0.21757600  1
  C  727  1  0.99975100  0.52694400  0.20287800  1
  C  728  1  0.03725600  0.51908000  0.21037900  1
  C  729  1  0.01194100  0.47996200  0.20680100  1
  C  730  1  0.97355200  0.48721400  0.19944100  1
  C  731  1  0.01896200  0.45730800  0.20888700  1
  C  732  1  0.98808400  0.44178800  0.20387900  1
  C  733  1  0.94930900  0.44847500  0.19661600  1
  C  734  1  0.94252200  0.47114900  0.19455800  1
  C  735  1  0.99685500  0.54989900  0.20051800  1
  C  736  1  0.03078300  0.56479500  0.20500100  1
  C  737  1  0.06604600  0.55650200  0.21305400  1
  C  738  1  0.06924800  0.53401700  0.21570200  1
  C  751  1  0.96427900  0.51136700  0.19726600  1
  C  752  1  0.04487300  0.49542600  0.21283600  1
  C  755  1  0.87970800  0.52542400  0.18290400  1
  C  758  1  0.86917200  0.51404400  0.23791500  1
  C  759  1  0.05034400  0.51215500  0.15499600  1
  C  760  1  0.91588100  0.43295000  0.19242600  1
  C  761  1  0.03026700  0.58727200  0.20111800  1
  C  766  1  0.91676700  0.73639600  0.04824300  1
  C  767  1  0.87688500  0.73016400  0.05527600  1
  C  768  1  0.92310700  0.73009300  0.07599300  1
  C  769  1  0.96336200  0.73709100  0.06936400  1
  C  770  1  0.00472800  0.74024700  0.07658900  1
  C  771  1  0.00733000  0.73623100  0.08999900  1
  C  772  1  0.96627100  0.72961100  0.09626500  1
  C  773  1  0.92497500  0.72659800  0.08940200  1
  C  774  1  0.83409500  0.72770200  0.04884500  1
  C  775  1  0.83014400  0.73164800  0.03558100  1
  C  776  1  0.86906500  0.73771300  0.02821800  1
  C  777  1  0.91193800  0.73977100  0.03476500  1
  C  778  1  0.99745400  0.72517500  0.04913000  1
  C  779  1  0.03486300  0.73300800  0.04158100  1
  C  780  1  0.01053700  0.77216700  0.04550100  1
  C  781  1  0.97226200  0.76495500  0.05292100  1
  C  782  1  0.01794700  0.79482300  0.04353600  1
  C  783  1  0.98749600  0.81038800  0.04869400  1
  C  784  1  0.94878600  0.80374300  0.05600100  1
  C  785  1  0.94169600  0.78106800  0.05797200  1
  C  786  1  0.99424000  0.70220000  0.05137900  1
  C  787  1  0.02786300  0.68725900  0.04677100  1
  C  788  1  0.06297200  0.69552700  0.03865900  1
  C  789  1  0.06641900  0.71803200  0.03609700  1
  C  802  1  0.96249800  0.74080100  0.05493900  1
  C  803  1  0.04289800  0.75667000  0.03926200  1
  C  806  1  0.87825200  0.72649500  0.06936800  1
  C  809  1  0.86493100  0.74150500  0.01469800  1
  C  810  1  0.04951000  0.73921800  0.09705600  1
  C  811  1  0.91563200  0.81933700  0.06026900  1
  C  812  1  0.02732300  0.66477200  0.05063300  1
  C  817  1  0.66299100  0.76527300  0.29942500  1
  C  818  1  0.62063600  0.76855300  0.30600100  1
  C  819  1  0.66301100  0.76984300  0.32737400  1
  C  820  1  0.70592000  0.76622200  0.32113200  1
  C  821  1  0.74663200  0.76495800  0.32881700  1
  C  822  1  0.74603700  0.76711000  0.34239100  1
  C  823  1  0.70244300  0.77046000  0.34825500  1
  C  824  1  0.66182800  0.77193300  0.34089600  1
  C  825  1  0.57878300  0.76900900  0.29896700  1
  C  826  1  0.57836400  0.76616500  0.28555300  1
  C  827  1  0.61985800  0.76317500  0.27861800  1
  C  828  1  0.66159300  0.76287700  0.28582300  1
  C  829  1  0.73960600  0.78128400  0.30168200  1
  C  830  1  0.78201000  0.77639600  0.29541300  1
  C  831  1  0.76757900  0.73570000  0.29812900  1
  C  832  1  0.72521400  0.74016200  0.30446500  1
  C  833  1  0.78109700  0.71370000  0.29601100  1
  C  834  1  0.75265000  0.69618500  0.29983500  1
  C  835  1  0.71010900  0.70012300  0.30610100  1
  C  836  1  0.69760400  0.72216800  0.30847300  1
  C  837  1  0.72682900  0.80363800  0.30326500  1
  C  838  1  0.75506400  0.82079900  0.29869600  1
  C  839  1  0.79682800  0.81569300  0.29241300  1
  C  840  1  0.81016600  0.79369900  0.29084500  1
  C  853  1  0.70840000  0.76333300  0.30667800  1
  C  854  1  0.79807000  0.75351900  0.29338400  1
  C  857  1  0.61866100  0.77114200  0.32018800  1
  C  860  1  0.62019000  0.76084100  0.26489200  1
  C  861  1  0.78789000  0.76561000  0.34973700  1
  C  862  1  0.67831400  0.68294700  0.30902800  1
  C  863  1  0.74243600  0.84114500  0.30028200  1
  C  868  1  0.65992600  0.98684400  0.45148300  1
  C  869  1  0.61811800  0.98315900  0.44470900  1
  C  870  1  0.66197000  0.98118900  0.42360700  1
  C  871  1  0.70439800  0.98515900  0.43003100  1
  C  872  1  0.74558400  0.98631700  0.42253900  1
  C  873  1  0.74581500  0.98382700  0.40898800  1
  C  874  1  0.70270300  0.98009300  0.40293700  1
  C  875  1  0.66166900  0.97866000  0.41010900  1
  C  876  1  0.57570400  0.98296100  0.45147400  1
  C  877  1  0.57414400  0.98672100  0.46479600  1
  C  878  1  0.61499800  0.99036700  0.47192100  1
  C  879  1  0.65739800  0.99006000  0.46501800  1
  C  880  1  0.73646900  0.97054800  0.44980200  1
  C  881  1  0.77861300  0.97545900  0.45619900  1
  C  882  1  0.76490200  0.01612000  0.45307100  1
  C  883  1  0.72291000  0.01163500  0.44655000  1
  C  884  1  0.77852300  0.03812400  0.45510900  1
  C  885  1  0.75049200  0.05562500  0.45104000  1
  C  886  1  0.70834100  0.05168000  0.44457000  1
  C  887  1  0.69580600  0.02961200  0.44226000  1
  C  888  1  0.72347400  0.94819300  0.44836400  1
  C  889  1  0.75125600  0.93106200  0.45318400  1
  C  890  1  0.79279500  0.93619700  0.45957200  1
  C  891  1  0.80632300  0.95819100  0.46101500  1
  C  904  1  0.70588500  0.98845600  0.44446700  1
  C  905  1  0.79487700  0.99833300  0.45809900  1
  C  908  1  0.61718700  0.97992600  0.43056600  1
  C  911  1  0.61325800  0.99428800  0.48552300  1
  C  912  1  0.78802800  0.98534200  0.40183200  1
  C  913  1  0.67680900  0.06887600  0.44145000  1
  C  914  1  0.73843000  0.91071600  0.45172500  1
  C  919  1  0.08639800  0.98692000  0.29829400  1
  C  920  1  0.12600800  0.97963000  0.30509200  1
  C  921  1  0.08066100  0.97952700  0.32596100  1
  C  922  1  0.04077900  0.98756500  0.31956700  1
  C  923  1  0.99992700  0.99109900  0.32694700  1
  C  924  1  0.99739500  0.98641800  0.34028000  1
  C  925  1  0.03806700  0.97875200  0.34632600  1
  C  926  1  0.07892100  0.97539800  0.33931200  1
  C  927  1  0.16820900  0.97653900  0.29845600  1
  C  928  1  0.17178700  0.98077700  0.28521400  1
  C  929  1  0.13305400  0.98784600  0.27808500  1
  C  930  1  0.09081500  0.99065700  0.28484100  1
  C  931  1  0.00493000  0.97721200  0.29929700  1
  C  932  1  0.96767600  0.98606100  0.29209000  1
  C  933  1  0.99547500  0.02457400  0.29649400  1
  C  934  1  0.03357900  0.01630300  0.30358800  1
  C  935  1  0.99007900  0.04743800  0.29487000  1
  C  936  1  0.02246700  0.06214900  0.29999500  1
  C  937  1  0.06112600  0.05444400  0.30695900  1
  C  938  1  0.06593600  0.03156100  0.30867500  1
  C  939  1  0.00670900  0.95408900  0.30107900  1
  C  940  1  0.97204800  0.93987800  0.29627500  1
  C  941  1  0.93703300  0.94918100  0.28851400  1
  C  942  1  0.93483600  0.97188200  0.28646300  1
  C  955  1  0.04137900  0.99191000  0.30521100  1
  C  956  1  0.96132200  0.00996900  0.29023700  1
  C  959  1  0.12494000  0.97542300  0.31913800  1
  C  962  1  0.13652600  0.99172000  0.26456500  1
  C  963  1  0.95559400  0.98969200  0.34745200  1
  C  964  1  0.09642300  0.06911100  0.31108600  1
  C  965  1  0.97192700  0.91710300  0.29956300  1
  C  970  1  0.08371000  0.76529500  0.45388200  1
  C  971  1  0.12350500  0.77246900  0.44712500  1
  C  972  1  0.07878000  0.77203800  0.42614600  1
  C  973  1  0.03871400  0.76413600  0.43250900  1
  C  974  1  0.99804200  0.76047900  0.42506800  1
  C  975  1  0.99579400  0.76499100  0.41170900  1
  C  976  1  0.03665700  0.77250900  0.40569800  1
  C  977  1  0.07737400  0.77592500  0.41276700  1
  C  978  1  0.16536800  0.77595100  0.45386600  1
  C  979  1  0.16831800  0.77243500  0.46719500  1
  C  980  1  0.12933300  0.76557900  0.47428200  1
  C  981  1  0.08759000  0.76209900  0.46739500  1
  C  982  1  0.00213700  0.77472500  0.45263400  1
  C  983  1  0.96479800  0.76587700  0.45980700  1
  C  984  1  0.99329600  0.72738100  0.45570000  1
  C  985  1  0.03149700  0.73565800  0.44864900  1
  C  986  1  0.98815600  0.70452600  0.45743200  1
  C  987  1  0.02084900  0.68983300  0.45243900  1
  C  988  1  0.05955800  0.69754400  0.44550100  1
  C  989  1  0.06418100  0.72041700  0.44370500  1
  C  990  1  0.00372600  0.79783000  0.45075700  1
  C  991  1  0.96885200  0.81203200  0.45545500  1
  C  992  1  0.93369800  0.80273200  0.46317000  1
  C  993  1  0.93163300  0.78004700  0.46529200  1
  C  1006  1  0.03897100  0.76004200  0.44689300  1
  C  1007  1  0.95873100  0.74198100  0.46178300  1
  C  1010  1  0.12288900  0.77626300  0.43303500  1
  C  1013  1  0.13170800  0.76305700  0.48794200  1
  C  1014  1  0.95408200  0.76171000  0.40448500  1
  C  1015  1  0.09497900  0.68290100  0.44143000  1
  C  1016  1  0.96876200  0.83480100  0.45214600  1
  C  1021  1  0.33758500  0.23586800  0.70264300  1
  C  1022  1  0.37991000  0.23250800  0.69606600  1
  C  1023  1  0.33756200  0.23141300  0.67468700  1
  C  1024  1  0.29469000  0.23514800  0.68092700  1
  C  1025  1  0.25402100  0.23655800  0.67323200  1
  C  1026  1  0.25461400  0.23442900  0.65965600  1
  C  1027  1  0.29818300  0.23097800  0.65379700  1
  C  1028  1  0.33875700  0.22936800  0.66116400  1
  C  1029  1  0.42176700  0.23196500  0.70309600  1
  C  1030  1  0.42223400  0.23483700  0.71650600  1
  C  1031  1  0.38078500  0.23790900  0.72345100  1
  C  1032  1  0.33903300  0.23827300  0.71624500  1
  C  1033  1  0.26066500  0.22012000  0.70034400  1
  C  1034  1  0.21817900  0.22515300  0.70653400  1
  C  1035  1  0.23343700  0.26580600  0.70393200  1
  C  1036  1  0.27579100  0.26122700  0.69762000  1
  C  1037  1  0.22028600  0.28783900  0.70610700  1
  C  1038  1  0.24905200  0.30527600  0.70235000  1
  C  1039  1  0.29161200  0.30124500  0.69611200  1
  C  1040  1  0.30373900  0.27916100  0.69367900  1
  C  1041  1  0.27300700  0.19770700  0.69874800  1
  C  1042  1  0.24421800  0.18064600  0.70319500  1
  C  1043  1  0.20232600  0.18590200  0.70936300  1
  C  1044  1  0.18947800  0.20795300  0.71097600  1
  C  1057  1  0.29221700  0.23798700  0.69538500  1
  C  1058  1  0.20252800  0.24808400  0.70858800  1
  C  1061  1  0.38187800  0.22995900  0.68187800  1
  C  1064  1  0.38071600  0.24034300  0.73718300  1
  C  1065  1  0.21279200  0.23603200  0.65229900  1
  C  1066  1  0.32368000  0.31836600  0.69326100  1
  C  1067  1  0.25633600  0.16022500  0.70162000  1
  C  1072  1  0.33916300  0.01544900  0.55003200  1
  C  1073  1  0.38121100  0.01892900  0.55673200  1
  C  1074  1  0.33799500  0.02030900  0.57795700  1
  C  1075  1  0.29536900  0.01651900  0.57159800  1
  C  1076  1  0.25438900  0.01522800  0.57916700  1
  C  1077  1  0.25449600  0.01749500  0.59273400  1
  C  1078  1  0.29781300  0.02101800  0.59871800  1
  C  1079  1  0.33867000  0.02253400  0.59147300  1
  C  1080  1  0.42337200  0.01944800  0.54984600  1
  C  1081  1  0.42441700  0.01642000  0.53645400  1
  C  1082  1  0.38325200  0.01315100  0.52941700  1
  C  1083  1  0.34116300  0.01286700  0.53644600  1
  C  1084  1  0.26242700  0.03140600  0.55200000  1
  C  1085  1  0.22034500  0.02644400  0.54558500  1
  C  1086  1  0.23477100  0.98578600  0.54845000  1
  C  1087  1  0.27681600  0.99031800  0.55493100  1
  C  1088  1  0.22143400  0.96376500  0.54631800  1
  C  1089  1  0.24979100  0.94629800  0.55026200  1
  C  1090  1  0.29202300  0.95030200  0.55667400  1
  C  1091  1  0.30431200  0.97237000  0.55906800  1
  C  1092  1  0.27505500  0.05378100  0.55357300  1
  C  1093  1  0.24701000  0.07088700  0.54884700  1
  C  1094  1  0.20559800  0.06570000  0.54240900  1
  C  1095  1  0.19238100  0.04368800  0.54085700  1
  C  1108  1  0.29347300  0.01351600  0.55714500  1
  C  1109  1  0.20444800  0.00354500  0.54355400  1
  C  1112  1  0.38259800  0.02167900  0.57090900  1
  C  1115  1  0.38412700  0.01052300  0.51573400  1
  C  1116  1  0.21242600  0.01596300  0.59996600  1
  C  1117  1  0.32377500  0.93316500  0.55970900  1
  C  1118  1  0.25950000  0.09125300  0.55042900  1
  C  1123  1  0.91599200  0.01522300  0.70394500  1
  C  1124  1  0.87606200  0.02209900  0.69714500  1
  C  1125  1  0.92103900  0.02202500  0.67621200  1
  C  1126  1  0.96122500  0.01434400  0.68260700  1
  C  1127  1  0.00201400  0.01085000  0.67519200  1
  C  1128  1  0.00419400  0.01525000  0.66182200  1
  C  1129  1  0.96324100  0.02257800  0.65577900  1
  C  1130  1  0.92244300  0.02587500  0.66282900  1
  C  1131  1  0.83387000  0.02502300  0.70381100  1
  C  1132  1  0.83059400  0.02098200  0.71708100  1
  C  1133  1  0.86960400  0.01426500  0.72421500  1
  C  1134  1  0.91186200  0.01170100  0.71742600  1
  C  1135  1  0.99721500  0.02544800  0.70271300  1
  C  1136  1  0.03503400  0.01702000  0.70986200  1
  C  1137  1  0.00804600  0.97821300  0.70591100  1
  C  1138  1  0.96954700  0.98605800  0.69881700  1
  C  1139  1  0.01405900  0.95542800  0.70774000  1
  C  1140  1  0.98193000  0.94038400  0.70281800  1
  C  1141  1  0.94294800  0.94764900  0.69583000  1
  C  1142  1  0.93750700  0.97046200  0.69392200  1
  C  1143  1  0.99478000  0.04851100  0.70071900  1
  C  1144  1  0.02929500  0.06307900  0.70524800  1
  C  1145  1  0.06499900  0.05418200  0.71292900  1
  C  1146  1  0.06783800  0.03155000  0.71519800  1
  C  1159  1  0.96103100  0.01036200  0.69700200  1
  C  1160  1  0.04204000  0.99319800  0.71192800  1
  C  1163  1  0.87678800  0.02603400  0.68307000  1
  C  1166  1  0.86665700  0.01057900  0.73778300  1
  C  1167  1  0.04593900  0.01202000  0.65461700  1
  C  1168  1  0.90799200  0.93265800  0.69185500  1
  C  1169  1  0.02856700  0.08577000  0.70173800  1
  C  1174  1  0.91787700  0.23701600  0.54792700  1
  C  1175  1  0.87790200  0.22993900  0.55463400  1
  C  1176  1  0.92237700  0.23022300  0.57566300  1
  C  1177  1  0.96259100  0.23807100  0.56934900  1
  C  1178  1  0.00320900  0.24162200  0.57683000  1
  C  1179  1  0.00526700  0.23706800  0.59018700  1
  C  1180  1  0.96426900  0.22960100  0.59615100  1
  C  1181  1  0.92360500  0.22628500  0.58903900  1
  C  1182  1  0.83609400  0.22658600  0.54784200  1
  C  1183  1  0.83337500  0.23012800  0.53450800  1
  C  1184  1  0.87257500  0.23684500  0.52746900  1
  C  1185  1  0.91424200  0.24021200  0.53441000  1
  C  1186  1  0.99937700  0.22747900  0.54925300  1
  C  1187  1  0.03683500  0.23629200  0.54211300  1
  C  1188  1  0.00850800  0.27481400  0.54621800  1
  C  1189  1  0.97019000  0.26657200  0.55323400  1
  C  1190  1  0.01375400  0.29766300  0.54448800  1
  C  1191  1  0.98099600  0.31238400  0.54942100  1
  C  1192  1  0.94214200  0.30470500  0.55631100  1
  C  1193  1  0.93748900  0.28184100  0.55813600  1
  C  1194  1  0.99763700  0.20437700  0.55111900  1
  C  1195  1  0.03241800  0.19013200  0.54641800  1
  C  1196  1  0.06768700  0.19939800  0.53872800  1
  C  1197  1  0.06994300  0.22208700  0.53663500  1
  C  1210  1  0.96255300  0.24219600  0.55496800  1
  C  1211  1  0.04306400  0.26018200  0.54015700  1
  C  1214  1  0.87830700  0.22612000  0.56872400  1
  C  1217  1  0.87069700  0.23933500  0.51382000  1
  C  1218  1  0.04692400  0.24025900  0.59745400  1
  C  1219  1  0.90656300  0.31935700  0.56026500  1
  C  1220  1  0.03232900  0.16735800  0.54971100  1
  C  1225  1  0.16185900  0.76503500  0.79949000  1
  C  1226  1  0.11966500  0.76841700  0.80613200  1
  C  1227  1  0.16244100  0.76965400  0.82743500  1
  C  1228  1  0.20521100  0.76595600  0.82113300  1
  C  1229  1  0.24605000  0.76466100  0.82876400  1
  C  1230  1  0.24568800  0.76685700  0.84233600  1
  C  1231  1  0.20222900  0.77028600  0.84825900  1
  C  1232  1  0.16149800  0.77178500  0.84095500  1
  C  1233  1  0.07766100  0.76898500  0.79917200  1
  C  1234  1  0.07692900  0.76616100  0.78576100  1
  C  1235  1  0.11824400  0.76304700  0.77876600  1
  C  1236  1  0.16014800  0.76262400  0.78589000  1
  C  1237  1  0.23857300  0.78097700  0.80163000  1
  C  1238  1  0.28083500  0.77605800  0.79529400  1
  C  1239  1  0.26633100  0.73537900  0.79803800  1
  C  1240  1  0.22410800  0.73987100  0.80443900  1
  C  1241  1  0.27974200  0.71337100  0.79589600  1
  C  1242  1  0.25130500  0.69587800  0.79975500  1
  C  1243  1  0.20890200  0.69984200  0.80608800  1
  C  1244  1  0.19652200  0.72189600  0.80848700  1
  C  1245  1  0.22592000  0.80334200  0.80323500  1
  C  1246  1  0.25412800  0.82048100  0.79862400  1
  C  1247  1  0.29572800  0.81533700  0.79226800  1
  C  1248  1  0.30895700  0.79333400  0.79067900  1
  C  1261  1  0.20740300  0.76305200  0.80667500  1
  C  1262  1  0.29678400  0.75317100  0.79324400  1
  C  1265  1  0.11797500  0.77102300  0.82031700  1
  C  1268  1  0.11789100  0.76077900  0.76503600  1
  C  1269  1  0.28764800  0.76536500  0.84962800  1
  C  1270  1  0.17708900  0.68268700  0.80904200  1
  C  1271  1  0.24162800  0.84083700  0.80024300  1
  C  1276  1  0.16030400  0.98681600  0.95130100  1
  C  1277  1  0.11858800  0.98307600  0.94449100  1
  C  1278  1  0.16267300  0.98118100  0.92342600  1
  C  1279  1  0.20501500  0.98519500  0.92988400  1
  C  1280  1  0.24627300  0.98639100  0.92242500  1
  C  1281  1  0.24665500  0.98389100  0.90887400  1
  C  1282  1  0.20362000  0.98012400  0.90278900  1
  C  1283  1  0.16252100  0.97865000  0.90992800  1
  C  1284  1  0.07610300  0.98279200  0.95122000  1
  C  1285  1  0.07437600  0.98651300  0.96454500  1
  C  1286  1  0.11513300  0.99023100  0.97169700  1
  C  1287  1  0.15761300  0.99000900  0.96483300  1
  C  1288  1  0.23693900  0.97061500  0.94968300  1
  C  1289  1  0.27896200  0.97557600  0.95612800  1
  C  1290  1  0.26507800  0.01621800  0.95299300  1
  C  1291  1  0.22320300  0.01168600  0.94642600  1
  C  1292  1  0.27854200  0.03823700  0.95505600  1
  C  1293  1  0.25045300  0.05570600  0.95097000  1
  C  1294  1  0.20840700  0.05171200  0.94445800  1
  C  1295  1  0.19604100  0.02963200  0.94212000  1
  C  1296  1  0.22408100  0.94824500  0.94823100  1
  C  1297  1  0.25186800  0.93114700  0.95308600  1
  C  1298  1  0.29327600  0.93633100  0.95952500  1
  C  1299  1  0.30667800  0.95833900  0.96098200  1
  C  1312  1  0.20632600  0.98848900  0.94432300  1
  C  1313  1  0.29508000  0.99846800  0.95805000  1
  C  1316  1  0.11782300  0.97985800  0.93034700  1
  C  1319  1  0.11326800  0.99405500  0.98529800  1
  C  1320  1  0.28893600  0.98542100  0.90175000  1
  C  1321  1  0.17679600  0.06886800  0.94132800  1
  C  1322  1  0.23916600  0.91078700  0.95161000  1
  C  1327  1  0.58458300  0.98648600  0.79765200  1
  C  1328  1  0.62456200  0.97929000  0.80431400  1
  C  1329  1  0.58032200  0.97956300  0.82537700  1
  C  1330  1  0.54011500  0.98750300  0.81910200  1
  C  1331  1  0.49961800  0.99113200  0.82661500  1
  C  1332  1  0.49768800  0.98658000  0.83997000  1
  C  1333  1  0.53864500  0.97898800  0.84589900  1
  C  1334  1  0.57920100  0.97559400  0.83875100  1
  C  1335  1  0.66625200  0.97588100  0.79747800  1
  C  1336  1  0.66884700  0.97948900  0.78414800  1
  C  1337  1  0.62963600  0.98633500  0.77715400  1
  C  1338  1  0.58809100  0.98975800  0.78414100  1
  C  1339  1  0.50306600  0.97701000  0.79902700  1
  C  1340  1  0.46559500  0.98587600  0.79191300  1
  C  1341  1  0.49405900  0.02436200  0.79605800  1
  C  1342  1  0.53241500  0.01606600  0.80303500  1
  C  1343  1  0.48879100  0.04722700  0.79439700  1
  C  1344  1  0.52148500  0.06191100  0.79939800  1
  C  1345  1  0.56035700  0.05417400  0.80625500  1
  C  1346  1  0.56512300  0.03129400  0.80797600  1
  C  1347  1  0.50470200  0.95390200  0.80087900  1
  C  1348  1  0.46973600  0.93971600  0.79622400  1
  C  1349  1  0.43447200  0.94902800  0.78855200  1
  C  1350  1  0.43237600  0.97171700  0.78644600  1
  C  1363  1  0.54000400  0.99167800  0.80472900  1
  C  1364  1  0.45944900  0.00977800  0.78998200  1
  C  1367  1  0.62428200  0.97539700  0.81839700  1
  C  1370  1  0.63141700  0.98896300  0.76349900  1
  C  1371  1  0.45616600  0.98990200  0.84726400  1
  C  1372  1  0.59577600  0.06881400  0.81032500  1
  C  1373  1  0.46965300  0.91695200  0.79954000  1
  C  1378  1  0.58386400  0.76532600  0.95368200  1
  C  1379  1  0.62360400  0.77247600  0.94689100  1
  C  1380  1  0.57867900  0.77205400  0.92595000  1
  C  1381  1  0.53866900  0.76416000  0.93234400  1
  C  1382  1  0.49794300  0.76048500  0.92493000  1
  C  1383  1  0.49561200  0.76496300  0.91156900  1
  C  1384  1  0.53641700  0.77248400  0.90552700  1
  C  1385  1  0.57717800  0.77592000  0.91257000  1
  C  1386  1  0.66558500  0.77589700  0.95358400  1
  C  1387  1  0.66872600  0.77230000  0.96690000  1
  C  1388  1  0.62980200  0.76545100  0.97401300  1
  C  1389  1  0.58790000  0.76209500  0.96718800  1
  C  1390  1  0.50228400  0.77477200  0.95249700  1
  C  1391  1  0.46501800  0.76593500  0.95970500  1
  C  1392  1  0.49343000  0.72743400  0.95558200  1
  C  1393  1  0.53156400  0.73569600  0.94849800  1
  C  1394  1  0.48829600  0.70458300  0.95733200  1
  C  1395  1  0.52094500  0.68987900  0.95233000  1
  C  1396  1  0.55959600  0.69757600  0.94536000  1
  C  1397  1  0.56419600  0.72044300  0.94354100  1
  C  1398  1  0.50386200  0.79787600  0.95061200  1
  C  1399  1  0.46904700  0.81208200  0.95533900  1
  C  1400  1  0.43399100  0.80279400  0.96309300  1
  C  1401  1  0.43193600  0.78011100  0.96521800  1
  C  1414  1  0.53904600  0.76008000  0.94672900  1
  C  1415  1  0.45894700  0.74204300  0.96169000  1
  C  1418  1  0.62285000  0.77627900  0.93280400  1
  C  1421  1  0.63253500  0.76276200  0.98765300  1
  C  1422  1  0.45388300  0.76164200  0.90436500  1
  C  1423  1  0.59500900  0.68292000  0.94129800  1
  C  1424  1  0.46890600  0.83484900  0.95202800  1
  C  1429  1  0.83881600  0.23688300  0.20236700  1
  C  1430  1  0.88113300  0.23355200  0.19578100  1
  C  1431  1  0.83865000  0.23222600  0.17442200  1
  C  1432  1  0.79577600  0.23588800  0.18067600  1
  C  1433  1  0.75502600  0.23713100  0.17300700  1
  C  1434  1  0.75554200  0.23492000  0.15943600  1
  C  1435  1  0.79910000  0.23154100  0.15355700  1
  C  1436  1  0.83975700  0.23008700  0.16090200  1
  C  1437  1  0.92301000  0.23307500  0.20280400  1
  C  1438  1  0.92349100  0.23594900  0.21621600  1
  C  1439  1  0.88203600  0.23898500  0.22316400  1
  C  1440  1  0.84027900  0.23931500  0.21596500  1
  C  1441  1  0.76221100  0.22087000  0.20015100  1
  C  1442  1  0.71986600  0.22576700  0.20645000  1
  C  1443  1  0.73425200  0.26645600  0.20369200  1
  C  1444  1  0.77656200  0.26198600  0.19733200  1
  C  1445  1  0.72076600  0.28845800  0.20581700  1
  C  1446  1  0.74918400  0.30596700  0.20197100  1
  C  1447  1  0.79171900  0.30202100  0.19570100  1
  C  1448  1  0.80415400  0.27997300  0.19330500  1
  C  1449  1  0.77498500  0.19851500  0.19857500  1
  C  1450  1  0.74682500  0.18136200  0.20318600  1
  C  1451  1  0.70514800  0.18648000  0.20951000  1
  C  1452  1  0.69179000  0.20847400  0.21106500  1
  C  1465  1  0.79337600  0.23881300  0.19512800  1
  C  1466  1  0.70380600  0.24864600  0.20847000  1
  C  1469  1  0.88303200  0.23092300  0.18159500  1
  C  1472  1  0.88183500  0.24136700  0.23689900  1
  C  1473  1  0.71364400  0.23639200  0.15210900  1
  C  1474  1  0.82356900  0.31918300  0.19279300  1
  C  1475  1  0.75945400  0.16101600  0.20159700  1
  C  1480  1  0.83958700  0.01551600  0.04988700  1
  C  1481  1  0.88165200  0.01900400  0.05657800  1
  C  1482  1  0.83852200  0.02031600  0.07781600  1
  C  1483  1  0.79588000  0.01652400  0.07146400  1
  C  1484  1  0.75493000  0.01519400  0.07904200  1
  C  1485  1  0.75508900  0.01742500  0.09261000  1
  C  1486  1  0.79840900  0.02095600  0.09858800  1
  C  1487  1  0.83923800  0.02250800  0.09133400  1
  C  1488  1  0.92378900  0.01955600  0.04968100  1
  C  1489  1  0.92478800  0.01654200  0.03628900  1
  C  1490  1  0.88360300  0.01325700  0.02926100  1
  C  1491  1  0.84153800  0.01295100  0.03630000  1
  C  1492  1  0.76284400  0.03145600  0.05189200  1
  C  1493  1  0.72071000  0.02650600  0.04550000  1
  C  1494  1  0.73517200  0.98584000  0.04832600  1
  C  1495  1  0.77727100  0.99036000  0.05478400  1
  C  1496  1  0.72181400  0.96382300  0.04619400  1
  C  1497  1  0.75019100  0.94634800  0.05011800  1
  C  1498  1  0.79247300  0.95034300  0.05650500  1
  C  1499  1  0.80479700  0.97240600  0.05889500  1
  C  1500  1  0.77547600  0.05382900  0.05347500  1
  C  1501  1  0.74737900  0.07094500  0.04878300  1
  C  1502  1  0.70590600  0.06577200  0.04237400  1
  C  1503  1  0.69268900  0.04376100  0.04080900  1
  C  1516  1  0.79392600  0.01355600  0.05701000  1
  C  1517  1  0.70480200  0.00360900  0.04346300  1
  C  1520  1  0.88309100  0.02172600  0.07075600  1
  C  1523  1  0.88445700  0.01060500  0.01558200  1
  C  1524  1  0.71303800  0.01586300  0.09984300  1
  C  1525  1  0.82422300  0.93319900  0.05952800  1
  C  1526  1  0.75988300  0.09130700  0.05037200  1
  C  1531  1  0.41710400  0.01537200  0.20382600  1
  C  1532  1  0.37729200  0.02260800  0.19710000  1
  C  1533  1  0.42182600  0.02212900  0.17609300  1
  C  1534  1  0.46189400  0.01417600  0.18243300  1
  C  1535  1  0.50249200  0.01047000  0.17497500  1
  C  1536  1  0.50464700  0.01497500  0.16161800  1
  C  1537  1  0.46380700  0.02255900  0.15562400  1
  C  1538  1  0.42316100  0.02602600  0.16271400  1
  C  1539  1  0.33552300  0.02615300  0.20387300  1
  C  1540  1  0.33269800  0.02264100  0.21720500  1
  C  1541  1  0.37172300  0.01572700  0.22425500  1
  C  1542  1  0.41336200  0.01218000  0.21733900  1
  C  1543  1  0.49866300  0.02475100  0.20253400  1
  C  1544  1  0.53600200  0.01589600  0.20970500  1
  C  1545  1  0.50744500  0.97741100  0.20560600  1
  C  1546  1  0.46921700  0.98569900  0.19857000  1
  C  1547  1  0.51258900  0.95455300  0.20732400  1
  C  1548  1  0.47989500  0.93986900  0.20232300  1
  C  1549  1  0.44117200  0.94759300  0.19539500  1
  C  1550  1  0.43650900  0.97047100  0.19362800  1
  C  1551  1  0.49710300  0.04785300  0.20064800  1
  C  1552  1  0.53197300  0.06204800  0.20534800  1
  C  1553  1  0.56711600  0.05274700  0.21306600  1
  C  1554  1  0.56917700  0.03006100  0.21518800  1
  C  1567  1  0.46176300  0.01008400  0.19681500  1
  C  1568  1  0.54203800  0.99200000  0.21168500  1
  C  1571  1  0.37780000  0.02640900  0.18301100  1
  C  1574  1  0.36943000  0.01313700  0.23790700  1
  C  1575  1  0.54628600  0.01164100  0.15438600  1
  C  1576  1  0.40576600  0.93295800  0.19131300  1
  C  1577  1  0.53207600  0.08480900  0.20202700  1
  C  1582  1  0.41811800  0.23702900  0.04790800  1
  C  1583  1  0.37815700  0.22994900  0.05462100  1
  C  1584  1  0.42267700  0.23023600  0.07564300  1
  C  1585  1  0.46285900  0.23810200  0.06932100  1
  C  1586  1  0.50347800  0.24168700  0.07679400  1
  C  1587  1  0.50557000  0.23716000  0.09015300  1
  C  1588  1  0.46461300  0.22966200  0.09612400  1
  C  1589  1  0.42394600  0.22630800  0.08902000  1
  C  1590  1  0.33632200  0.22663000  0.04783600  1
  C  1591  1  0.33355100  0.23024100  0.03450800  1
  C  1592  1  0.37273600  0.23696800  0.02746500  1
  C  1593  1  0.41444800  0.24026100  0.03439500  1
  C  1594  1  0.49960700  0.22747500  0.04923000  1
  C  1595  1  0.53710200  0.23627000  0.04209700  1
  C  1596  1  0.50880500  0.27480400  0.04618100  1
  C  1597  1  0.47046600  0.26658000  0.05319600  1
  C  1598  1  0.51406600  0.29765200  0.04444000  1
  C  1599  1  0.48129600  0.31238400  0.04935600  1
  C  1600  1  0.44242000  0.30472200  0.05624300  1
  C  1601  1  0.43776500  0.28186200  0.05808500  1
  C  1602  1  0.49783300  0.20437300  0.05110200  1
  C  1603  1  0.53260600  0.19011200  0.04641400  1
  C  1604  1  0.56792100  0.19936200  0.03873300  1
  C  1605  1  0.57021100  0.22204900  0.03663400  1
  C  1618  1  0.46280700  0.24220800  0.05494000  1
  C  1619  1  0.54336300  0.26015700  0.04013500  1
  C  1622  1  0.37859900  0.22611100  0.06871000  1
  C  1625  1  0.37072700  0.23964000  0.01382600  1
  C  1626  1  0.54723000  0.24041500  0.09740800  1
  C  1627  1  0.40682100  0.31938200  0.06017500  1
  C  1628  1  0.53245000  0.16733800  0.04971100  1
  C  1633  1  0.43043500  0.38156200  0.30642100  1
  C  1635  1  0.45993300  0.35249200  0.31965000  1
  C  1636  1  0.42130700  0.33937100  0.31665500  1
  C  1638  1  0.39144600  0.36826100  0.30347600  1
  C  1640  1  0.35695700  0.37487500  0.29510200  1
  C  1648  1  0.43010700  0.37034300  0.44543600  1
  C  1650  1  0.45926900  0.39936700  0.43211500  1
  C  1651  1  0.42065300  0.41247500  0.43514200  1
  C  1653  1  0.39114500  0.38363400  0.44841900  1
  C  1655  1  0.35683900  0.37703300  0.45685400  1
  C  1663  1  0.56847500  0.62081400  0.69448000  1
  C  1665  1  0.53885200  0.64826900  0.68013600  1
  C  1666  1  0.57607400  0.66224900  0.68316200  1
  C  1668  1  0.60595300  0.63504200  0.69752000  1
  C  1670  1  0.64058700  0.63028200  0.70625600  1
  C  1678  1  0.57063000  0.63175400  0.55633400  1
  C  1680  1  0.54178900  0.60279000  0.56974300  1
  C  1681  1  0.58012100  0.58959400  0.56656700  1
  C  1683  1  0.60928400  0.61837600  0.55319400  1
  C  1685  1  0.64316700  0.62492400  0.54463800  1
  C  1693  1  0.92832700  0.38129800  0.80660000  1
  C  1695  1  0.95775900  0.35223700  0.81984200  1
  C  1696  1  0.91934400  0.33904500  0.81674300  1
  C  1698  1  0.88958300  0.36792000  0.80354000  1
  C  1700  1  0.85532200  0.37450900  0.79510800  1
  C  1708  1  0.93005300  0.37035600  0.94541200  1
  C  1710  1  0.95918400  0.39940700  0.93210800  1
  C  1711  1  0.92049200  0.41247600  0.93511300  1
  C  1713  1  0.89103200  0.38361700  0.94838500  1
  C  1715  1  0.85672300  0.37698900  0.95679600  1
  C  1723  1  0.07364800  0.62038400  0.19525600  1
  C  1725  1  0.04449200  0.64945400  0.18197700  1
  C  1726  1  0.08286500  0.66263700  0.18513100  1
  C  1728  1  0.11235400  0.63374900  0.19837100  1
  C  1730  1  0.14642300  0.62715500  0.20686200  1
  C  1738  1  0.07070400  0.63165600  0.05645200  1
  C  1740  1  0.04194500  0.60268700  0.06987000  1
  C  1741  1  0.08004700  0.58942000  0.06658600  1
  C  1743  1  0.10913300  0.61820900  0.05320600  1
  C  1745  1  0.14284600  0.62472700  0.04457500  1
  C  1753  1  0.92858600  0.88359600  0.30416700  1
  C  1755  1  0.95198900  0.85502600  0.31860300  1
  C  1756  1  0.91723000  0.84113900  0.31371700  1
  C  1758  1  0.89353300  0.86956900  0.29926600  1
  C  1760  1  0.86491400  0.87566200  0.28919900  1
  C  1768  1  0.92554900  0.86836400  0.44757400  1
  C  1770  1  0.94931600  0.89705600  0.43326800  1
  C  1771  1  0.91453200  0.91092800  0.43815600  1
  C  1773  1  0.89049300  0.88238300  0.45248200  1
  C  1775  1  0.86166200  0.87621700  0.46248800  1
  C  1783  1  0.07046400  0.11935400  0.69625800  1
  C  1785  1  0.04399700  0.14668600  0.68138300  1
  C  1786  1  0.07930100  0.16106300  0.68539700  1
  C  1788  1  0.10600800  0.13395400  0.70028600  1
  C  1790  1  0.13776300  0.12939800  0.70986000  1
  C  1798  1  0.07522100  0.13371200  0.55421100  1
  C  1800  1  0.05209200  0.10516900  0.56869200  1
  C  1801  1  0.08629100  0.09115900  0.56362200  1
  C  1803  1  0.10968300  0.11956400  0.54911800  1
  C  1805  1  0.13775800  0.12561400  0.53893300  1
  C  1813  1  0.42647500  0.88342300  0.80414000  1
  C  1815  1  0.44959400  0.85488100  0.81862100  1
  C  1816  1  0.41516400  0.84092900  0.81361800  1
  C  1818  1  0.39178800  0.86933300  0.79910800  1
  C  1820  1  0.36356000  0.87541000  0.78896000  1
  C  1828  1  0.42557900  0.86840500  0.94753000  1
  C  1830  1  0.44901000  0.89714900  0.93322000  1
  C  1831  1  0.41425800  0.91098000  0.93816600  1
  C  1833  1  0.39058800  0.88238700  0.95251000  1
  C  1835  1  0.36198300  0.87617000  0.96254600  1
  C  1843  1  0.57525800  0.11835500  0.19748700  1
  C  1845  1  0.55233200  0.14690400  0.18298700  1
  C  1846  1  0.58661700  0.16087300  0.18805300  1
  C  1848  1  0.60979200  0.13246200  0.20258200  1
  C  1850  1  0.63778200  0.12639900  0.21278300  1
  C  1858  1  0.57519200  0.13365900  0.05423900  1
  C  1860  1  0.55181300  0.10514800  0.06871100  1
  C  1861  1  0.58596000  0.09109100  0.06365900  1
  C  1863  1  0.60961900  0.11946600  0.04917100  1
  C  1865  1  0.63777500  0.12546100  0.03898600  1
  C  1873  1  0.95390600  0.25368800  0.24631600  1
  C  1875  1  0.01545100  0.22835200  0.25090300  1
  C  1876  1  0.04281700  0.24510500  0.25643200  1
  C  1878  1  0.98139700  0.27064600  0.25180600  1
  C  1880  1  0.96654500  0.29217900  0.25271300  1
  C  1888  1  0.95334500  0.49761400  0.50523400  1
  C  1890  1  0.01506300  0.52303600  0.50105100  1
  C  1891  1  0.04246300  0.50645500  0.49535500  1
  C  1893  1  0.98086100  0.48081600  0.49959600  1
  C  1895  1  0.96587400  0.45934700  0.49838400  1
  C  1903  1  0.79877200  0.49899300  0.24645400  1
  C  1905  1  0.73365400  0.52248900  0.25072800  1
  C  1906  1  0.70812000  0.50499300  0.25614800  1
  C  1908  1  0.77315100  0.48128700  0.25184200  1
  C  1910  1  0.79063600  0.46023800  0.25292200  1
  C  1918  1  0.79943900  0.25380300  0.50519200  1
  C  1920  1  0.73489900  0.23002000  0.50083700  1
  C  1921  1  0.70889400  0.24747000  0.49554500  1
  C  1923  1  0.77328600  0.27147500  0.49997300  1
  C  1925  1  0.79025200  0.29262700  0.49901100  1
  C  1933  1  0.04708800  0.74770900  0.75555600  1
  C  1935  1  0.98487700  0.77269300  0.75092400  1
  C  1936  1  0.95808100  0.75580900  0.74531700  1
  C  1938  1  0.02018200  0.73062700  0.74996800  1
  C  1940  1  0.03555800  0.70919900  0.74902300  1
  C  1948  1  0.20287600  0.50315600  0.75518400  1
  C  1950  1  0.26753200  0.47946000  0.75081800  1
  C  1951  1  0.29350400  0.49695000  0.74554800  1
  C  1953  1  0.22897200  0.52087900  0.75000300  1
  C  1955  1  0.21193200  0.54201800  0.74906000  1
  C  1963  1  0.20267200  0.74839900  0.49643900  1
  C  1965  1  0.26734500  0.77215900  0.50070200  1
  C  1966  1  0.29339500  0.75470200  0.50596700  1
  C  1968  1  0.22879500  0.73073800  0.50168700  1
  C  1970  1  0.21180400  0.70959400  0.50269200  1
  C  1978  1  0.45263100  0.25284900  0.74651900  1
  C  1980  1  0.51456000  0.22768700  0.75104900  1
  C  1981  1  0.54194100  0.24455000  0.75645900  1
  C  1983  1  0.48012600  0.26991200  0.75189400  1
  C  1985  1  0.46509000  0.29141900  0.75276400  1
  C  1993  1  0.45301500  0.49787900  0.00512900  1
  C  1995  1  0.51517200  0.52311600  0.00109200  1
  C  1996  1  0.54259200  0.50643200  0.99550700  1
  C  1998  1  0.48053500  0.48098100  0.99960200  1
  C  2000  1  0.46527400  0.45956200  0.99837100  1
  C  2008  1  0.29907600  0.25391000  0.00521800  1
  C  2010  1  0.23498500  0.22995900  0.00069700  1
  C  2011  1  0.20890000  0.24735900  0.99538200  1
  C  2013  1  0.27285300  0.27153400  0.99997700  1
  C  2015  1  0.28959800  0.29275700  0.99908300  1
  C  2023  1  0.54837100  0.74843000  0.25546800  1
  C  2025  1  0.48668100  0.77372700  0.25094700  1
  C  2026  1  0.45926500  0.75695300  0.24545900  1
  C  2028  1  0.52085200  0.73145700  0.25000600  1
  C  2030  1  0.53578100  0.70995600  0.24907900  1
  C  2038  1  0.70312800  0.74815600  0.99628500  1
  C  2040  1  0.76693900  0.77224300  0.00094600  1
  C  2041  1  0.79295400  0.75492500  0.00638200  1
  C  2043  1  0.72923000  0.73063200  0.00169700  1
  C  2045  1  0.71271700  0.70938600  0.00260300  1
  C  2053  1  0.45420900  0.99746600  0.50599500  1
  C  2055  1  0.51516200  0.02281700  0.50074100  1
  C  2056  1  0.54155000  0.00611500  0.49481200  1
  C  2058  1  0.48077300  0.98055100  0.50010800  1
  C  2060  1  0.46591400  0.95902500  0.49927500  1
  C  2068  1  0.29862700  0.99862200  0.24651000  1
  C  2070  1  0.23455200  0.02261700  0.25101700  1
  C  2071  1  0.20841700  0.00523800  0.25634000  1
  C  2073  1  0.27241300  0.98102900  0.25179300  1
  C  2075  1  0.28905200  0.95980800  0.25271300  1
  C  2083  1  0.70288600  0.00336800  0.75510700  1
  C  2085  1  0.76719200  0.97950700  0.75064800  1
  C  2086  1  0.79376700  0.99708700  0.74574000  1
  C  2088  1  0.72959600  0.02115700  0.75026600  1
  C  2090  1  0.71302100  0.04240900  0.74957700  1
  C  2098  1  0.95453200  0.99748900  0.00585900  1
  C  2100  1  0.01552500  0.02277200  0.00054400  1
  C  2101  1  0.04174800  0.00603500  0.99458400  1
  C  2103  1  0.98090300  0.98054600  0.99994800  1
  C  2105  1  0.96587000  0.95902500  0.99912100  1
  C  2113  1  0.17787300  0.14327300  0.31382800  1
  C  2115  1  0.10407800  0.12812700  0.31956500  1
  C  2116  1  0.11819700  0.10702500  0.31562100  1
  C  2118  1  0.19338400  0.12192200  0.31043500  1
  C  2120  1  0.23648300  0.11768200  0.30526000  1
  C  2128  1  0.17693400  0.60886400  0.43835900  1
  C  2130  1  0.10293200  0.62396400  0.43278100  1
  C  2131  1  0.11696200  0.64504200  0.43679200  1
  C  2133  1  0.19232100  0.63020000  0.44183100  1
  C  2135  1  0.23550900  0.63445600  0.44694500  1
  C  2143  1  0.60218200  0.60785800  0.31405300  1
  C  2145  1  0.67906100  0.62277500  0.31515700  1
  C  2146  1  0.66215000  0.64422900  0.31317300  1
  C  2148  1  0.58459000  0.62947400  0.31248400  1
  C  2150  1  0.53857200  0.63434900  0.31034700  1
  C  2158  1  0.60139400  0.14425400  0.43711900  1
  C  2160  1  0.67806500  0.12917300  0.43573800  1
  C  2161  1  0.66098500  0.10773000  0.43764600  1
  C  2163  1  0.58361800  0.12266000  0.43863000  1
  C  2165  1  0.53764900  0.11783500  0.44085000  1
  C  2173  1  0.82690300  0.85831900  0.68883600  1
  C  2175  1  0.90123300  0.87347300  0.68363400  1
  C  2176  1  0.88676400  0.89459300  0.68745000  1
  C  2178  1  0.81120700  0.87967100  0.69218100  1
  C  2180  1  0.76771700  0.88400300  0.69704700  1
  C  2188  1  0.82390800  0.39325500  0.56283900  1
  C  2190  1  0.89797400  0.37840900  0.56858200  1
  C  2191  1  0.88418700  0.35723900  0.56467000  1
  C  2193  1  0.80876100  0.37183700  0.55946400  1
  C  2195  1  0.76571100  0.36734700  0.55435100  1
  C  2203  1  0.40076100  0.39345800  0.68887300  1
  C  2205  1  0.32374700  0.37870100  0.68763000  1
  C  2206  1  0.34042900  0.35717200  0.68947700  1
  C  2208  1  0.41811400  0.37176600  0.69031700  1
  C  2210  1  0.46404200  0.36671400  0.69242500  1
  C  2218  1  0.39977800  0.85800200  0.56443100  1
  C  2220  1  0.32297900  0.87296100  0.56571400  1
  C  2221  1  0.33990600  0.89440600  0.56372100  1
  C  2223  1  0.41741600  0.87961300  0.56288200  1
  C  2225  1  0.46341600  0.88444400  0.56064900  1
  C  2233  1  0.67744200  0.14286500  0.81351000  1
  C  2235  1  0.60360700  0.12766900  0.81915900  1
  C  2236  1  0.61766500  0.10663100  0.81508200  1
  C  2238  1  0.69290000  0.12156500  0.80999300  1
  C  2240  1  0.73598500  0.11738800  0.80479400  1
  C  2248  1  0.67694400  0.60887200  0.93840300  1
  C  2250  1  0.60297400  0.62393600  0.93276300  1
  C  2251  1  0.61699400  0.64504000  0.93673100  1
  C  2253  1  0.69232600  0.63022900  0.94182900  1
  C  2255  1  0.73549000  0.63451500  0.94694900  1
  C  2263  1  0.10077400  0.60758500  0.81372600  1
  C  2265  1  0.17768000  0.62244500  0.81492500  1
  C  2266  1  0.16083100  0.64392900  0.81302200  1
  C  2268  1  0.08323900  0.62922800  0.81223600  1
  C  2270  1  0.03724500  0.63415200  0.81009600  1
  C  2278  1  0.10103000  0.14418100  0.93708500  1
  C  2280  1  0.17775100  0.12917200  0.93564200  1
  C  2281  1  0.16078000  0.10771400  0.93756600  1
  C  2283  1  0.08336300  0.12256900  0.93861100  1
  C  2285  1  0.03744000  0.11769800  0.94087100  1
  C  2293  1  0.32413000  0.85887200  0.18825800  1
  C  2295  1  0.39792400  0.87406700  0.18256900  1
  C  2296  1  0.38386400  0.89511700  0.18662500  1
  C  2298  1  0.30870700  0.88017000  0.19179300  1
  C  2300  1  0.26567200  0.88441500  0.19698600  1
  C  2308  1  0.32406000  0.39326300  0.06266800  1
  C  2310  1  0.39816000  0.37846300  0.06841600  1
  C  2311  1  0.38439300  0.35727300  0.06453500  1
  C  2313  1  0.30893400  0.37182700  0.05932300  1
  C  2315  1  0.26587400  0.36730600  0.05422600  1
  C  2323  1  0.90007100  0.39425400  0.18817100  1
  C  2325  1  0.82311900  0.37944500  0.18697600  1
  C  2326  1  0.83992300  0.35794100  0.18883900  1
  C  2328  1  0.91756200  0.37259200  0.18960100  1
  C  2330  1  0.96351500  0.36758700  0.19171100  1
  C  2338  1  0.90019900  0.85806700  0.06448200  1
  C  2340  1  0.82338600  0.87303400  0.06567600  1
  C  2341  1  0.84032100  0.89446700  0.06363800  1
  C  2343  1  0.91783600  0.87966900  0.06288200  1
  C  2345  1  0.96385400  0.88448900  0.06066200  1
  C  2353  1  0.40217900  0.27330700  0.38669800  1
  C  2355  1  0.34204300  0.25012300  0.37819600  1
  C  2356  1  0.32611300  0.26718400  0.37021700  1
  C  2358  1  0.38574900  0.29058900  0.37866700  1
  C  2360  1  0.40418200  0.31162700  0.37875900  1
  C  2368  1  0.40238700  0.47882000  0.36510200  1
  C  2370  1  0.34220400  0.50199600  0.37358500  1
  C  2371  1  0.32624700  0.48492800  0.38155700  1
  C  2373  1  0.38591500  0.46153000  0.37311900  1
  C  2375  1  0.40437200  0.44049400  0.37303100  1
  C  2383  1  0.59801800  0.72871100  0.61518500  1
  C  2385  1  0.65843900  0.75178000  0.62363600  1
  C  2386  1  0.67418000  0.73471400  0.63164100  1
  C  2388  1  0.61423700  0.71142600  0.62324500  1
  C  2390  1  0.59551000  0.69045500  0.62317700  1
  C  2398  1  0.60036300  0.52259900  0.63685500  1
  C  2400  1  0.66062800  0.49946100  0.62838200  1
  C  2401  1  0.67641100  0.51650300  0.62036500  1
  C  2403  1  0.61669600  0.53987800  0.62880700  1
  C  2405  1  0.59809400  0.56086900  0.62886100  1
  C  2413  1  0.90157500  0.27318400  0.88662100  1
  C  2415  1  0.84153800  0.24994600  0.87811600  1
  C  2416  1  0.82558600  0.26698200  0.87011900  1
  C  2418  1  0.88510000  0.29044600  0.87858300  1
  C  2420  1  0.90350500  0.31147600  0.87865600  1
  C  2428  1  0.90222900  0.47902000  0.86522900  1
  C  2430  1  0.84196000  0.50212000  0.87373700  1
  C  2431  1  0.82607000  0.48501800  0.88169300  1
  C  2433  1  0.88583700  0.46169400  0.87323200  1
  C  2435  1  0.90438400  0.44069500  0.87312500  1
  C  2443  1  0.09994600  0.72879100  0.11522300  1
  C  2445  1  0.16014100  0.75196100  0.12370300  1
  C  2446  1  0.17618200  0.73486800  0.13164300  1
  C  2448  1  0.11649300  0.71147600  0.12320800  1
  C  2450  1  0.09807200  0.69045000  0.12310600  1
  C  2458  1  0.10053500  0.52247500  0.13674700  1
  C  2460  1  0.16096700  0.49937600  0.12832600  1
  C  2461  1  0.17666900  0.51640000  0.12028200  1
  C  2463  1  0.11677400  0.53972800  0.12866700  1
  C  2465  1  0.09810000  0.56071900  0.12869400  1
  C  2473  1  0.90320100  0.77247400  0.38648700  1
  C  2475  1  0.84400400  0.74912400  0.37763500  1
  C  2476  1  0.82708700  0.76644700  0.37001400  1
  C  2478  1  0.88575400  0.79001700  0.37882700  1
  C  2480  1  0.90314200  0.81123800  0.37930700  1
  C  2488  1  0.90431100  0.97883900  0.36531700  1
  C  2490  1  0.84557100  0.00233400  0.37425700  1
  C  2491  1  0.82798600  0.98491700  0.38168200  1
  C  2493  1  0.88621700  0.96121100  0.37278700  1
  C  2495  1  0.90309400  0.93990600  0.37216200  1
  C  2503  1  0.09755400  0.22938100  0.61549400  1
  C  2505  1  0.15699200  0.25258700  0.62435700  1
  C  2506  1  0.17363400  0.23524300  0.63200700  1
  C  2508  1  0.11471800  0.21181400  0.62318500  1
  C  2510  1  0.09702400  0.19065700  0.62270100  1
  C  2518  1  0.09671500  0.02271500  0.63661200  1
  C  2520  1  0.15555000  0.99924600  0.62769700  1
  C  2521  1  0.17283200  0.01660800  0.62017400  1
  C  2523  1  0.11451200  0.04029500  0.62904800  1
  C  2525  1  0.09742100  0.06155200  0.62960800  1
  C  2533  1  0.40294300  0.77232800  0.88637400  1
  C  2535  1  0.34418300  0.74881900  0.87745000  1
  C  2536  1  0.32697700  0.76614000  0.86987800  1
  C  2538  1  0.38519200  0.78987200  0.87877100  1
  C  2540  1  0.40225900  0.81113600  0.87930400  1
  C  2548  1  0.40531300  0.97906900  0.86522100  1
  C  2550  1  0.34659700  0.00252400  0.87421300  1
  C  2551  1  0.32903100  0.98507200  0.88161200  1
  C  2553  1  0.38726400  0.96140800  0.87267600  1
  C  2555  1  0.40415100  0.94012600  0.87201400  1
  C  2563  1  0.59807000  0.22960400  0.11540400  1
  C  2565  1  0.65738000  0.25290800  0.12424200  1
  C  2566  1  0.67429500  0.23556800  0.13184900  1
  C  2568  1  0.61551000  0.21204200  0.12304900  1
  C  2570  1  0.59806300  0.19084600  0.12256700  1
  C  2578  1  0.59732600  0.02244300  0.13646500  1
  C  2580  1  0.65595200  0.99893400  0.12747900  1
  C  2581  1  0.67349200  0.01635000  0.12004600  1
  C  2583  1  0.61536400  0.04007000  0.12898300  1
  C  2585  1  0.59855400  0.06138300  0.12963600  1
  N  1634  1  0.46272100  0.37290200  0.31450400  1
  N  1637  1  0.38885900  0.34778600  0.30864500  1
  N  1644  1  0.41497700  0.31899700  0.32133900  1
  N  1646  1  0.43421200  0.40284400  0.30221500  1
  N  1649  1  0.46221600  0.37898500  0.43729200  1
  N  1652  1  0.38838500  0.40407800  0.44321600  1
  N  1659  1  0.41416800  0.43281900  0.43043100  1
  N  1661  1  0.43402900  0.34908600  0.44967300  1
  N  1664  1  0.53683900  0.62824800  0.68580000  1
  N  1667  1  0.60788600  0.65504000  0.69175500  1
  N  1674  1  0.58169500  0.68228900  0.67794400  1
  N  1676  1  0.56580500  0.59973700  0.69906800  1
  N  1679  1  0.53881400  0.62319400  0.56459400  1
  N  1682  1  0.61209200  0.59792000  0.55837500  1
  N  1689  1  0.58662400  0.56923200  0.57124700  1
  N  1691  1  0.56684900  0.65303400  0.55214700  1
  N  1694  1  0.96048100  0.37268400  0.81474100  1
  N  1697  1  0.88703700  0.34742000  0.80867200  1
  N  1704  1  0.91308300  0.31863800  0.82138300  1
  N  1706  1  0.93193800  0.40261300  0.80245500  1
  N  1709  1  0.96216900  0.37902300  0.93728100  1
  N  1712  1  0.88821300  0.40405400  0.94317500  1
  N  1719  1  0.91394100  0.43281100  0.93039500  1
  N  1721  1  0.93398900  0.34909200  0.94963600  1
  N  1724  1  0.04165500  0.62900800  0.18707100  1
  N  1727  1  0.11501400  0.65425100  0.19324600  1
  N  1734  1  0.08923500  0.68304400  0.18050100  1
  N  1736  1  0.06993000  0.59907200  0.19939800  1
  N  1739  1  0.03903100  0.62312500  0.06476400  1
  N  1742  1  0.11186800  0.59771500  0.05833900  1
  N  1749  1  0.08646800  0.56901700  0.07121500  1
  N  1751  1  0.06698900  0.65295200  0.05229300  1
  N  1754  1  0.95598400  0.87559000  0.31373300  1
  N  1757  1  0.88972100  0.84897500  0.30421100  1
  N  1764  1  0.90997400  0.82057300  0.31799000  1
  N  1766  1  0.93224200  0.90508600  0.30045200  1
  N  1769  1  0.95315200  0.87644000  0.43807300  1
  N  1772  1  0.88683300  0.90302700  0.44760200  1
  N  1779  1  0.90743800  0.93154100  0.43394100  1
  N  1781  1  0.92911500  0.84684500  0.45124000  1
  N  1784  1  0.04131400  0.12653000  0.68686300  1
  N  1787  1  0.10863300  0.15408400  0.69470700  1
  N  1794  1  0.08543300  0.18126600  0.68044700  1
  N  1796  1  0.06772400  0.09814000  0.70058500  1
  N  1799  1  0.04823200  0.12578500  0.56388900  1
  N  1802  1  0.11338700  0.09892800  0.55400600  1
  N  1809  1  0.09340000  0.07053900  0.56782500  1
  N  1811  1  0.07187900  0.15524600  0.55058500  1
  N  1814  1  0.45357200  0.87547000  0.81378600  1
  N  1817  1  0.38796600  0.84872400  0.80403000  1
  N  1824  1  0.40792800  0.82034100  0.81785900  1
  N  1826  1  0.42999200  0.90493300  0.80047600  1
  N  1829  1  0.45297700  0.87651900  0.93799500  1
  N  1832  1  0.38676900  0.90303700  0.94764600  1
  N  1839  1  0.40700100  0.93159600  0.93397400  1
  N  1841  1  0.42922500  0.84686900  0.95115200  1
  N  1844  1  0.54833300  0.12630300  0.18780200  1
  N  1847  1  0.61363500  0.15308300  0.19768100  1
  N  1854  1  0.59387100  0.18147300  0.18383700  1
  N  1856  1  0.57173000  0.09683900  0.20113400  1
  N  1859  1  0.54809800  0.12576700  0.06390300  1
  N  1862  1  0.61316100  0.09882000  0.05405500  1
  N  1869  1  0.59291600  0.07046200  0.06786600  1
  N  1871  1  0.57194800  0.15518700  0.05058900  1
  N  1874  1  0.97275300  0.23318100  0.24627200  1
  N  1877  1  0.02410400  0.26561000  0.25649200  1
  N  1884  1  0.08706800  0.24080800  0.26061500  1
  N  1886  1  0.90882900  0.25713500  0.24241000  1
  N  1889  1  0.97222800  0.51810300  0.50555100  1
  N  1892  1  0.02367300  0.48597300  0.49503200  1
  N  1899  1  0.08674600  0.51091000  0.49124500  1
  N  1901  1  0.90809500  0.49410300  0.50891100  1
  N  1904  1  0.77710500  0.51887300  0.24626600  1
  N  1907  1  0.72963100  0.48511600  0.25634100  1
  N  1914  1  0.66323300  0.50804100  0.26028700  1
  N  1916  1  0.84420900  0.49672000  0.24245800  1
  N  1919  1  0.77838800  0.23377900  0.50523900  1
  N  1922  1  0.72982800  0.26748800  0.49548200  1
  N  1929  1  0.66426400  0.24418200  0.49132000  1
  N  1931  1  0.84521200  0.25611400  0.50881000  1
  N  1934  1  0.02755600  0.76808200  0.75563900  1
  N  1937  1  0.97742300  0.73543800  0.74523500  1
  N  1944  1  0.91367800  0.75982000  0.74112300  1
  N  1946  1  0.09191300  0.74437400  0.75979000  1
  N  1949  1  0.22401200  0.48315500  0.75522100  1
  N  1952  1  0.27243700  0.51694000  0.74550300  1
  N  1959  1  0.33810500  0.49367200  0.74121000  1
  N  1961  1  0.15712800  0.50538500  0.75881400  1
  N  1964  1  0.22383400  0.76839900  0.49632800  1
  N  1967  1  0.27238700  0.73470600  0.50608900  1
  N  1974  1  0.33842200  0.75784900  0.50990500  1
  N  1976  1  0.15713400  0.74599100  0.49262700  1
  N  1979  1  0.47166900  0.23237900  0.74650700  1
  N  1982  1  0.52303100  0.26501400  0.75649300  1
  N  1989  1  0.58642300  0.24039900  0.76053500  1
  N  1991  1  0.40735400  0.25619800  0.74273800  1
  N  1994  1  0.47207100  0.51833000  0.00545000  1
  N  1997  1  0.52359800  0.48599500  0.99517000  1
  N  2004  1  0.58712200  0.51074100  0.99156600  1
  N  2006  1  0.40744000  0.49456000  0.00851100  1
  N  2009  1  0.27830100  0.23382500  0.00519900  1
  N  2012  1  0.22959100  0.26743400  0.99538200  1
  N  2019  1  0.16454600  0.24394400  0.99096000  1
  N  2021  1  0.34466000  0.25631900  0.00892200  1
  N  2024  1  0.52945800  0.76892600  0.25552900  1
  N  2027  1  0.47804400  0.73646200  0.24537600  1
  N  2034  1  0.41481500  0.76118900  0.24139800  1
  N  2036  1  0.59350700  0.74496700  0.25935000  1
  N  2039  1  0.72393000  0.76824600  0.99627600  1
  N  2042  1  0.77231100  0.73483900  0.00640000  1
  N  2049  1  0.83739100  0.75837400  0.01077900  1
  N  2051  1  0.65813400  0.74549500  0.99198900  1
  N  2054  1  0.47334700  0.01792800  0.50593100  1
  N  2057  1  0.52263000  0.98565100  0.49488900  1
  N  2064  1  0.58479100  0.01050000  0.48988200  1
  N  2066  1  0.41034200  0.99383700  0.51089900  1
  N  2069  1  0.27779900  0.01870300  0.24649400  1
  N  2072  1  0.22911900  0.98516300  0.25635800  1
  N  2079  1  0.16376500  0.00865700  0.26056500  1
  N  2081  1  0.34391900  0.99605000  0.24251800  1
  N  2084  1  0.72353600  0.98325000  0.75492000  1
  N  2087  1  0.77325200  0.01719800  0.74591900  1
  N  2094  1  0.83875400  0.99389300  0.74182500  1
  N  2096  1  0.65695100  0.00574600  0.75852400  1
  N  2099  1  0.97375300  0.01793400  0.00576900  1
  N  2102  1  0.02269500  0.98559800  0.99467000  1
  N  2109  1  0.08481000  0.01038400  0.98951800  1
  N  2111  1  0.91072100  0.99389900  0.01077200  1
  N  2114  1  0.13390900  0.14510800  0.31839400  1
  N  2117  1  0.16237100  0.10518100  0.31123400  1
  N  2124  1  0.08711400  0.09006500  0.31488000  1
  N  2126  1  0.20453500  0.16174500  0.31234600  1
  N  2129  1  0.13291000  0.60701900  0.43383900  1
  N  2132  1  0.16119400  0.64690800  0.44113000  1
  N  2139  1  0.08578400  0.66195400  0.43760200  1
  N  2141  1  0.20376600  0.59041500  0.43971800  1
  N  2144  1  0.64886800  0.60575500  0.31537600  1
  N  2147  1  0.61554100  0.64618600  0.31194200  1
  N  2154  1  0.69127500  0.66191300  0.31178400  1
  N  2156  1  0.57405100  0.58969600  0.31367700  1
  N  2159  1  0.64805500  0.14627100  0.43568800  1
  N  2162  1  0.61440300  0.10586600  0.43899900  1
  N  2169  1  0.68996000  0.08996900  0.43892300  1
  N  2171  1  0.57347300  0.16246900  0.43763700  1
  N  2174  1  0.87127500  0.85649300  0.68458200  1
  N  2177  1  0.84224700  0.89642000  0.69155800  1
  N  2184  1  0.91769000  0.91161700  0.68829300  1
  N  2186  1  0.79989600  0.83988000  0.69000900  1
  N  2189  1  0.86785700  0.39527400  0.56739100  1
  N  2192  1  0.84002700  0.35521000  0.56030100  1
  N  2199  1  0.91553200  0.34037600  0.56400200  1
  N  2201  1  0.79688300  0.41161800  0.56142300  1
  N  2204  1  0.35409600  0.39566300  0.68754200  1
  N  2207  1  0.38701100  0.35509500  0.69072800  1
  N  2214  1  0.31107600  0.33952900  0.69070900  1
  N  2216  1  0.42906900  0.41157300  0.68930300  1
  N  2219  1  0.35312100  0.85591700  0.56583500  1
  N  2222  1  0.38648900  0.89634500  0.56240500  1
  N  2229  1  0.31079100  0.91209700  0.56236600  1
  N  2231  1  0.42783700  0.83982900  0.56395200  1
  N  2234  1  0.63348600  0.14465000  0.81808900  1
  N  2237  1  0.66183500  0.10483200  0.81068900  1
  N  2244  1  0.58654100  0.08970300  0.81425000  1
  N  2246  1  0.70411800  0.16135000  0.81211800  1
  N  2249  1  0.63294300  0.60699700  0.93387200  1
  N  2252  1  0.66120600  0.64693300  0.94108100  1
  N  2259  1  0.58580800  0.66195400  0.93750400  1
  N  2261  1  0.70376800  0.59043200  0.93981100  1
  N  2264  1  0.14744600  0.60543800  0.81506300  1
  N  2267  1  0.11423700  0.64592800  0.81177400  1
  N  2274  1  0.19000200  0.66160800  0.81169800  1
  N  2276  1  0.07259900  0.58945000  0.81328000  1
  N  2279  1  0.14766800  0.14624000  0.93561600  1
  N  2282  1  0.11422100  0.10580600  0.93895800  1
  N  2289  1  0.18984800  0.08998400  0.93883000  1
  N  2291  1  0.07304100  0.16237200  0.93762900  1
  N  2294  1  0.36806300  0.85708300  0.18366400  1
  N  2297  1  0.33973200  0.89691100  0.19105000  1
  N  2304  1  0.41500500  0.91203900  0.18744300  1
  N  2306  1  0.29744200  0.84038700  0.18962200  1
  N  2309  1  0.36801500  0.39531100  0.06721000  1
  N  2312  1  0.34022700  0.35521300  0.06017700  1
  N  2319  1  0.41575900  0.34041500  0.06388700  1
  N  2321  1  0.29699700  0.41161100  0.06124100  1
  N  2324  1  0.85339200  0.39643600  0.18686600  1
  N  2327  1  0.88652200  0.35590900  0.19005000  1
  N  2334  1  0.81071200  0.34027100  0.19014000  1
  N  2336  1  0.92829900  0.41237100  0.18862100  1
  N  2339  1  0.85353000  0.85599400  0.06586000  1
  N  2342  1  0.88691300  0.89639600  0.06234500  1
  N  2349  1  0.81121700  0.91215200  0.06223400  1
  N  2351  1  0.92827500  0.83989500  0.06406200  1
  N  2354  1  0.37912200  0.25381500  0.38591800  1
  N  2357  1  0.34827500  0.28677400  0.37104100  1
  N  2364  1  0.28510000  0.26523600  0.36285300  1
  N  2366  1  0.44082900  0.27536700  0.39444600  1
  N  2369  1  0.37931500  0.49831000  0.36587600  1
  N  2372  1  0.34841700  0.46533800  0.38073600  1
  N  2379  1  0.28520900  0.48687800  0.38890700  1
  N  2381  1  0.44104400  0.47676800  0.35735900  1
  N  2384  1  0.62131000  0.74814300  0.61592700  1
  N  2387  1  0.65178400  0.71518000  0.63085700  1
  N  2394  1  0.71524900  0.73658700  0.63898100  1
  N  2396  1  0.55939500  0.72671500  0.60742000  1
  N  2399  1  0.62353100  0.50313300  0.63609900  1
  N  2402  1  0.65412900  0.53606600  0.62116400  1
  N  2409  1  0.71725500  0.51454500  0.61292400  1
  N  2411  1  0.56161600  0.52460200  0.64457000  1
  N  2414  1  0.87858000  0.25367300  0.88584500  1
  N  2417  1  0.84768500  0.28658800  0.87094400  1
  N  2424  1  0.78457600  0.26498200  0.86275900  1
  N  2426  1  0.94022600  0.27526500  0.89436700  1
  N  2429  1  0.87907800  0.49848600  0.86602000  1
  N  2432  1  0.84833500  0.46545500  0.88085900  1
  N  2439  1  0.78503300  0.48693700  0.88905200  1
  N  2441  1  0.94087900  0.47702700  0.85747300  1
  N  2444  1  0.12298000  0.74829100  0.11601100  1
  N  2447  1  0.15403600  0.71527600  0.13081000  1
  N  2454  1  0.21721400  0.73682000  0.13899500  1
  N  2456  1  0.06118800  0.72677700  0.10751700  1
  N  2459  1  0.12383700  0.50304000  0.13603300  1
  N  2462  1  0.15426200  0.53593300  0.12104200  1
  N  2469  1  0.21752200  0.51445900  0.11284200  1
  N  2471  1  0.06183700  0.52450000  0.14448000  1
  N  2474  1  0.88106700  0.75278800  0.38536500  1
  N  2477  1  0.84832100  0.78621700  0.37118400  1
  N  2484  1  0.78614700  0.76445600  0.36262300  1
  N  2486  1  0.94184800  0.77453100  0.39423500  1
  N  2489  1  0.88271000  0.99863300  0.36656500  1
  N  2492  1  0.84868800  0.96504400  0.38038500  1
  N  2499  1  0.78684900  0.98697600  0.38896600  1
  N  2501  1  0.94304800  0.97675300  0.35762000  1
  N  2504  1  0.11994300  0.24900300  0.61660800  1
  N  2507  1  0.15215300  0.21553000  0.63084500  1
  N  2514  1  0.21457600  0.23713100  0.63941100  1
  N  2516  1  0.05895000  0.22741300  0.60771500  1
  N  2519  1  0.11849200  0.00295400  0.63541800  1
  N  2522  1  0.15194500  0.03644900  0.62141500  1
  N  2529  1  0.21386700  0.01455900  0.61284200  1
  N  2531  1  0.05803700  0.02478900  0.64433400  1
  N  2534  1  0.38117300  0.75256300  0.88519400  1
  N  2537  1  0.34784900  0.78598500  0.87111100  1
  N  2544  1  0.28602800  0.76404500  0.86250800  1
  N  2546  1  0.44158000  0.77444900  0.89411400  1
  N  2549  1  0.38370100  0.99885300  0.86650200  1
  N  2552  1  0.34975200  0.96520800  0.88028800  1
  N  2559  1  0.28786200  0.98711200  0.88888600  1
  N  2561  1  0.44398000  0.97701800  0.85749000  1
  N  2564  1  0.62026900  0.24927400  0.11652400  1
  N  2567  1  0.65299100  0.21581300  0.13068100  1
  N  2574  1  0.71529000  0.23753100  0.13922000  1
  N  2576  1  0.55937400  0.22759400  0.10766700  1
  N  2579  1  0.61888200  0.00264200  0.13519700  1
  N  2582  1  0.65282500  0.03622900  0.12135900  1
  N  2589  1  0.71451200  0.01428400  0.11271100  1
  N  2591  1  0.55864100  0.02453300  0.14418000  1
  O  48  1  0.32524100  0.27295100  0.34388500  1
  O  49  1  0.15723600  0.25786200  0.25958200  1
  O  50  1  0.14199400  0.18506300  0.30749300  1
  O  51  1  0.21514400  0.35963100  0.30211700  1
  O  99  1  0.32528500  0.47917700  0.40788700  1
  O  100  1  0.15703100  0.49378300  0.49207700  1
  O  101  1  0.14146700  0.56687300  0.44443300  1
  O  102  1  0.21544000  0.39243200  0.44948500  1
  O  150  1  0.42196800  0.50406500  0.34231100  1
  O  151  1  0.59613600  0.48904600  0.25768600  1
  O  152  1  0.63151100  0.56385900  0.30786800  1
  O  153  1  0.51550500  0.40519000  0.30277500  1
  O  201  1  0.42185700  0.24801700  0.40947500  1
  O  202  1  0.59639200  0.26296900  0.49401100  1
  O  203  1  0.63126200  0.18798700  0.44369800  1
  O  204  1  0.51531800  0.34681200  0.44902500  1
  O  252  1  0.67502800  0.72917400  0.65798000  1
  O  253  1  0.84410500  0.74212000  0.74215800  1
  O  254  1  0.86166600  0.81593600  0.69459800  1
  O  255  1  0.78003800  0.64172400  0.69901300  1
  O  303  1  0.67627700  0.52185600  0.59404600  1
  O  304  1  0.83923800  0.51251700  0.50908400  1
  O  305  1  0.85888800  0.43515800  0.55641200  1
  O  306  1  0.78323100  0.60958800  0.55271500  1
  O  354  1  0.58084100  0.49743100  0.65968400  1
  O  355  1  0.40512600  0.51275900  0.74422100  1
  O  356  1  0.37163000  0.43771200  0.69461700  1
  O  357  1  0.48475800  0.59652500  0.69830800  1
  O  405  1  0.57880700  0.75398200  0.59238300  1
  O  406  1  0.40632300  0.73936600  0.50760800  1
  O  407  1  0.37018700  0.81416600  0.55804000  1
  O  408  1  0.48557100  0.65535200  0.55274000  1
  O  456  1  0.82462400  0.27273600  0.84378200  1
  O  457  1  0.65629800  0.25768500  0.75950800  1
  O  458  1  0.64157300  0.18470000  0.80732200  1
  O  459  1  0.71362300  0.35925800  0.80196700  1
  O  507  1  0.82511500  0.47921200  0.90802500  1
  O  508  1  0.65729000  0.49348800  0.99226700  1
  O  509  1  0.64144800  0.56693900  0.94459200  1
  O  510  1  0.71518300  0.39249900  0.94968800  1
  O  558  1  0.92119800  0.50412300  0.84236600  1
  O  559  1  0.09083100  0.48527100  0.75742300  1
  O  560  1  0.12998500  0.56364600  0.80735700  1
  O  561  1  0.01321600  0.40499900  0.80291400  1
  O  609  1  0.92124600  0.24797100  0.90943100  1
  O  610  1  0.09660300  0.26254900  0.99394000  1
  O  611  1  0.13087800  0.18800600  0.94347100  1
  O  612  1  0.01528200  0.34679600  0.94896600  1
  O  660  1  0.17710700  0.72902300  0.15795700  1
  O  661  1  0.34462800  0.74402600  0.24219800  1
  O  662  1  0.35991800  0.81706300  0.19452400  1
  O  663  1  0.28769500  0.64248800  0.19979800  1
  O  711  1  0.17640700  0.52157000  0.09396300  1
  O  712  1  0.33849500  0.51288200  0.00895000  1
  O  713  1  0.35894600  0.43516100  0.05619200  1
  O  714  1  0.28272500  0.60960200  0.05275700  1
  O  762  1  0.08109400  0.49732600  0.15959000  1
  O  763  1  0.90929600  0.51793800  0.24426600  1
  O  764  1  0.87103300  0.43820800  0.19460200  1
  O  765  1  0.98865800  0.59673300  0.19884700  1
  O  813  1  0.08018600  0.75408800  0.09246900  1
  O  814  1  0.90504500  0.73992700  0.00799000  1
  O  815  1  0.87063800  0.81413800  0.05827800  1
  O  816  1  0.98573500  0.65535400  0.05299100  1
  O  864  1  0.82658500  0.77323300  0.34382400  1
  O  865  1  0.66160700  0.76395000  0.25904600  1
  O  866  1  0.63282200  0.68825900  0.30839600  1
  O  867  1  0.73086600  0.85906500  0.30176600  1
  O  915  1  0.82617700  0.97727500  0.40781300  1
  O  916  1  0.65452300  0.99304900  0.49168500  1
  O  917  1  0.63126500  0.06357900  0.44175600  1
  O  918  1  0.72669800  0.89279300  0.45035700  1
  O  966  1  0.92597500  0.00532700  0.34321000  1
  O  967  1  0.09602400  0.99012700  0.25804000  1
  O  968  1  0.14068000  0.06193000  0.31023800  1
  O  969  1  0.01303800  0.90737100  0.30214100  1
  O  1017  1  0.92424900  0.74618800  0.40875100  1
  O  1018  1  0.09089600  0.76652900  0.49404600  1
  O  1019  1  0.13919100  0.69011500  0.44236100  1
  O  1020  1  0.00992300  0.84453700  0.44963300  1
  O  1068  1  0.17397900  0.22854400  0.65821100  1
  O  1069  1  0.33913000  0.23718300  0.74293500  1
  O  1070  1  0.36909400  0.31289100  0.69381400  1
  O  1071  1  0.26737900  0.14222200  0.70017900  1
  O  1119  1  0.17402000  0.02381100  0.59401100  1
  O  1120  1  0.34319600  0.01344100  0.50960300  1
  O  1121  1  0.36926700  0.93853200  0.55928000  1
  O  1122  1  0.27093400  0.10919200  0.55191400  1
  O  1170  1  0.07592400  0.99659100  0.65892000  1
  O  1171  1  0.90720300  0.01212500  0.74427200  1
  O  1172  1  0.86358900  0.93968500  0.69255400  1
  O  1173  1  0.98698700  0.09503400  0.69914500  1
  O  1221  1  0.07698500  0.25569700  0.59320800  1
  O  1222  1  0.91159200  0.23602300  0.50771500  1
  O  1223  1  0.86241300  0.31205700  0.55934100  1
  O  1224  1  0.99112400  0.15767900  0.55224300  1
  O  1272  1  0.32616100  0.77317000  0.84370600  1
  O  1273  1  0.15907300  0.76423900  0.75913400  1
  O  1274  1  0.13160900  0.68805500  0.80852300  1
  O  1275  1  0.23018200  0.85876700  0.80175800  1
  O  1323  1  0.32700900  0.97730200  0.90774400  1
  O  1324  1  0.15430200  0.99278000  0.99156600  1
  O  1325  1  0.13128200  0.06350700  0.94159000  1
  O  1326  1  0.22754400  0.89285200  0.95022700  1
  O  1374  1  0.42628400  0.00543800  0.84304000  1
  O  1375  1  0.59034200  0.98563800  0.75749000  1
  O  1376  1  0.64000600  0.06163200  0.80936900  1
  O  1377  1  0.51079700  0.90719300  0.80204300  1
  O  1425  1  0.42411900  0.74610200  0.90864400  1
  O  1426  1  0.59200300  0.76592800  0.99394000  1
  O  1427  1  0.63921700  0.69016100  0.94215300  1
  O  1428  1  0.51002900  0.84460200  0.94949300  1
  O  1476  1  0.67500000  0.22876100  0.15804200  1
  O  1477  1  0.84030700  0.23832700  0.24269600  1
  O  1478  1  0.86903700  0.31382500  0.19342000  1
  O  1479  1  0.77103100  0.14309900  0.20010600  1
  O  1527  1  0.67468200  0.02384400  0.09392400  1
  O  1528  1  0.84349900  0.01349500  0.00945800  1
  O  1529  1  0.86971800  0.93854700  0.05904900  1
  O  1530  1  0.77133500  0.10924200  0.05186100  1
  O  1578  1  0.57597700  0.99602700  0.15861400  1
  O  1579  1  0.41031800  0.01645600  0.24400100  1
  O  1580  1  0.36154300  0.94014600  0.19226600  1
  O  1581  1  0.49095600  0.09455300  0.19947200  1
  O  1629  1  0.57723000  0.25585300  0.09312900  1
  O  1630  1  0.41167000  0.23666300  0.00768400  1
  O  1631  1  0.36267800  0.31206900  0.05925200  1
  O  1632  1  0.49120900  0.15769600  0.05224900  1
  O  1641  1  0.31761000  0.37547900  0.29935200  1
  O  1642  1  0.36022500  0.37113600  0.28346200  1
  O  1656  1  0.31740000  0.37640100  0.45267200  1
  O  1657  1  0.36035300  0.38079200  0.46848700  1
  O  1671  1  0.67575100  0.62241100  0.70165300  1
  O  1672  1  0.63192200  0.62425400  0.71733300  1
  O  1686  1  0.68274800  0.62603200  0.54868400  1
  O  1687  1  0.63981600  0.62082000  0.53304100  1
  O  1701  1  0.81569600  0.37498000  0.79916300  1
  O  1702  1  0.85887400  0.37110600  0.78343600  1
  O  1716  1  0.81702500  0.37676800  0.95278700  1
  O  1717  1  0.86051400  0.38004600  0.96849600  1
  O  1731  1  0.18609500  0.62655700  0.20284800  1
  O  1732  1  0.14274800  0.63068600  0.21851700  1
  O  1746  1  0.18216600  0.62636000  0.04874600  1
  O  1747  1  0.13971400  0.61984500  0.03307900  1
  O  1761  1  0.82329200  0.87325900  0.29057900  1
  O  1762  1  0.87890500  0.87554900  0.27797400  1
  O  1776  1  0.82008600  0.87872200  0.46106600  1
  O  1777  1  0.87547400  0.87617600  0.47373200  1
  O  1791  1  0.17354300  0.12077200  0.70618500  1
  O  1792  1  0.12535500  0.12377200  0.72073100  1
  O  1806  1  0.17942000  0.12288400  0.53998000  1
  O  1807  1  0.12310900  0.12592700  0.52777100  1
  O  1821  1  0.32193100  0.87258500  0.79002000  1
  O  1822  1  0.37811900  0.87589900  0.77779000  1
  O  1836  1  0.32040800  0.87907500  0.96139200  1
  O  1837  1  0.37614700  0.87548000  0.97375400  1
  O  1851  1  0.67944500  0.12917300  0.21178000  1
  O  1852  1  0.62300200  0.12599200  0.22393000  1
  O  1866  1  0.67946200  0.12317900  0.04026800  1
  O  1867  1  0.62336800  0.12503800  0.02780400  1
  O  1881  1  0.98792800  0.30556700  0.24630600  1
  O  1882  1  0.95151900  0.29918500  0.26305100  1
  O  1896  1  0.98739200  0.44563600  0.50451600  1
  O  1897  1  0.95045700  0.45284200  0.48797700  1
  O  1911  1  0.77035300  0.44615400  0.24673800  1
  O  1912  1  0.80669300  0.45371700  0.26323400  1
  O  1926  1  0.76976200  0.30679800  0.50506500  1
  O  1927  1  0.80709100  0.29918300  0.48878200  1
  O  1941  1  0.01291700  0.69523600  0.75463400  1
  O  1942  1  0.05386700  0.70262300  0.73899600  1
  O  1956  1  0.23240200  0.55619000  0.75511600  1
  O  1957  1  0.19504100  0.54858200  0.73884000  1
  O  1971  1  0.23290400  0.69525900  0.49693800  1
  O  1972  1  0.19376600  0.70329900  0.51281900  1
  O  1986  1  0.48596500  0.30476100  0.74619600  1
  O  1987  1  0.45063200  0.29854000  0.76313800  1
  O  2001  1  0.48583700  0.44587900  0.00477000  1
  O  2002  1  0.45100600  0.45294300  0.98786500  1
  O  2016  1  0.26926700  0.30658500  0.00543100  1
  O  2017  1  0.30544400  0.29942800  0.98875900  1
  O  2031  1  0.51462900  0.69670900  0.25565800  1
  O  2032  1  0.54970700  0.70259500  0.23872100  1
  O  2046  1  0.73494000  0.69512200  0.99713100  1
  O  2047  1  0.69344700  0.70307900  0.01255100  1
  O  2061  1  0.49007800  0.94512500  0.50443300  1
  O  2062  1  0.44573100  0.95248500  0.48952100  1
  O  2076  1  0.26722700  0.94555300  0.24710200  1
  O  2077  1  0.30775700  0.95345300  0.26273400  1
  O  2091  1  0.73354300  0.05623300  0.75589300  1
  O  2092  1  0.69665700  0.04947500  0.73940600  1
  O  2106  1  0.98949500  0.94533300  0.00463600  1
  O  2107  1  0.94686700  0.95249800  0.98918200  1
  O  2121  1  0.25540600  0.10038900  0.30820000  1
  O  2122  1  0.24407100  0.12567900  0.29454600  1
  O  2136  1  0.25424700  0.65180800  0.44403300  1
  O  2137  1  0.24339600  0.62636000  0.45761600  1
  O  2151  1  0.52260900  0.65070000  0.31560100  1
  O  2152  1  0.52204500  0.62834600  0.29997300  1
  O  2166  1  0.52108700  0.10150400  0.43572300  1
  O  2167  1  0.52139900  0.12404000  0.45123000  1
  O  2181  1  0.74892800  0.90134500  0.69413000  1
  O  2182  1  0.75761700  0.87529600  0.70741600  1
  O  2196  1  0.74704000  0.34991300  0.55713800  1
  O  2197  1  0.75615400  0.37607200  0.54394700  1
  O  2211  1  0.48014000  0.35036000  0.68721200  1
  O  2212  1  0.48073200  0.37277900  0.70278000  1
  O  2226  1  0.47951800  0.90079700  0.56585600  1
  O  2227  1  0.47851800  0.87887800  0.55002300  1
  O  2241  1  0.75488500  0.10004900  0.80765100  1
  O  2242  1  0.74355700  0.12552400  0.79411500  1
  O  2256  1  0.75424100  0.65185100  0.94400800  1
  O  2257  1  0.74333500  0.62648200  0.95763900  1
  O  2271  1  0.02130400  0.65046900  0.81539100  1
  O  2272  1  0.02073300  0.62823800  0.79970300  1
  O  2286  1  0.02088900  0.10135900  0.93575200  1
  O  2287  1  0.02128700  0.12387200  0.95127000  1
  O  2301  1  0.24667800  0.90182400  0.19432000  1
  O  2302  1  0.25645000  0.87549500  0.20735600  1
  O  2316  1  0.24724400  0.34987200  0.05703600  1
  O  2317  1  0.25625800  0.37599900  0.04381800  1
  O  2331  1  0.97966100  0.35122100  0.18652100  1
  O  2332  1  0.98018000  0.37369300  0.20206100  1
  O  2346  1  0.97992000  0.90086900  0.06584700  1
  O  2347  1  0.97900700  0.87887100  0.05005200  1
  O  2361  1  0.40894500  0.32098900  0.36845200  1
  O  2362  1  0.39893100  0.32386600  0.38813200  1
  O  2376  1  0.40905900  0.43112000  0.38333700  1
  O  2377  1  0.39922200  0.42826600  0.36364900  1
  O  2391  1  0.59096200  0.68118400  0.63352600  1
  O  2392  1  0.60078800  0.67800900  0.61391000  1
  O  2406  1  0.59392900  0.57042400  0.61859200  1
  O  2407  1  0.60270100  0.57314900  0.63824600  1
  O  2421  1  0.90768700  0.32104300  0.86839200  1
  O  2422  1  0.89866600  0.32374300  0.88803900  1
  O  2436  1  0.90855500  0.43107200  0.88337100  1
  O  2437  1  0.89963800  0.42847200  0.86371800  1
  O  2451  1  0.09404200  0.68081300  0.13335300  1
  O  2452  1  0.10274800  0.67824900  0.11368900  1
  O  2466  1  0.09328800  0.56999400  0.11836100  1
  O  2467  1  0.10314000  0.57304400  0.13803900  1
  O  2481  1  0.90725800  0.82122800  0.36918300  1
  O  2482  1  0.89741800  0.82288200  0.38891700  1
  O  2496  1  0.90667000  0.92964400  0.38220800  1
  O  2497  1  0.89737300  0.92853800  0.36243900  1
  O  2511  1  0.09303300  0.18073400  0.63285900  1
  O  2512  1  0.10284600  0.17882500  0.61318700  1
  O  2526  1  0.09423900  0.07191700  0.61958400  1
  O  2527  1  0.10269400  0.07304900  0.63930100  1
  O  2541  1  0.40556500  0.82144400  0.86926400  1
  O  2542  1  0.39685600  0.82268500  0.88897100  1
  O  2556  1  0.40722200  0.92961900  0.88199000  1
  O  2557  1  0.39871000  0.92877200  0.86227100  1
  O  2571  1  0.59454800  0.18063100  0.13263500  1
  O  2572  1  0.60332000  0.17919800  0.11293500  1
  O  2586  1  0.59494300  0.07167400  0.11960000  1
  O  2587  1  0.60438900  0.07272500  0.13936400  1
