# generated using pymatgen
data_H7(C5N2)2
_symmetry_space_group_name_H-M   'P 1'
_cell_length_a   35.59230000
_cell_length_b   35.86080000
_cell_length_c   56.63480000
_cell_angle_alpha   90.00000000
_cell_angle_beta   90.00000000
_cell_angle_gamma   90.00000000
_symmetry_Int_Tables_number   1
_chemical_formula_structural   H7(C5N2)2
_chemical_formula_sum   'H448 C640 N256'
_cell_volume   72286.86633279
_cell_formula_units_Z   64
loop_
 _symmetry_equiv_pos_site_id
 _symmetry_equiv_pos_as_xyz
  1  'x, y, z'
loop_
 _atom_site_type_symbol
 _atom_site_label
 _atom_site_symmetry_multiplicity
 _atom_site_fract_x
 _atom_site_fract_y
 _atom_site_fract_z
 _atom_site_occupancy
  H  7  1  0.22551600  0.07545500  0.11153600  1
  H  16  1  0.21625800  0.15432900  0.08323500  1
  H  19  1  0.18171200  0.11474100  0.03825900  1
  H  20  1  0.19837700  0.08539700  0.01872300  1
  H  21  1  0.10488700  0.05242000  0.08736000  1
  H  22  1  0.14888300  0.04132800  0.08240800  1
  H  23  1  0.06986100  0.18582300  0.09745200  1
  H  24  1  0.10266500  0.21741500  0.09726000  1
  H  25  1  0.26391300  0.96962700  0.04909100  1
  H  26  1  0.28081500  0.97149200  0.07586200  1
  H  33  1  0.34737000  0.92579600  0.61150100  1
  H  42  1  0.35658000  0.84690800  0.58320600  1
  H  45  1  0.39144400  0.88665000  0.53820500  1
  H  46  1  0.37487900  0.91601400  0.51866900  1
  H  47  1  0.46793600  0.94881900  0.58740100  1
  H  48  1  0.42394600  0.95992000  0.58242500  1
  H  49  1  0.50297200  0.81543100  0.59749500  1
  H  50  1  0.47017200  0.78383300  0.59728000  1
  H  51  1  0.30900200  0.03165700  0.54906000  1
  H  52  1  0.29210300  0.02979100  0.57583400  1
  H  59  1  0.21357700  0.93904500  0.36210300  1
  H  68  1  0.13397500  0.92939300  0.33428200  1
  H  71  1  0.17315900  0.89470700  0.28923200  1
  H  72  1  0.20197500  0.91164100  0.26941200  1
  H  73  1  0.23680100  0.81899200  0.33803600  1
  H  74  1  0.24784100  0.86267700  0.33297900  1
  H  75  1  0.10252800  0.78412300  0.34887400  1
  H  76  1  0.07066300  0.81665200  0.34880500  1
  H  77  1  0.31861700  0.97808400  0.29885400  1
  H  78  1  0.31693400  0.99504700  0.32558100  1
  H  85  1  0.35925500  0.06221400  0.86211600  1
  H  94  1  0.43886200  0.07183600  0.83426000  1
  H  97  1  0.39976400  0.10634800  0.78922200  1
  H  98  1  0.37094300  0.08929800  0.76943400  1
  H  99  1  0.33604200  0.18226700  0.83791500  1
  H  100  1  0.32499500  0.13857400  0.83289900  1
  H  101  1  0.47035200  0.21713300  0.84867500  1
  H  102  1  0.50221600  0.18460600  0.84857300  1
  H  103  1  0.25425900  0.02309300  0.79885600  1
  H  104  1  0.25587800  0.00620500  0.82560400  1
  H  111  1  0.34978900  0.07349300  0.39557000  1
  H  120  1  0.35806400  0.15094000  0.42448100  1
  H  123  1  0.39387200  0.10991900  0.46939700  1
  H  124  1  0.37655400  0.08033000  0.48854500  1
  H  125  1  0.47117200  0.05091800  0.42050700  1
  H  126  1  0.42722200  0.03902600  0.42489500  1
  H  127  1  0.50421900  0.18510700  0.41190100  1
  H  128  1  0.47088300  0.21616500  0.41218500  1
  H  129  1  0.30878300  0.96683300  0.45688000  1
  H  130  1  0.29205800  0.96971000  0.43010200  1
  H  137  1  0.22307300  0.92774300  0.89561100  1
  H  146  1  0.21485000  0.85029300  0.92451000  1
  H  149  1  0.17875700  0.89147200  0.96946500  1
  H  150  1  0.19599700  0.92108100  0.98860700  1
  H  151  1  0.10175000  0.95031300  0.92050400  1
  H  152  1  0.14569800  0.96221200  0.92490000  1
  H  153  1  0.06868900  0.81612800  0.91194400  1
  H  154  1  0.10202000  0.78506900  0.91223800  1
  H  155  1  0.26410300  0.03443000  0.95690400  1
  H  156  1  0.28081200  0.03154600  0.93012200  1
  H  163  1  0.35827700  0.93769800  0.14503100  1
  H  172  1  0.43640400  0.92856500  0.17342200  1
  H  175  1  0.39562200  0.89287700  0.21843800  1
  H  176  1  0.36641400  0.91026700  0.23785700  1
  H  177  1  0.33495200  0.81690000  0.16978500  1
  H  178  1  0.32328600  0.86060200  0.17422900  1
  H  179  1  0.46989400  0.78334300  0.16061100  1
  H  180  1  0.50137600  0.81625300  0.16075300  1
  H  181  1  0.25209100  0.97886800  0.20707100  1
  H  182  1  0.25490000  0.99582500  0.18037700  1
  H  189  1  0.21466000  0.06360300  0.64501900  1
  H  198  1  0.13651800  0.07266500  0.67345600  1
  H  201  1  0.17720700  0.10817000  0.71846300  1
  H  202  1  0.20642800  0.09066500  0.73784700  1
  H  203  1  0.23794100  0.18437800  0.66992300  1
  H  204  1  0.24962400  0.14067000  0.67431400  1
  H  205  1  0.10295500  0.21791400  0.66087500  1
  H  206  1  0.07147900  0.18499800  0.66105700  1
  H  207  1  0.32081100  0.02233900  0.70706200  1
  H  208  1  0.31808300  0.00549200  0.68033800  1
  H  215  1  0.84229000  0.92560700  0.89720000  1
  H  224  1  0.85139300  0.84679400  0.92560700  1
  H  227  1  0.88551500  0.88638000  0.97062700  1
  H  228  1  0.86850900  0.91562400  0.99010900  1
  H  229  1  0.96261300  0.94888300  0.92164800  1
  H  230  1  0.91859000  0.95987800  0.92661700  1
  H  231  1  0.99785400  0.81551100  0.91147000  1
  H  232  1  0.96508300  0.78388600  0.91163500  1
  H  233  1  0.80274400  0.03116200  0.95954300  1
  H  234  1  0.78603900  0.02918300  0.93272900  1
  H  241  1  0.73058000  0.07565600  0.39724600  1
  H  250  1  0.72150800  0.15448500  0.42567200  1
  H  253  1  0.68706500  0.11472500  0.47069200  1
  H  254  1  0.70397000  0.08545700  0.49017400  1
  H  255  1  0.61033500  0.05236900  0.42157300  1
  H  256  1  0.65434700  0.04137700  0.42658800  1
  H  257  1  0.57506900  0.18571900  0.41137600  1
  H  258  1  0.60782600  0.21735900  0.41158800  1
  H  259  1  0.77009100  0.97006200  0.45958000  1
  H  260  1  0.78679700  0.97204400  0.43276600  1
  H  267  1  0.86324900  0.06179200  0.64763100  1
  H  276  1  0.94168700  0.07179400  0.67526700  1
  H  279  1  0.90131400  0.10678300  0.72079200  1
  H  280  1  0.87177100  0.09021300  0.74032300  1
  H  281  1  0.83890100  0.18227300  0.67187200  1
  H  282  1  0.82785100  0.13859200  0.67692000  1
  H  283  1  0.97316900  0.21711800  0.66099200  1
  H  284  1  0.00499500  0.18455000  0.66091400  1
  H  285  1  0.75577100  0.02403500  0.70949400  1
  H  286  1  0.75838600  0.00668900  0.68289700  1
  H  293  1  0.70966500  0.93946000  0.14761900  1
  H  302  1  0.63122700  0.92950800  0.17530100  1
  H  305  1  0.67151900  0.89469800  0.22081800  1
  H  306  1  0.70107300  0.91139000  0.24031200  1
  H  307  1  0.73398800  0.81898000  0.17201100  1
  H  308  1  0.74505500  0.86266600  0.17700800  1
  H  309  1  0.59967200  0.78414600  0.16124500  1
  H  310  1  0.56785100  0.81671600  0.16121000  1
  H  311  1  0.81711000  0.97731500  0.20948600  1
  H  312  1  0.81455600  0.99457600  0.18286500  1
  H  319  1  0.72800300  0.92756400  0.61294700  1
  H  328  1  0.72005500  0.85020100  0.58387800  1
  H  331  1  0.68476400  0.89129900  0.53889000  1
  H  332  1  0.70241600  0.92086300  0.51984200  1
  H  333  1  0.60703300  0.95034700  0.58763900  1
  H  334  1  0.65101500  0.96217600  0.58328700  1
  H  335  1  0.57380700  0.81615000  0.59614300  1
  H  336  1  0.60712300  0.78506900  0.59588500  1
  H  337  1  0.77035300  0.03402500  0.55183800  1
  H  338  1  0.78686500  0.03096400  0.57865700  1
  H  345  1  0.84486300  0.07371900  0.11289300  1
  H  354  1  0.85277800  0.15108600  0.08380900  1
  H  357  1  0.88835000  0.10980600  0.03880800  1
  H  358  1  0.87077900  0.08022200  0.01976600  1
  H  359  1  0.96576000  0.05091600  0.08767300  1
  H  360  1  0.92178400  0.03909000  0.08329400  1
  H  361  1  0.99902300  0.18510600  0.09613100  1
  H  362  1  0.96571800  0.21619600  0.09583400  1
  H  363  1  0.80248900  0.96722300  0.05180800  1
  H  364  1  0.78599100  0.97029600  0.07863100  1
  H  371  1  0.71050800  0.06323000  0.86252000  1
  H  380  1  0.63372200  0.07272600  0.83419300  1
  H  383  1  0.67604300  0.10883600  0.78878200  1
  H  384  1  0.70603000  0.09173400  0.76972400  1
  H  385  1  0.73511500  0.18448000  0.83756500  1
  H  386  1  0.74681700  0.14076800  0.83322000  1
  H  387  1  0.60011900  0.21803000  0.84643300  1
  H  388  1  0.56866600  0.18508600  0.84637400  1
  H  389  1  0.81911900  0.02272300  0.80200900  1
  H  390  1  0.81516000  0.00535000  0.82853400  1
  H  397  1  0.86230200  0.93797900  0.36253700  1
  H  406  1  0.93910800  0.92856800  0.33416200  1
  H  409  1  0.89688600  0.89264000  0.28876100  1
  H  410  1  0.86689000  0.90986200  0.26973500  1
  H  411  1  0.83775500  0.81675500  0.33743200  1
  H  412  1  0.82603000  0.86046900  0.33313300  1
  H  413  1  0.97279000  0.78324200  0.34621000  1
  H  414  1  0.00424000  0.81619200  0.34610700  1
  H  415  1  0.75373700  0.97858600  0.30201600  1
  H  416  1  0.75760500  0.99584200  0.32857700  1
  H  423  1  0.73082700  0.57865400  0.61058800  1
  H  432  1  0.72145700  0.65656900  0.58232300  1
  H  435  1  0.68697800  0.61598700  0.53694200  1
  H  436  1  0.70372900  0.58621100  0.51768600  1
  H  437  1  0.61014600  0.55453300  0.58592500  1
  H  438  1  0.65414800  0.54352900  0.58090800  1
  H  439  1  0.57502600  0.68777600  0.59671300  1
  H  440  1  0.60780900  0.71939300  0.59664800  1
  H  441  1  0.76978800  0.47145300  0.54925500  1
  H  442  1  0.78685300  0.47421400  0.57594900  1
  H  449  1  0.84205400  0.42260100  0.11054100  1
  H  458  1  0.85139000  0.34466600  0.08225300  1
  H  461  1  0.88619200  0.38542600  0.03687800  1
  H  462  1  0.86954500  0.41522800  0.01762300  1
  H  463  1  0.96265000  0.44673000  0.08600100  1
  H  464  1  0.91865700  0.45773400  0.08094200  1
  H  465  1  0.99779800  0.31350700  0.09679300  1
  H  466  1  0.96503000  0.28187600  0.09668000  1
  H  467  1  0.80312900  0.52984300  0.04921800  1
  H  468  1  0.78606900  0.52708200  0.07591400  1
  H  475  1  0.70954700  0.44324700  0.86091700  1
  H  484  1  0.63109500  0.43332300  0.83323200  1
  H  487  1  0.67147700  0.39847700  0.78770200  1
  H  488  1  0.70100900  0.41511900  0.76818700  1
  H  489  1  0.73398200  0.32293500  0.83663100  1
  H  490  1  0.74498500  0.36662300  0.83156900  1
  H  491  1  0.59972300  0.28796600  0.84747800  1
  H  492  1  0.56787000  0.32050900  0.84753600  1
  H  493  1  0.81693300  0.48136400  0.79907500  1
  H  494  1  0.81427800  0.49867300  0.82567900  1
  H  501  1  0.86326300  0.55802400  0.36093700  1
  H  510  1  0.94171600  0.56789600  0.33323400  1
  H  513  1  0.90143700  0.60257100  0.28769100  1
  H  514  1  0.87190000  0.58580700  0.26821000  1
  H  515  1  0.83887300  0.67834800  0.33648800  1
  H  516  1  0.82785100  0.63465700  0.33146600  1
  H  517  1  0.97316600  0.71327400  0.34730300  1
  H  518  1  0.00500600  0.68071800  0.34735200  1
  H  519  1  0.75592800  0.51981300  0.29907800  1
  H  520  1  0.75851300  0.50258800  0.32570800  1
  H  527  1  0.84464100  0.57666900  0.89649900  1
  H  536  1  0.85278300  0.65311700  0.92551700  1
  H  539  1  0.88829100  0.61096200  0.97080300  1
  H  540  1  0.87093600  0.58079300  0.98958300  1
  H  541  1  0.96593200  0.55307200  0.92201300  1
  H  542  1  0.92198100  0.54120100  0.92641400  1
  H  543  1  0.99898000  0.68717600  0.91294800  1
  H  544  1  0.96564500  0.71824100  0.91314100  1
  H  545  1  0.80320000  0.46826300  0.95643400  1
  H  546  1  0.78640100  0.47210000  0.92972800  1
  H  553  1  0.72822800  0.42456400  0.39655500  1
  H  562  1  0.72012300  0.34811000  0.42559600  1
  H  565  1  0.68432800  0.39044600  0.47088600  1
  H  566  1  0.70159900  0.42064300  0.48965900  1
  H  567  1  0.60701700  0.44818000  0.42197600  1
  H  568  1  0.65096100  0.46005100  0.42640400  1
  H  569  1  0.57393100  0.31408400  0.41296700  1
  H  570  1  0.60725300  0.28300800  0.41319900  1
  H  571  1  0.76968900  0.53300500  0.45646700  1
  H  572  1  0.78647700  0.52915700  0.42975600  1
  H  579  1  0.86247900  0.44180800  0.64613200  1
  H  588  1  0.93923800  0.43238600  0.67453600  1
  H  591  1  0.89687200  0.39644400  0.71994000  1
  H  592  1  0.86686800  0.41361000  0.73896500  1
  H  593  1  0.83775800  0.32071200  0.67110400  1
  H  594  1  0.82609500  0.36442800  0.67548300  1
  H  595  1  0.97274200  0.28706300  0.66225800  1
  H  596  1  0.00422100  0.31998700  0.66235000  1
  H  597  1  0.75379600  0.48250200  0.70652900  1
  H  598  1  0.75779400  0.49978800  0.67998400  1
  H  605  1  0.71046900  0.55950500  0.14611200  1
  H  614  1  0.63369400  0.56884100  0.17454500  1
  H  617  1  0.67594700  0.60459900  0.21995900  1
  H  618  1  0.70595700  0.58731200  0.23895200  1
  H  619  1  0.73512600  0.68058400  0.17125600  1
  H  620  1  0.74681100  0.63686800  0.17559600  1
  H  621  1  0.60010800  0.71417500  0.16241800  1
  H  622  1  0.56864600  0.68124000  0.16252000  1
  H  623  1  0.81909900  0.51870000  0.20652900  1
  H  624  1  0.81519400  0.50153600  0.17994300  1
  H  631  1  0.34714600  0.42282600  0.39789500  1
  H  640  1  0.35664800  0.34482800  0.42606000  1
  H  643  1  0.39153400  0.38539300  0.47139100  1
  H  644  1  0.37511800  0.41526100  0.49070000  1
  H  645  1  0.46811600  0.44668000  0.42227600  1
  H  646  1  0.42414300  0.45778700  0.42727700  1
  H  647  1  0.50301100  0.31340100  0.41159200  1
  H  648  1  0.47019500  0.28181700  0.41169100  1
  H  649  1  0.30932000  0.53027800  0.45933600  1
  H  650  1  0.29207500  0.52764800  0.43268100  1
  H  657  1  0.22572300  0.57843400  0.89793800  1
  H  666  1  0.21625200  0.65644900  0.92611700  1
  H  669  1  0.18104400  0.61571100  0.97145100  1
  H  670  1  0.19735700  0.58581800  0.99075700  1
  H  671  1  0.10483400  0.55456900  0.92220600  1
  H  672  1  0.14879900  0.54346500  0.92724500  1
  H  673  1  0.06990500  0.68782900  0.91152000  1
  H  674  1  0.10270600  0.71942300  0.91165600  1
  H  675  1  0.26351900  0.47094600  0.95936900  1
  H  676  1  0.28076300  0.47357800  0.93271200  1
  H  683  1  0.35932500  0.55849000  0.14656700  1
  H  692  1  0.43892700  0.56804100  0.17435300  1
  H  695  1  0.39978900  0.60261600  0.21947500  1
  H  696  1  0.37099300  0.58561700  0.23928600  1
  H  697  1  0.33606200  0.67841500  0.17072500  1
  H  698  1  0.32505900  0.63472600  0.17582100  1
  H  699  1  0.47031300  0.71330500  0.15971300  1
  H  700  1  0.50217400  0.68077400  0.15972800  1
  H  701  1  0.25440300  0.51911300  0.20981100  1
  H  702  1  0.25610800  0.50219200  0.18307500  1
  H  709  1  0.21358500  0.44277000  0.64655400  1
  H  718  1  0.13397400  0.43324700  0.67439000  1
  H  721  1  0.17303300  0.39885000  0.71948900  1
  H  722  1  0.20184000  0.41596700  0.73926700  1
  H  723  1  0.23683700  0.32285100  0.67084100  1
  H  724  1  0.24784900  0.36654500  0.67589200  1
  H  725  1  0.10255800  0.28795200  0.65990900  1
  H  726  1  0.07069500  0.32048100  0.65996400  1
  H  727  1  0.31846800  0.48223400  0.70980600  1
  H  728  1  0.31682700  0.49907700  0.68304700  1
  H  735  1  0.22327400  0.42481200  0.11222400  1
  H  744  1  0.21483000  0.34826600  0.08335800  1
  H  747  1  0.17881100  0.39033100  0.03814500  1
  H  748  1  0.19584300  0.42052600  0.01926800  1
  H  749  1  0.10158600  0.44818000  0.08708800  1
  H  750  1  0.14550500  0.46012100  0.08265600  1
  H  751  1  0.06872400  0.31407800  0.09620000  1
  H  752  1  0.10207800  0.28303600  0.09597500  1
  H  753  1  0.26342900  0.53338500  0.05208100  1
  H  754  1  0.28043200  0.52973700  0.07875200  1
  H  761  1  0.34959300  0.57646800  0.61217400  1
  H  770  1  0.35800500  0.65301700  0.58329600  1
  H  773  1  0.39431900  0.61077300  0.53807200  1
  H  774  1  0.37737100  0.58055600  0.51920200  1
  H  775  1  0.47120900  0.55307700  0.58712900  1
  H  776  1  0.42729200  0.54113900  0.58266900  1
  H  777  1  0.50410900  0.68716800  0.59620300  1
  H  778  1  0.47076500  0.71821900  0.59594700  1
  H  779  1  0.30942100  0.46785900  0.55205200  1
  H  780  1  0.29242900  0.47152000  0.57872600  1
  H  787  1  0.21452500  0.55983400  0.36356100  1
  H  796  1  0.13643800  0.56887200  0.33518100  1
  H  799  1  0.17720800  0.60441500  0.29009600  1
  H  800  1  0.20642900  0.58697200  0.27070000  1
  H  801  1  0.23792200  0.68051400  0.33871800  1
  H  802  1  0.24955700  0.63681500  0.33422400  1
  H  803  1  0.10300500  0.71408000  0.34809000  1
  H  804  1  0.07152500  0.68116700  0.34799500  1
  H  805  1  0.32075800  0.51848200  0.30161200  1
  H  806  1  0.31792300  0.50161200  0.32832500  1
  H  813  1  0.35828600  0.44138200  0.86357400  1
  H  822  1  0.43639500  0.43240800  0.83513000  1
  H  825  1  0.39571200  0.39705500  0.79007100  1
  H  826  1  0.36648100  0.41461700  0.77071100  1
  H  827  1  0.33492700  0.32073200  0.83859600  1
  H  828  1  0.32327800  0.36443700  0.83415000  1
  H  829  1  0.46987700  0.28717400  0.84786800  1
  H  830  1  0.50135600  0.32008500  0.84772300  1
  H  831  1  0.25209400  0.48283600  0.80161600  1
  H  832  1  0.25484700  0.49959600  0.82836200  1
  H  838  1  0.17309200  0.21701300  0.05265500  1
  H  839  1  0.17261900  0.28424900  0.05245100  1
  H  846  1  0.39978100  0.78429100  0.55264500  1
  H  847  1  0.40026100  0.71704700  0.55241900  1
  H  854  1  0.07136900  0.88695700  0.30378700  1
  H  855  1  0.00363400  0.88672600  0.30330500  1
  H  862  1  0.50163100  0.11429200  0.80373600  1
  H  863  1  0.56936800  0.11457400  0.80337600  1
  H  870  1  0.40028300  0.21427500  0.45583900  1
  H  871  1  0.39971900  0.28150800  0.45614900  1
  H  878  1  0.17260400  0.78699000  0.95586000  1
  H  879  1  0.17315300  0.71975200  0.95616900  1
  H  886  1  0.49955500  0.88667000  0.20470500  1
  H  887  1  0.56728600  0.88708000  0.20524300  1
  H  894  1  0.07317300  0.11456200  0.70477600  1
  H  895  1  0.00544000  0.11420400  0.70517300  1
  H  902  1  0.89454500  0.78431900  0.95625000  1
  H  903  1  0.89498900  0.71707800  0.95650100  1
  H  910  1  0.67829600  0.21688000  0.45627600  1
  H  911  1  0.67785200  0.28412400  0.45655400  1
  H  918  1  0.67788000  0.78691500  0.55243600  1
  H  919  1  0.67842500  0.71967700  0.55217300  1
  H  926  1  0.89500600  0.21433800  0.05239500  1
  H  927  1  0.89447200  0.28158000  0.05213800  1
  H  934  1  0.56722100  0.39088600  0.80334200  1
  H  935  1  0.49949000  0.39053200  0.80385800  1
  H  942  1  0.00576000  0.61034600  0.30333800  1
  H  943  1  0.07347700  0.61074500  0.30395600  1
  H  950  1  0.00369100  0.39051800  0.70533700  1
  H  951  1  0.07142600  0.39080300  0.70488300  1
  H  958  1  0.56907900  0.61072500  0.20535300  1
  H  959  1  0.50135600  0.61048300  0.20480200  1
  H  966  1  0.06892300  0.11620700  0.05293000  1
  H  967  1  0.00106500  0.11539100  0.05283300  1
  H  974  1  0.50393500  0.88502700  0.55289900  1
  H  975  1  0.57179800  0.88585000  0.55283200  1
  H  982  1  0.17192700  0.78298300  0.30402000  1
  H  983  1  0.17250700  0.71562500  0.30410000  1
  H  990  1  0.40083400  0.21828000  0.80395700  1
  H  991  1  0.40025500  0.28562400  0.80403500  1
  H  998  1  0.50600000  0.11549800  0.45554400  1
  H  999  1  0.57385800  0.11620100  0.45574500  1
  H  1006  1  0.06689100  0.88578000  0.95561800  1
  H  1007  1  0.99902600  0.88508000  0.95579300  1
  H  1014  1  0.40035900  0.78180300  0.20453200  1
  H  1015  1  0.40091800  0.71444600  0.20461100  1
  H  1022  1  0.17262700  0.21949700  0.70461200  1
  H  1023  1  0.17207900  0.28684200  0.70467500  1
  H  1030  1  0.90354200  0.21814300  0.70589700  1
  H  1031  1  0.90294300  0.28550100  0.70589200  1
  H  1038  1  0.66942100  0.78308900  0.20597600  1
  H  1039  1  0.67001300  0.71574200  0.20595500  1
  H  1046  1  0.66992900  0.21957600  0.80272400  1
  H  1047  1  0.66936400  0.28693700  0.80267300  1
  H  1054  1  0.90287300  0.78165000  0.30265300  1
  H  1055  1  0.90342100  0.71430100  0.30261500  1
  H  1062  1  0.57377300  0.61901600  0.55189300  1
  H  1063  1  0.50590800  0.61830200  0.55208500  1
  H  1070  1  0.99904400  0.38223100  0.05191300  1
  H  1071  1  0.06690900  0.38292800  0.05210100  1
  H  1078  1  0.00115000  0.61827700  0.95673800  1
  H  1079  1  0.06901600  0.61906900  0.95660300  1
  H  1086  1  0.57177000  0.38300900  0.45676000  1
  H  1087  1  0.50390400  0.38220300  0.45662400  1
  H  1094  1  0.16754800  0.01693700  0.02292500  1
  H  1095  1  0.16693000  0.99010900  0.98391200  1
  H  1102  1  0.40535800  0.98447300  0.52292300  1
  H  1103  1  0.40595600  0.01129700  0.48391000  1
  H  1110  1  0.27099600  0.88186000  0.27289300  1
  H  1111  1  0.29691800  0.88153300  0.23360400  1
  H  1118  1  0.30188000  0.11930900  0.77290000  1
  H  1119  1  0.27596400  0.11964200  0.73361000  1
  H  1126  1  0.89940600  0.98413300  0.98576000  1
  H  1127  1  0.90002700  0.01115600  0.02470600  1
  H  1134  1  0.67343300  0.01695000  0.48576400  1
  H  1135  1  0.67282300  0.98993000  0.52471000  1
  H  1142  1  0.80297200  0.11978100  0.73611000  1
  H  1143  1  0.77541000  0.12008000  0.77496900  1
  H  1150  1  0.76991100  0.88157800  0.23610400  1
  H  1151  1  0.79746500  0.88126800  0.27496400  1
  H  1158  1  0.67314000  0.51775700  0.52269000  1
  H  1159  1  0.67248300  0.48950100  0.48408600  1
  H  1166  1  0.89976500  0.48367600  0.02268400  1
  H  1167  1  0.90040600  0.51192700  0.98407800  1
  H  1174  1  0.76985000  0.38552100  0.77248200  1
  H  1175  1  0.79750500  0.38520000  0.73365000  1
  H  1182  1  0.80301400  0.61564400  0.27249000  1
  H  1183  1  0.77536800  0.61597300  0.23365700  1
  H  1190  1  0.40565300  0.48366200  0.48586200  1
  H  1191  1  0.40629900  0.51171700  0.52453700  1
  H  1198  1  0.16719000  0.51741700  0.98585900  1
  H  1199  1  0.16655800  0.48936700  0.02453800  1
  H  1206  1  0.30192500  0.61542400  0.23574400  1
  H  1207  1  0.27591700  0.61577000  0.27501000  1
  H  1214  1  0.27095000  0.38593100  0.73573700  1
  H  1215  1  0.29695200  0.38558000  0.77500300  1
  H  1222  1  0.31382900  0.05597400  0.11155800  1
  H  1223  1  0.34322600  0.02474800  0.14479800  1
  H  1230  1  0.25915500  0.94526300  0.61158700  1
  H  1231  1  0.22978100  0.97650300  0.64483000  1
  H  1238  1  0.23128200  0.02690600  0.36160100  1
  H  1239  1  0.26210900  0.05676500  0.39483400  1
  H  1246  1  0.34149800  0.97430900  0.86157900  1
  H  1247  1  0.31068800  0.94444900  0.89481600  1
  H  1254  1  0.75416400  0.94485300  0.89636800  1
  H  1255  1  0.72571400  0.97617700  0.86282900  1
  H  1262  1  0.81860200  0.05642400  0.39634300  1
  H  1263  1  0.84702400  0.02508500  0.36280000  1
  H  1270  1  0.84474200  0.97352200  0.64852800  1
  H  1271  1  0.81486800  0.94359000  0.61497400  1
  H  1278  1  0.72823100  0.02777600  0.14855300  1
  H  1279  1  0.75807500  0.05771000  0.11498800  1
  H  1286  1  0.81862100  0.55952400  0.61172500  1
  H  1287  1  0.84707700  0.52882500  0.64550100  1
  H  1294  1  0.75435800  0.44173000  0.11174700  1
  H  1295  1  0.72593600  0.47244300  0.14552600  1
  H  1302  1  0.72780400  0.53104800  0.86071700  1
  H  1303  1  0.75772900  0.56028000  0.89450400  1
  H  1310  1  0.84495900  0.47017900  0.36069600  1
  H  1311  1  0.81506500  0.44094100  0.39449100  1
  H  1318  1  0.25915700  0.44221000  0.39756500  1
  H  1319  1  0.22975800  0.47282500  0.36409300  1
  H  1326  1  0.31361600  0.55906400  0.89754100  1
  H  1327  1  0.34298700  0.52843800  0.86406300  1
  H  1334  1  0.34181900  0.47106300  0.14643700  1
  H  1335  1  0.31094400  0.44188100  0.11297800  1
  H  1342  1  0.23114500  0.53024200  0.64646000  1
  H  1343  1  0.26199400  0.55941900  0.61298900  1
  C  1  1  0.20676100  0.08310800  0.07659500  1
  C  2  1  0.22779900  0.06585200  0.09450700  1
  C  3  1  0.24987900  0.03420000  0.08973900  1
  C  4  1  0.24923000  0.01751400  0.06690700  1
  C  5  1  0.22934600  0.03619100  0.04833500  1
  C  6  1  0.20943100  0.07015700  0.05291500  1
  C  9  1  0.17854600  0.10889800  0.08371400  1
  C  10  1  0.14033300  0.09774300  0.08645000  1
  C  11  1  0.11274400  0.12573300  0.09097800  1
  C  12  1  0.12310900  0.16418200  0.09303700  1
  C  13  1  0.16176400  0.17423900  0.09081000  1
  C  14  1  0.18881300  0.14666000  0.08595600  1
  C  27  1  0.36607900  0.91812200  0.57654700  1
  C  28  1  0.34504700  0.93536900  0.59446700  1
  C  29  1  0.32304200  0.96707800  0.58971000  1
  C  30  1  0.32369400  0.98377300  0.56688000  1
  C  31  1  0.34357500  0.96509800  0.54830500  1
  C  32  1  0.36348300  0.93113100  0.55288000  1
  C  35  1  0.39429300  0.89234200  0.58368800  1
  C  36  1  0.43250100  0.90350200  0.58643700  1
  C  37  1  0.46008900  0.87551300  0.59097800  1
  C  38  1  0.44972700  0.83706400  0.59304400  1
  C  39  1  0.41107500  0.82701100  0.59078900  1
  C  40  1  0.38402200  0.85458200  0.58593700  1
  C  53  1  0.20555600  0.92005200  0.32726900  1
  C  54  1  0.22292600  0.94132000  0.34500200  1
  C  55  1  0.25434700  0.96372900  0.33992900  1
  C  56  1  0.27081200  0.96308500  0.31700000  1
  C  57  1  0.25192300  0.94299600  0.29860600  1
  C  58  1  0.21804900  0.92281800  0.30348200  1
  C  61  1  0.17978500  0.89201300  0.33462300  1
  C  62  1  0.19109300  0.85410000  0.33732600  1
  C  63  1  0.16297300  0.82670500  0.34205300  1
  C  64  1  0.12424700  0.83696100  0.34427800  1
  C  65  1  0.11407800  0.87530700  0.34202500  1
  C  66  1  0.14176600  0.90217200  0.33702500  1
  C  79  1  0.36727100  0.08117000  0.82727800  1
  C  80  1  0.34989100  0.05993600  0.84502000  1
  C  81  1  0.31846200  0.03754300  0.83995100  1
  C  82  1  0.30203200  0.03811700  0.81701100  1
  C  83  1  0.32094000  0.05817600  0.79861000  1
  C  84  1  0.35481300  0.07836100  0.80348400  1
  C  87  1  0.39305400  0.10921900  0.83460600  1
  C  88  1  0.38174900  0.14713500  0.83728300  1
  C  89  1  0.40987500  0.17453000  0.84198000  1
  C  90  1  0.44861100  0.16428500  0.84416000  1
  C  91  1  0.45878500  0.12593300  0.84193500  1
  C  92  1  0.43107900  0.09906400  0.83698100  1
  C  105  1  0.36854100  0.07978900  0.43062400  1
  C  106  1  0.34737900  0.06334400  0.41246400  1
  C  107  1  0.32475000  0.03192300  0.41681800  1
  C  108  1  0.32485700  0.01467400  0.43948800  1
  C  109  1  0.34500500  0.03245600  0.45829500  1
  C  110  1  0.36553400  0.06620300  0.45414700  1
  C  113  1  0.39652400  0.10611800  0.42394100  1
  C  114  1  0.43497400  0.09564000  0.42144600  1
  C  115  1  0.46219000  0.12417200  0.41741000  1
  C  116  1  0.45125000  0.16249800  0.41564400  1
  C  117  1  0.41239000  0.17187300  0.41760600  1
  C  118  1  0.38569300  0.14376400  0.42195300  1
  C  131  1  0.20437200  0.92143800  0.93067800  1
  C  132  1  0.22552800  0.93786800  0.91250700  1
  C  133  1  0.24810200  0.96933400  0.91684700  1
  C  134  1  0.24800400  0.98659200  0.93951300  1
  C  135  1  0.22786100  0.96882100  0.95832700  1
  C  136  1  0.20732900  0.93507700  0.95418800  1
  C  139  1  0.17638600  0.89511400  0.92398700  1
  C  140  1  0.13793900  0.90559600  0.92148900  1
  C  141  1  0.11072000  0.87706300  0.91745300  1
  C  142  1  0.12165900  0.83873700  0.91568000  1
  C  143  1  0.16051700  0.82936800  0.91765200  1
  C  144  1  0.18722300  0.85747400  0.92198500  1
  C  157  1  0.36482100  0.91856300  0.17995500  1
  C  158  1  0.34831700  0.94002900  0.16199000  1
  C  159  1  0.31707400  0.96291500  0.16664500  1
  C  160  1  0.29992500  0.96263600  0.18938200  1
  C  161  1  0.31783600  0.94218200  0.20799600  1
  C  162  1  0.35157300  0.92152100  0.20357300  1
  C  165  1  0.39102900  0.89064900  0.17302300  1
  C  166  1  0.38022600  0.85254900  0.17056700  1
  C  167  1  0.40877700  0.82537700  0.16638100  1
  C  168  1  0.44743400  0.83602400  0.16446200  1
  C  169  1  0.45709400  0.87453700  0.16641400  1
  C  170  1  0.42898400  0.90119300  0.17088200  1
  C  183  1  0.20811100  0.08267600  0.67995400  1
  C  184  1  0.22463300  0.06126200  0.66197500  1
  C  185  1  0.25590100  0.03841000  0.66666667  1
  C  186  1  0.27300700  0.03860300  0.68936600  1
  C  187  1  0.25506700  0.05900600  0.70799300  1
  C  188  1  0.22132500  0.07966500  0.70357700  1
  C  191  1  0.18188500  0.11059300  0.67305100  1
  C  192  1  0.19267600  0.14869900  0.67062500  1
  C  193  1  0.16411100  0.17586600  0.66648300  1
  C  194  1  0.12544400  0.16522500  0.66461800  1
  C  195  1  0.11579100  0.12670600  0.66653200  1
  C  196  1  0.14392200  0.10004600  0.67094300  1
  C  209  1  0.86071500  0.91798000  0.93220900  1
  C  210  1  0.83976400  0.93515200  0.91422800  1
  C  211  1  0.81748100  0.96668200  0.91893600  1
  C  212  1  0.81784000  0.98335200  0.94177300  1
  C  213  1  0.83765900  0.96474700  0.96040200  1
  C  214  1  0.85775100  0.93086300  0.95588500  1
  C  217  1  0.88904400  0.89227200  0.92517600  1
  C  218  1  0.92724100  0.90350200  0.92246000  1
  C  219  1  0.95487300  0.87556600  0.91789200  1
  C  220  1  0.94457300  0.83710000  0.91584200  1
  C  221  1  0.90593500  0.82699200  0.91807200  1
  C  222  1  0.87883400  0.85450900  0.92291000  1
  C  235  1  0.71219700  0.08330000  0.43226600  1
  C  236  1  0.73314500  0.06613800  0.41427900  1
  C  237  1  0.75535200  0.03454900  0.41897400  1
  C  238  1  0.75498400  0.01786900  0.44180800  1
  C  239  1  0.73516800  0.03646900  0.46043800  1
  C  240  1  0.71508500  0.07035300  0.45592900  1
  C  243  1  0.68386700  0.10899500  0.42521200  1
  C  244  1  0.64568200  0.09775300  0.42245800  1
  C  245  1  0.61805000  0.12568100  0.41786400  1
  C  246  1  0.62834100  0.16415200  0.41581500  1
  C  247  1  0.66697100  0.17426300  0.41810200  1
  C  248  1  0.69407800  0.14675800  0.42295100  1
  C  261  1  0.87011000  0.08115600  0.68248200  1
  C  262  1  0.85334800  0.05968900  0.66461800  1
  C  263  1  0.82172000  0.03740600  0.66936800  1
  C  264  1  0.80441900  0.03839200  0.69204200  1
  C  265  1  0.82275200  0.05857300  0.71061500  1
  C  266  1  0.85681500  0.07865100  0.70610900  1
  C  269  1  0.89593300  0.10925500  0.67529600  1
  C  270  1  0.88460800  0.14716500  0.67260800  1
  C  271  1  0.91271200  0.17454700  0.66783400  1
  C  272  1  0.95140600  0.16426800  0.66544500  1
  C  273  1  0.96155100  0.12589500  0.66753700  1
  C  274  1  0.93390800  0.09905400  0.67268200  1
  C  287  1  0.70281800  0.92013800  0.18247800  1
  C  288  1  0.71958600  0.94156800  0.16460200  1
  C  289  1  0.75122500  0.96383500  0.16934300  1
  C  290  1  0.76849300  0.96292900  0.19202900  1
  C  291  1  0.75014300  0.94278100  0.21061300  1
  C  292  1  0.71608000  0.92269500  0.20611200  1
  C  295  1  0.67697600  0.89203500  0.17532800  1
  C  296  1  0.68828700  0.85411900  0.17266900  1
  C  297  1  0.66016900  0.82673800  0.16793400  1
  C  298  1  0.62146600  0.83700600  0.16559800  1
  C  299  1  0.61132900  0.87538700  0.16765900  1
  C  300  1  0.63899300  0.90223800  0.17274300  1
  C  313  1  0.70971900  0.92132900  0.57779700  1
  C  314  1  0.73070400  0.93769200  0.59606300  1
  C  315  1  0.75349200  0.96903300  0.59182700  1
  C  316  1  0.75374200  0.98628800  0.56915900  1
  C  317  1  0.73371300  0.96861200  0.55026600  1
  C  318  1  0.71304800  0.93491500  0.55429600  1
  C  321  1  0.68162500  0.89505200  0.58434300  1
  C  322  1  0.64318500  0.90558200  0.58679200  1
  C  323  1  0.61592900  0.87708300  0.59081700  1
  C  324  1  0.62681300  0.83873700  0.59255100  1
  C  325  1  0.66566700  0.82934000  0.59063400  1
  C  326  1  0.69242000  0.85740700  0.58634700  1
  C  339  1  0.86310000  0.07995800  0.07773100  1
  C  340  1  0.84212100  0.06361500  0.09600800  1
  C  341  1  0.81938600  0.03222500  0.09178900  1
  C  342  1  0.81913000  0.01495500  0.06912600  1
  C  343  1  0.83916000  0.03261700  0.05022700  1
  C  344  1  0.85982700  0.06631100  0.05424400  1
  C  347  1  0.89119900  0.10622900  0.08428300  1
  C  348  1  0.92963200  0.09568400  0.08675900  1
  C  349  1  0.95689300  0.12418000  0.09079600  1
  C  350  1  0.94601400  0.16252800  0.09252300  1
  C  351  1  0.90716900  0.17193000  0.09057000  1
  C  352  1  0.88040700  0.14387200  0.08628700  1
  C  365  1  0.70533300  0.08273100  0.82758600  1
  C  366  1  0.72108100  0.06102600  0.84570000  1
  C  367  1  0.75247200  0.03816800  0.84142700  1
  C  368  1  0.77053200  0.03869100  0.81897400  1
  C  369  1  0.75336900  0.05934900  0.80017500  1
  C  370  1  0.71950200  0.08001400  0.80416700  1
  C  373  1  0.67904900  0.11071700  0.83428100  1
  C  374  1  0.68985200  0.14882200  0.83670700  1
  C  375  1  0.66128400  0.17598800  0.84084800  1
  C  376  1  0.62264400  0.16533300  0.84283800  1
  C  377  1  0.61302300  0.12679500  0.84106700  1
  C  378  1  0.64111700  0.10014100  0.83655700  1
  C  391  1  0.86748600  0.91854300  0.32759200  1
  C  392  1  0.85171600  0.94019400  0.34572200  1
  C  393  1  0.82029600  0.96301500  0.34146500  1
  C  394  1  0.80228600  0.96258600  0.31899300  1
  C  395  1  0.81948400  0.94198400  0.30018100  1
  C  396  1  0.85335700  0.92131800  0.30416700  1
  C  399  1  0.89379200  0.89056000  0.33425600  1
  C  400  1  0.88300900  0.85244900  0.33665500  1
  C  401  1  0.91158800  0.82528800  0.34075900  1
  C  402  1  0.95024000  0.83594000  0.34269900  1
  C  403  1  0.95984600  0.87448700  0.34095300  1
  C  404  1  0.93172700  0.90114300  0.33650200  1
  C  417  1  0.71212100  0.58538600  0.57556400  1
  C  418  1  0.73324600  0.56870200  0.59364600  1
  C  419  1  0.75547300  0.53704300  0.58919800  1
  C  420  1  0.75491900  0.51977900  0.56654100  1
  C  421  1  0.73495700  0.53790200  0.54778200  1
  C  422  1  0.71488000  0.57188100  0.55201600  1
  C  425  1  0.68374700  0.61112700  0.58247500  1
  C  426  1  0.64555300  0.59989200  0.58518000  1
  C  427  1  0.61795700  0.62780200  0.58987500  1
  C  428  1  0.62828200  0.66622900  0.59214400  1
  C  429  1  0.66692800  0.67632300  0.58995600  1
  C  430  1  0.69399600  0.64885300  0.58492700  1
  C  443  1  0.86070900  0.41584700  0.07550400  1
  C  444  1  0.83958900  0.43252500  0.09359400  1
  C  445  1  0.81744400  0.46424200  0.08916000  1
  C  446  1  0.81800600  0.48152000  0.06650600  1
  C  447  1  0.83796300  0.46340000  0.04774500  1
  C  448  1  0.85803200  0.42941600  0.05197200  1
  C  451  1  0.88908300  0.39011900  0.08243900  1
  C  452  1  0.92726900  0.40136900  0.08518000  1
  C  453  1  0.95486700  0.37346300  0.08989600  1
  C  454  1  0.94454800  0.33503700  0.09216200  1
  C  455  1  0.90591000  0.32493400  0.08992300  1
  C  456  1  0.87884000  0.35239300  0.08488400  1
  C  469  1  0.70266400  0.42403100  0.82603900  1
  C  470  1  0.71941500  0.44545000  0.84392700  1
  C  471  1  0.75103400  0.46776100  0.83920400  1
  C  472  1  0.76832100  0.46686600  0.81652300  1
  C  473  1  0.74999100  0.44672700  0.79793200  1
  C  474  1  0.71594500  0.42661300  0.80241400  1
  C  477  1  0.67687700  0.39589200  0.83320000  1
  C  478  1  0.68823900  0.35799500  0.83589800  1
  C  479  1  0.66016000  0.33058900  0.84068300  1
  C  480  1  0.62145500  0.34083200  0.84305500  1
  C  481  1  0.61129300  0.37919900  0.84096100  1
  C  482  1  0.63890000  0.40606700  0.83581700  1
  C  495  1  0.87014100  0.57719800  0.32605200  1
  C  496  1  0.85338200  0.55581800  0.34395100  1
  C  497  1  0.82175400  0.53352400  0.33923300  1
  C  498  1  0.80450300  0.53433800  0.31654100  1
  C  499  1  0.82285300  0.55444400  0.29794100  1
  C  500  1  0.85689900  0.57456600  0.30242000  1
  C  503  1  0.89595000  0.60534000  0.33318200  1
  C  504  1  0.88460200  0.64324500  0.33585000  1
  C  505  1  0.91269000  0.67064900  0.34060900  1
  C  506  1  0.95139700  0.66040300  0.34295700  1
  C  507  1  0.96155400  0.62202700  0.34089700  1
  C  508  1  0.93392700  0.59515900  0.33579000  1
  C  521  1  0.86315900  0.58195800  0.93166500  1
  C  522  1  0.84206500  0.56608600  0.91327700  1
  C  523  1  0.81940300  0.53456100  0.91721600  1
  C  524  1  0.81938600  0.51663600  0.93967200  1
  C  525  1  0.83946900  0.53383900  0.95871900  1
  C  526  1  0.86003200  0.56769200  0.95501400  1
  C  529  1  0.89128000  0.60831300  0.92528300  1
  C  530  1  0.92972400  0.59779500  0.92283100  1
  C  531  1  0.95693500  0.62629400  0.91869900  1
  C  532  1  0.94600900  0.66460000  0.91677300  1
  C  533  1  0.90715200  0.67397500  0.91867600  1
  C  534  1  0.88044100  0.64592800  0.92313100  1
  C  547  1  0.70976400  0.41926800  0.43173500  1
  C  548  1  0.73085200  0.43512400  0.41333600  1
  C  549  1  0.75345300  0.46669600  0.41725600  1
  C  550  1  0.75347800  0.48463500  0.43970900  1
  C  551  1  0.73339800  0.46744600  0.45876100  1
  C  552  1  0.71283200  0.43359600  0.45507000  1
  C  555  1  0.68163700  0.39292200  0.42534500  1
  C  556  1  0.64319900  0.40345400  0.42286600  1
  C  557  1  0.61598800  0.37495800  0.41872500  1
  C  558  1  0.62690300  0.33664900  0.41680900  1
  C  559  1  0.66575700  0.32727100  0.41874500  1
  C  560  1  0.69247300  0.35530700  0.42319600  1
  C  573  1  0.86762600  0.42244200  0.68109400  1
  C  574  1  0.85190700  0.44409200  0.66294800  1
  C  575  1  0.82051500  0.46696400  0.66718000  1
  C  576  1  0.80242100  0.46650400  0.68962100  1
  C  577  1  0.81956800  0.44591000  0.70845200  1
  C  578  1  0.85344100  0.42523300  0.70450200  1
  C  581  1  0.89388500  0.39442200  0.67443400  1
  C  582  1  0.88305100  0.35633000  0.67198100  1
  C  583  1  0.91159700  0.32914800  0.66782500  1
  C  584  1  0.95024800  0.33977200  0.66585600  1
  C  585  1  0.95988500  0.37830200  0.66764700  1
  C  586  1  0.93182000  0.40497700  0.67216500  1
  C  599  1  0.70531000  0.57880700  0.18108700  1
  C  600  1  0.72105300  0.55721300  0.16292500  1
  C  601  1  0.75247200  0.53437700  0.16714300  1
  C  602  1  0.77051300  0.53474000  0.18960300  1
  C  603  1  0.75332900  0.55527700  0.20844600  1
  C  604  1  0.71945700  0.57595700  0.20450300  1
  C  607  1  0.67902900  0.60682400  0.17445600  1
  C  608  1  0.68984600  0.64492400  0.17203600  1
  C  609  1  0.66129000  0.67210100  0.16790200  1
  C  610  1  0.62263500  0.66146900  0.16595400  1
  C  611  1  0.61300900  0.62293100  0.16771800  1
  C  612  1  0.64109400  0.59626100  0.17219900  1
  C  625  1  0.36616400  0.41605000  0.43285300  1
  C  626  1  0.34496200  0.43282900  0.41483700  1
  C  627  1  0.32294100  0.46461000  0.41934700  1
  C  628  1  0.32377500  0.48188300  0.44200100  1
  C  629  1  0.34378800  0.46367300  0.46070500  1
  C  630  1  0.36368800  0.42960800  0.45640500  1
  C  633  1  0.39442000  0.39022000  0.42585500  1
  C  634  1  0.43263300  0.40138200  0.42312700  1
  C  635  1  0.46018400  0.37341000  0.41847800  1
  C  636  1  0.44978900  0.33500400  0.41620400  1
  C  637  1  0.41112600  0.32496200  0.41839000  1
  C  638  1  0.38411400  0.35249600  0.42342900  1
  C  651  1  0.20675100  0.58523200  0.93290800  1
  C  652  1  0.22795000  0.56846200  0.91488500  1
  C  653  1  0.24989500  0.53662200  0.91938100  1
  C  654  1  0.24905200  0.51933900  0.94203100  1
  C  655  1  0.22904100  0.53754200  0.96073700  1
  C  656  1  0.20914700  0.57161000  0.95644600  1
  C  659  1  0.17849300  0.61104600  0.92588700  1
  C  660  1  0.14029000  0.59986900  0.92312800  1
  C  661  1  0.11273700  0.62783300  0.91845900  1
  C  662  1  0.12312400  0.66624300  0.91618300  1
  C  663  1  0.16177900  0.67629300  0.91841500  1
  C  664  1  0.18879400  0.64877200  0.92346500  1
  C  677  1  0.36738300  0.57734300  0.18142400  1
  C  678  1  0.35001400  0.55612200  0.16367200  1
  C  679  1  0.31860800  0.53368000  0.16872600  1
  C  680  1  0.30216700  0.53424100  0.19166100  1
  C  681  1  0.32106100  0.55429000  0.21006900  1
  C  682  1  0.35491700  0.57450200  0.20521000  1
  C  685  1  0.39311900  0.60541900  0.17408400  1
  C  686  1  0.38178500  0.64332600  0.17138300  1
  C  687  1  0.40988100  0.67072100  0.16660600  1
  C  688  1  0.44860300  0.66047000  0.16433300  1
  C  689  1  0.45878800  0.62212800  0.16658200  1
  C  690  1  0.43112400  0.59526300  0.17162600  1
  C  703  1  0.20553500  0.42395300  0.68141600  1
  C  704  1  0.22291100  0.44514100  0.66365400  1
  C  705  1  0.25432800  0.46756300  0.66870300  1
  C  706  1  0.27073600  0.46708100  0.69165000  1
  C  707  1  0.25182400  0.44706200  0.71006400  1
  C  708  1  0.21796700  0.42683900  0.70520800  1
  C  711  1  0.17978700  0.39587200  0.67410400  1
  C  712  1  0.19111400  0.35796200  0.67142700  1
  C  713  1  0.16301600  0.33055900  0.66666667  1
  C  714  1  0.12428300  0.34079800  0.66445800  1
  C  715  1  0.11409600  0.37914400  0.66666667  1
  C  716  1  0.14177200  0.40602000  0.67168100  1
  C  729  1  0.20430700  0.41945000  0.07715200  1
  C  730  1  0.22557300  0.43541400  0.09543500  1
  C  731  1  0.24807600  0.46701400  0.09137900  1
  C  732  1  0.24775300  0.48492200  0.06891800  1
  C  733  1  0.22755600  0.46760800  0.04995700  1
  C  734  1  0.20712400  0.43370700  0.05377800  1
  C  737  1  0.17629700  0.39303900  0.08366700  1
  C  738  1  0.13784600  0.40350200  0.08616700  1
  C  739  1  0.11067600  0.37496600  0.09029900  1
  C  740  1  0.12165900  0.33668000  0.09224800  1
  C  741  1  0.16052400  0.32733200  0.09030700  1
  C  742  1  0.18717900  0.35542400  0.08580100  1
  C  755  1  0.36851300  0.58183600  0.57708900  1
  C  756  1  0.34725000  0.56589100  0.59538000  1
  C  757  1  0.32480400  0.53424300  0.59134200  1
  C  758  1  0.32512400  0.51631900  0.56888600  1
  C  759  1  0.34531900  0.53361900  0.54991900  1
  C  760  1  0.36575900  0.56751600  0.55373100  1
  C  763  1  0.39653000  0.60823500  0.58361500  1
  C  764  1  0.43497400  0.59775800  0.58614000  1
  C  765  1  0.46214800  0.62628800  0.59028200  1
  C  766  1  0.45117400  0.66458100  0.59223000  1
  C  767  1  0.41231100  0.67393100  0.59025800  1
  C  768  1  0.38565100  0.64585000  0.58575000  1
  C  781  1  0.20799300  0.57884100  0.32861100  1
  C  782  1  0.22447700  0.55742700  0.34660300  1
  C  783  1  0.25571500  0.53452500  0.34198100  1
  C  784  1  0.27289000  0.53474500  0.31925300  1
  C  785  1  0.25498400  0.55513500  0.30061200  1
  C  786  1  0.22124500  0.57581000  0.30500000  1
  C  789  1  0.18181300  0.60678800  0.33551800  1
  C  790  1  0.19263600  0.64487900  0.33797800  1
  C  791  1  0.16410500  0.67204800  0.34222100  1
  C  792  1  0.12545300  0.66140400  0.34419200  1
  C  793  1  0.11578100  0.62290000  0.34223200  1
  C  794  1  0.14386700  0.59624400  0.33771100  1
  C  807  1  0.36482600  0.42243600  0.82861300  1
  C  808  1  0.34832300  0.44379900  0.84662000  1
  C  809  1  0.31705800  0.46666500  0.84201100  1
  C  810  1  0.29992700  0.46653700  0.81926900  1
  C  811  1  0.31786400  0.44619700  0.80061600  1
  C  812  1  0.35160700  0.42552300  0.80499700  1
  C  815  1  0.39102300  0.39448900  0.83549100  1
  C  816  1  0.38020900  0.35639200  0.83792700  1
  C  817  1  0.40874600  0.32922000  0.84213100  1
  C  818  1  0.44740900  0.33985600  0.84404700  1
  C  819  1  0.45708000  0.37836600  0.84210500  1
  C  820  1  0.42897500  0.40503000  0.83764100  1
  C  833  1  0.17288800  0.28974800  0.08983600  1
  C  834  1  0.17483900  0.27036700  0.06818400  1
  C  835  1  0.17509500  0.23116800  0.06830200  1
  C  836  1  0.17340400  0.21204100  0.09005400  1
  C  841  1  0.39996600  0.71152000  0.58980200  1
  C  842  1  0.39803000  0.73091800  0.56815500  1
  C  843  1  0.39777500  0.77011600  0.56828500  1
  C  844  1  0.39944900  0.78919900  0.59005300  1
  C  849  1  0.99774200  0.88660300  0.34066900  1
  C  850  1  0.01747200  0.88870000  0.31910100  1
  C  851  1  0.05695600  0.88879800  0.31938700  1
  C  852  1  0.07600400  0.88682000  0.34121100  1
  C  857  1  0.57512500  0.11469300  0.84075200  1
  C  858  1  0.55546600  0.11259100  0.81915100  1
  C  859  1  0.51598000  0.11245100  0.81935900  1
  C  860  1  0.49686100  0.11441100  0.84115100  1
  C  865  1  0.39943200  0.28715500  0.41877100  1
  C  866  1  0.39774100  0.26765900  0.44039200  1
  C  867  1  0.39807800  0.22846200  0.44021600  1
  C  868  1  0.40008700  0.20945400  0.41843400  1
  C  873  1  0.17345200  0.71410300  0.91879100  1
  C  874  1  0.17513600  0.73360000  0.94041200  1
  C  875  1  0.17480800  0.77279900  0.94023700  1
  C  876  1  0.17281200  0.79177800  0.91844700  1
  C  881  1  0.57326800  0.88701800  0.16788100  1
  C  882  1  0.55346600  0.88892300  0.18943300  1
  C  883  1  0.51398200  0.88866700  0.18911900  1
  C  884  1  0.49500300  0.88653000  0.16727900  1
  C  889  1  0.99961500  0.11427600  0.66779800  1
  C  890  1  0.01933300  0.11235700  0.68938800  1
  C  891  1  0.05881700  0.11257000  0.68916300  1
  C  892  1  0.07788300  0.11469200  0.66736100  1
  C  897  1  0.89480400  0.71154300  0.91911400  1
  C  898  1  0.89281200  0.73094000  0.94075800  1
  C  899  1  0.89257900  0.77013300  0.94061300  1
  C  900  1  0.89433500  0.78920100  0.91884400  1
  C  905  1  0.67808500  0.28969800  0.41916800  1
  C  906  1  0.68004400  0.27027800  0.44080500  1
  C  907  1  0.68028000  0.23108600  0.44064600  1
  C  908  1  0.67855200  0.21206700  0.41885900  1
  C  913  1  0.67858300  0.71411900  0.58956000  1
  C  914  1  0.68035300  0.73355800  0.56792200  1
  C  915  1  0.68003000  0.77274900  0.56807000  1
  C  916  1  0.67795900  0.79177500  0.58984100  1
  C  921  1  0.89427800  0.28713200  0.08952600  1
  C  922  1  0.89253100  0.26769600  0.06788500  1
  C  923  1  0.89284500  0.22850600  0.06802900  1
  C  924  1  0.89489100  0.20950600  0.08980800  1
  C  929  1  0.49498900  0.39037600  0.84130300  1
  C  930  1  0.51390900  0.39251800  0.81944700  1
  C  931  1  0.55338700  0.39271600  0.81914700  1
  C  932  1  0.57323700  0.39078900  0.84068700  1
  C  937  1  0.07787200  0.61089300  0.34140900  1
  C  938  1  0.05901000  0.60874800  0.31953000  1
  C  939  1  0.01953200  0.60851400  0.31916400  1
  C  940  1  0.99960300  0.61041800  0.34067200  1
  C  945  1  0.07601900  0.39066600  0.66744000  1
  C  946  1  0.05702700  0.39264300  0.68927800  1
  C  947  1  0.01754600  0.39248700  0.68954700  1
  C  948  1  0.99777300  0.39037900  0.66799100  1
  C  953  1  0.49686100  0.61060500  0.16735300  1
  C  954  1  0.51580000  0.60863100  0.18921400  1
  C  955  1  0.55528100  0.60875400  0.18954300  1
  C  956  1  0.57513000  0.61083400  0.16801400  1
  C  961  1  0.99579500  0.11526200  0.09023900  1
  C  962  1  0.01522400  0.11399000  0.06854000  1
  C  963  1  0.05469100  0.11450800  0.06859900  1
  C  964  1  0.07397300  0.11625600  0.09034400  1
  C  969  1  0.57702100  0.88599200  0.59024200  1
  C  970  1  0.55762100  0.88725500  0.56853300  1
  C  971  1  0.51815500  0.88673700  0.56857000  1
  C  972  1  0.49886400  0.88497700  0.59030700  1
  C  977  1  0.17324100  0.71063100  0.34151600  1
  C  978  1  0.17424500  0.72977400  0.31975800  1
  C  979  1  0.17388200  0.76895100  0.31971000  1
  C  980  1  0.17253600  0.78821400  0.34141800  1
  C  985  1  0.39961800  0.29064000  0.84145200  1
  C  986  1  0.39856400  0.27148200  0.81969800  1
  C  987  1  0.39892600  0.23230700  0.81965200  1
  C  988  1  0.40031700  0.21301500  0.84135100  1
  C  993  1  0.57928300  0.11613600  0.41834700  1
  C  994  1  0.55979800  0.11446700  0.44001800  1
  C  995  1  0.52032900  0.11405900  0.43990000  1
  C  996  1  0.50110000  0.11531300  0.41812300  1
  C  1001  1  0.99364000  0.88510600  0.91839200  1
  C  1002  1  0.01310400  0.88679800  0.94006900  1
  C  1003  1  0.05257200  0.88720800  0.93997200  1
  C  1004  1  0.07180700  0.88591400  0.91820500  1
  C  1009  1  0.40030900  0.70921200  0.16720600  1
  C  1010  1  0.39896600  0.72846900  0.18891800  1
  C  1011  1  0.39862900  0.76764600  0.18887500  1
  C  1012  1  0.39964900  0.78679800  0.16712300  1
  C  1017  1  0.17258500  0.29206800  0.66726900  1
  C  1018  1  0.17397900  0.27281300  0.68898000  1
  C  1019  1  0.17430800  0.23363700  0.68894600  1
  C  1020  1  0.17323100  0.21444200  0.66720900  1
  C  1025  1  0.90243200  0.29058500  0.66847800  1
  C  1026  1  0.90129700  0.27139300  0.69021400  1
  C  1027  1  0.90167300  0.23222000  0.69021900  1
  C  1028  1  0.90315900  0.21302800  0.66849100  1
  C  1033  1  0.67043500  0.71066400  0.16854000  1
  C  1034  1  0.67161500  0.72985500  0.19027700  1
  C  1035  1  0.67124100  0.76902900  0.19029000  1
  C  1036  1  0.66971600  0.78826400  0.16857600  1
  C  1041  1  0.66975500  0.29211600  0.84008300  1
  C  1042  1  0.67123000  0.27289300  0.81836300  1
  C  1043  1  0.67157000  0.23371900  0.81839000  1
  C  1044  1  0.67041500  0.21455800  0.84013400  1
  C  1049  1  0.90311500  0.70912200  0.34002400  1
  C  1050  1  0.90160000  0.72834900  0.31830600  1
  C  1051  1  0.90127100  0.76752000  0.31832600  1
  C  1052  1  0.90247100  0.78672500  0.34005600  1
  C  1057  1  0.50106100  0.61748200  0.58951300  1
  C  1058  1  0.52023900  0.61659000  0.56771900  1
  C  1059  1  0.55970300  0.61701900  0.56760600  1
  C  1060  1  0.57919600  0.61831300  0.58928000  1
  C  1065  1  0.07176200  0.38376400  0.08952700  1
  C  1066  1  0.05258100  0.38465100  0.06773400  1
  C  1067  1  0.01311800  0.38423300  0.06762400  1
  C  1068  1  0.99362300  0.38295800  0.08930000  1
  C  1073  1  0.07396400  0.61840500  0.91917900  1
  C  1074  1  0.05476100  0.61706600  0.94095800  1
  C  1075  1  0.01529900  0.61658100  0.94104100  1
  C  1076  1  0.99583100  0.61744300  0.91934900  1
  C  1081  1  0.49895900  0.38283300  0.41920000  1
  C  1082  1  0.51816000  0.38419400  0.44097800  1
  C  1083  1  0.55762100  0.38469000  0.44106100  1
  C  1084  1  0.57709200  0.38381700  0.41937000  1
  C  1089  1  0.22642900  0.98583100  0.98106200  1
  C  1090  1  0.19208800  0.99539000  0.99199700  1
  C  1091  1  0.19245200  0.01111400  0.01468000  1
  C  1092  1  0.22718000  0.01967700  0.02547100  1
  C  1097  1  0.34645200  0.01545500  0.48103300  1
  C  1098  1  0.38080200  0.00597300  0.49198600  1
  C  1099  1  0.38045100  0.99025400  0.51467000  1
  C  1100  1  0.34573000  0.98161800  0.52544600  1
  C  1105  1  0.30103200  0.94061500  0.23083200  1
  C  1106  1  0.29173200  0.90644900  0.24178600  1
  C  1107  1  0.27655300  0.90664400  0.26464500  1
  C  1108  1  0.26807600  0.94102200  0.27559400  1
  C  1113  1  0.27186800  0.06056000  0.73082900  1
  C  1114  1  0.28115100  0.09472300  0.74179000  1
  C  1115  1  0.29632600  0.09452600  0.76464700  1
  C  1116  1  0.30479100  0.06014400  0.77560000  1
  C  1121  1  0.84052500  0.01545600  0.02754500  1
  C  1122  1  0.87486700  0.00582400  0.01663800  1
  C  1123  1  0.87450200  0.98998600  0.99399400  1
  C  1124  1  0.83976900  0.98135300  0.98323200  1
  C  1129  1  0.73233300  0.98575600  0.52757900  1
  C  1130  1  0.69798300  0.99530700  0.51665100  1
  C  1131  1  0.69834000  0.01114200  0.49400800  1
  C  1132  1  0.73306600  0.01985200  0.48326300  1
  C  1137  1  0.77102700  0.06100400  0.77760200  1
  C  1138  1  0.78087700  0.09517300  0.76684500  1
  C  1139  1  0.79704100  0.09499500  0.74425300  1
  C  1140  1  0.80587700  0.06061600  0.73341500  1
  C  1145  1  0.80183400  0.94034400  0.27760700  1
  C  1146  1  0.79200100  0.90617900  0.26684300  1
  C  1147  1  0.77584300  0.90636000  0.24424900  1
  C  1148  1  0.76702000  0.94074300  0.23341000  1
  C  1153  1  0.73198500  0.48520400  0.48125800  1
  C  1154  1  0.69764900  0.49512000  0.49206900  1
  C  1155  1  0.69803600  0.51170300  0.51450200  1
  C  1156  1  0.73277700  0.52073000  0.52512300  1
  C  1161  1  0.84089600  0.51609800  0.98122100  1
  C  1162  1  0.87524300  0.50626300  0.99205200  1
  C  1163  1  0.87486700  0.48968200  0.01448700  1
  C  1164  1  0.84013500  0.48058000  0.02509100  1
  C  1169  1  0.80185700  0.44427900  0.73100300  1
  C  1170  1  0.79200100  0.41011100  0.74175800  1
  C  1171  1  0.77578100  0.41030300  0.76433300  1
  C  1172  1  0.76689700  0.44468900  0.77514600  1
  C  1177  1  0.77103200  0.55689200  0.23100000  1
  C  1178  1  0.78087200  0.59105700  0.24176300  1
  C  1179  1  0.79708600  0.59086200  0.26433900  1
  C  1180  1  0.80595600  0.55647400  0.27515300  1
  C  1185  1  0.34680300  0.51600600  0.52736900  1
  C  1186  1  0.38113900  0.50615100  0.51653300  1
  C  1187  1  0.38075700  0.48969100  0.49405700  1
  C  1188  1  0.34602200  0.48074500  0.48340100  1
  C  1193  1  0.22606300  0.48520700  0.02740000  1
  C  1194  1  0.19171700  0.49497800  0.01654400  1
  C  1195  1  0.19208700  0.51143600  0.99406600  1
  C  1196  1  0.22681700  0.52046000  0.98343000  1
  C  1201  1  0.27183300  0.55668600  0.27779400  1
  C  1202  1  0.28113700  0.59084800  0.26684000  1
  C  1203  1  0.29636800  0.59064500  0.24399900  1
  C  1204  1  0.30488900  0.55625600  0.23307100  1
  C  1209  1  0.30102000  0.44466400  0.77779600  1
  C  1210  1  0.29173200  0.41050400  0.76683500  1
  C  1211  1  0.27650200  0.41071000  0.74399400  1
  C  1212  1  0.26799300  0.44509900  0.73306600  1
  C  1217  1  0.30177300  0.98217000  0.14714900  1
  C  1218  1  0.31889500  0.01438100  0.13775600  1
  C  1219  1  0.30176500  0.03258700  0.11860700  1
  C  1220  1  0.26821000  0.01782800  0.10924400  1
  C  1225  1  0.27119000  0.01912900  0.64712900  1
  C  1226  1  0.25408900  0.98688500  0.63776700  1
  C  1227  1  0.27120700  0.96867000  0.61861700  1
  C  1228  1  0.30472600  0.98345500  0.60922000  1
  C  1233  1  0.30593700  0.01659700  0.39714500  1
  C  1234  1  0.27313300  0.03290200  0.38775000  1
  C  1235  1  0.25516100  0.01549700  0.36860800  1
  C  1236  1  0.27073000  0.98249900  0.35925500  1
  C  1241  1  0.26690000  0.98465700  0.89716600  1
  C  1242  1  0.29967500  0.96832700  0.88774600  1
  C  1243  1  0.31763600  0.98573100  0.86859900  1
  C  1244  1  0.30208200  0.01875200  0.85926700  1
  C  1249  1  0.76711000  0.01888300  0.86109700  1
  C  1250  1  0.74976900  0.98658700  0.87020800  1
  C  1251  1  0.76634600  0.96833300  0.88953000  1
  C  1252  1  0.79955300  0.98315700  0.89933100  1
  C  1257  1  0.80567200  0.98233100  0.36112300  1
  C  1258  1  0.82299000  0.01466100  0.37020200  1
  C  1259  1  0.80642800  0.03292200  0.38952600  1
  C  1260  1  0.77326300  0.01807000  0.39936400  1
  C  1265  1  0.77184200  0.98443400  0.61164400  1
  C  1266  1  0.80394700  0.96775000  0.62170700  1
  C  1267  1  0.82136400  0.98518400  0.64103800  1
  C  1268  1  0.80591600  0.01857000  0.64989800  1
  C  1273  1  0.80105600  0.01682900  0.11161500  1
  C  1274  1  0.76898700  0.03353600  0.12170700  1
  C  1275  1  0.75158700  0.01610300  0.14104400  1
  C  1276  1  0.76701800  0.98269400  0.14988100  1
  C  1281  1  0.80581000  0.48601800  0.64744900  1
  C  1282  1  0.82306900  0.51823100  0.63816300  1
  C  1283  1  0.80649200  0.53611700  0.61870500  1
  C  1284  1  0.77339800  0.52099200  0.60893900  1
  C  1289  1  0.76716900  0.51529000  0.14742400  1
  C  1290  1  0.74992100  0.48304500  0.13816800  1
  C  1291  1  0.76647800  0.46515400  0.11870600  1
  C  1292  1  0.79953900  0.48030100  0.10890800  1
  C  1297  1  0.80104700  0.51963700  0.89726400  1
  C  1298  1  0.76877400  0.53639100  0.88746900  1
  C  1299  1  0.75133400  0.51936600  0.86800200  1
  C  1300  1  0.76695000  0.48633000  0.85873600  1
  C  1305  1  0.77178500  0.48162000  0.39729500  1
  C  1306  1  0.80402600  0.46484500  0.38747100  1
  C  1307  1  0.82144800  0.48187100  0.36799700  1
  C  1308  1  0.80584300  0.51492700  0.35875500  1
  C  1313  1  0.27108900  0.51549000  0.36153100  1
  C  1314  1  0.25404400  0.48336300  0.37109400  1
  C  1315  1  0.27116900  0.46551900  0.39037900  1
  C  1316  1  0.30461700  0.48056600  0.39970700  1
  C  1321  1  0.30169500  0.48572800  0.86155200  1
  C  1322  1  0.31872400  0.51788600  0.87108500  1
  C  1323  1  0.30161300  0.53573500  0.89037400  1
  C  1324  1  0.26819900  0.52066000  0.89973600  1
  C  1329  1  0.26688900  0.48187100  0.11118800  1
  C  1330  1  0.29982300  0.46548600  0.12034200  1
  C  1331  1  0.31781300  0.48249600  0.13961900  1
  C  1332  1  0.30211300  0.51516100  0.14934600  1
  C  1337  1  0.30600700  0.51938900  0.61115800  1
  C  1338  1  0.27310600  0.53579900  0.62034200  1
  C  1339  1  0.25513100  0.51879500  0.63962500  1
  C  1340  1  0.27081700  0.48610700  0.64933100  1
  N  8  1  0.26680500  0.98394600  0.06346100  1
  N  15  1  0.09641500  0.19126800  0.09623700  1
  N  17  1  0.19338800  0.09073700  0.03521600  1
  N  18  1  0.13045300  0.06092200  0.08477900  1
  N  34  1  0.30612500  0.01734400  0.56343500  1
  N  41  1  0.47642100  0.80998200  0.59625900  1
  N  43  1  0.37951800  0.91054600  0.53518600  1
  N  44  1  0.44238300  0.94032200  0.58475900  1
  N  60  1  0.30437200  0.98088100  0.31330200  1
  N  67  1  0.09700300  0.81046400  0.34763300  1
  N  69  1  0.19706300  0.90672500  0.28596400  1
  N  70  1  0.22816800  0.84433400  0.33541600  1
  N  86  1  0.26848700  0.02028900  0.81331000  1
  N  93  1  0.47586700  0.19078800  0.84745700  1
  N  95  1  0.37580600  0.09445200  0.78596400  1
  N  96  1  0.34467000  0.15689500  0.83540100  1
  N  112  1  0.30640600  0.98149200  0.44260800  1
  N  119  1  0.47755000  0.19009200  0.41293400  1
  N  121  1  0.38174000  0.08604600  0.47212700  1
  N  122  1  0.44540300  0.05895100  0.42288200  1
  N  138  1  0.26645600  0.01977500  0.94263000  1
  N  145  1  0.09535700  0.81114500  0.91297300  1
  N  147  1  0.19113700  0.91523300  0.97216800  1
  N  148  1  0.12751200  0.94228500  0.92293200  1
  N  164  1  0.26672100  0.98123600  0.19274200  1
  N  171  1  0.47507500  0.80977800  0.16164100  1
  N  173  1  0.37178300  0.90523100  0.22138000  1
  N  174  1  0.34322300  0.84241000  0.17220500  1
  N  190  1  0.30620100  0.01998200  0.69272700  1
  N  197  1  0.09778600  0.19147300  0.66187100  1
  N  199  1  0.20110300  0.09594000  0.72138900  1
  N  200  1  0.22967900  0.15883800  0.67223000  1
  N  216  1  0.80007000  0.01683300  0.94516400  1
  N  223  1  0.97130100  0.81004300  0.91265200  1
  N  225  1  0.87370400  0.91032800  0.97363500  1
  N  226  1  0.93705200  0.94033000  0.92418500  1
  N  242  1  0.77275200  0.98438400  0.44519700  1
  N  249  1  0.60161400  0.19120000  0.41259300  1
  N  251  1  0.69913200  0.09088800  0.47367400  1
  N  252  1  0.63588000  0.06092200  0.42417900  1
  N  268  1  0.77059700  0.02086700  0.69530800  1
  N  275  1  0.97865600  0.19075200  0.66207200  1
  N  277  1  0.87724900  0.09490900  0.72381700  1
  N  278  1  0.84753500  0.15693800  0.67452400  1
  N  294  1  0.80229800  0.98048800  0.19529700  1
  N  301  1  0.59419600  0.81051700  0.16229700  1
  N  303  1  0.69564000  0.90644900  0.22382500  1
  N  304  1  0.72536500  0.84434800  0.17455100  1
  N  320  1  0.77243400  0.01935800  0.56612200  1
  N  327  1  0.60048100  0.81115600  0.59518900  1
  N  329  1  0.69700000  0.91514100  0.53622900  1
  N  330  1  0.63280900  0.94228200  0.58532600  1
  N  346  1  0.80042900  0.98188800  0.06609500  1
  N  353  1  0.97235100  0.19010700  0.09516800  1
  N  355  1  0.87586400  0.08608000  0.03617800  1
  N  356  1  0.93999900  0.05898200  0.08530000  1
  N  372  1  0.80386800  0.02012800  0.81606400  1
  N  379  1  0.59497500  0.19157200  0.84558200  1
  N  381  1  0.70000900  0.09654900  0.78613900  1
  N  382  1  0.72686000  0.15896500  0.83513700  1
  N  398  1  0.76896200  0.98117100  0.31608200  1
  N  405  1  0.97792600  0.80970300  0.34538000  1
  N  407  1  0.87286400  0.90480400  0.28613400  1
  N  408  1  0.84599800  0.84229800  0.33511600  1
  N  424  1  0.77265100  0.48620200  0.56344900  1
  N  431  1  0.60158000  0.69325300  0.59552100  1
  N  433  1  0.69873000  0.59194700  0.53412400  1
  N  434  1  0.63570500  0.56308000  0.58337200  1
  N  450  1  0.80028000  0.51510000  0.06341700  1
  N  457  1  0.97125300  0.30802100  0.09556700  1
  N  459  1  0.87418100  0.40935200  0.03408500  1
  N  460  1  0.93710800  0.43818300  0.08337700  1
  N  476  1  0.80211500  0.48445100  0.81326900  1
  N  483  1  0.59421900  0.31432900  0.84641000  1
  N  485  1  0.69552700  0.41038100  0.78469000  1
  N  486  1  0.72532300  0.34826000  0.83398300  1
  N  502  1  0.77072900  0.51672000  0.31327900  1
  N  509  1  0.97865300  0.68690300  0.34626600  1
  N  511  1  0.87733100  0.59079000  0.28469300  1
  N  512  1  0.84751800  0.65298900  0.33395000  1
  N  528  1  0.80087000  0.48339100  0.94236000  1
  N  535  1  0.97230600  0.69216800  0.91394100  1
  N  537  1  0.87618200  0.58699700  0.97324300  1
  N  538  1  0.94015600  0.56111400  0.92435100  1
  N  554  1  0.77199600  0.51788000  0.44238900  1
  N  561  1  0.60059900  0.30908400  0.41397200  1
  N  563  1  0.69669100  0.41429600  0.47330000  1
  N  564  1  0.63278100  0.44013800  0.42437500  1
  N  580  1  0.76906600  0.48505300  0.69248100  1
  N  587  1  0.97790300  0.31351800  0.66311600  1
  N  589  1  0.87290900  0.40874400  0.72255800  1
  N  590  1  0.84603200  0.34621900  0.67354200  1
  N  606  1  0.80385400  0.51616500  0.19246700  1
  N  613  1  0.59496300  0.68771500  0.16325100  1
  N  615  1  0.69996900  0.59242100  0.22256300  1
  N  616  1  0.72686000  0.65504700  0.17358200  1
  N  632  1  0.30624300  0.51554900  0.44514900  1
  N  639  1  0.47645700  0.30794900  0.41281900  1
  N  641  1  0.37992000  0.40948600  0.47424400  1
  N  642  1  0.44255100  0.43818300  0.42487500  1
  N  658  1  0.26658100  0.48566900  0.94517800  1
  N  665  1  0.09645200  0.69328900  0.91277500  1
  N  667  1  0.19291700  0.59173000  0.97428000  1
  N  668  1  0.13038200  0.56306600  0.92487400  1
  N  684  1  0.26863100  0.51639400  0.19535200  1
  N  691  1  0.47583900  0.68696200  0.16093700  1
  N  693  1  0.37589600  0.59057200  0.22273800  1
  N  694  1  0.34471500  0.65307500  0.17334000  1
  N  710  1  0.30425400  0.48495800  0.69534200  1
  N  717  1  0.09703800  0.31429900  0.66111500  1
  N  719  1  0.19698100  0.41077400  0.72274000  1
  N  720  1  0.22819100  0.34821900  0.67335200  1
  N  736  1  0.26603700  0.51827300  0.06614700  1
  N  743  1  0.09539100  0.30909800  0.09513600  1
  N  745  1  0.19082000  0.41433000  0.03563400  1
  N  746  1  0.12736000  0.44017100  0.08468800  1
  N  762  1  0.30683600  0.48296700  0.56612100  1
  N  769  1  0.47744300  0.69215400  0.59512800  1
  N  771  1  0.38205500  0.58688900  0.53558800  1
  N  772  1  0.44544800  0.56108300  0.58466400  1
  N  788  1  0.30611400  0.51616000  0.31593500  1
  N  795  1  0.09782200  0.68764500  0.34706600  1
  N  797  1  0.20104600  0.59205600  0.28717200  1
  N  798  1  0.22963500  0.65500800  0.33629700  1
  N  814  1  0.26671700  0.48514800  0.81595000  1
  N  821  1  0.47505300  0.31361300  0.84686200  1
  N  823  1  0.37181700  0.40929400  0.78716200  1
  N  824  1  0.34320600  0.34626700  0.83628200  1
  N  837  1  0.17178000  0.23277300  0.11014800  1
  N  840  1  0.17151500  0.26930300  0.11004700  1
  N  845  1  0.40105300  0.76847400  0.61014700  1
  N  848  1  0.40132000  0.73194100  0.61002500  1
  N  853  1  0.05489900  0.88510000  0.36121100  1
  N  856  1  0.01810300  0.88495800  0.36096000  1
  N  861  1  0.51784600  0.11614700  0.86119600  1
  N  864  1  0.55464300  0.11631500  0.86100000  1
  N  869  1  0.40143800  0.23028300  0.39837400  1
  N  872  1  0.40112400  0.26681100  0.39852900  1
  N  877  1  0.17146800  0.77097300  0.89838000  1
  N  880  1  0.17177900  0.73444200  0.89854400  1
  N  885  1  0.51616300  0.88499400  0.14729700  1
  N  888  1  0.55295700  0.88522000  0.14757100  1
  N  893  1  0.05685500  0.11625400  0.64732700  1
  N  896  1  0.02005800  0.11605500  0.64753900  1
  N  901  1  0.89598400  0.76845700  0.89875900  1
  N  904  1  0.89623100  0.73193300  0.89888600  1
  N  909  1  0.67693600  0.23281000  0.39877800  1
  N  912  1  0.67668900  0.26933400  0.39892800  1
  N  917  1  0.67654000  0.77100300  0.60991900  1
  N  920  1  0.67684600  0.73448100  0.60979200  1
  N  925  1  0.89628400  0.23025000  0.10989500  1
  N  928  1  0.89598400  0.26677300  0.10976100  1
  N  933  1  0.55289000  0.38901200  0.86099300  1
  N  936  1  0.51609500  0.38881400  0.86129300  1
  N  941  1  0.01987300  0.61221200  0.36100600  1
  N  944  1  0.05666400  0.61243500  0.36135800  1
  N  949  1  0.01817900  0.38876100  0.64770500  1
  N  952  1  0.05497300  0.38892600  0.64742900  1
  N  957  1  0.55479700  0.61246500  0.14770200  1
  N  960  1  0.51800600  0.61232000  0.14738200  1
  N  965  1  0.05319600  0.11712600  0.11050300  1
  N  968  1  0.01638200  0.11669000  0.11045700  1
  N  973  1  0.51959900  0.88413800  0.61048600  1
  N  976  1  0.55641300  0.88457800  0.61045200  1
  N  981  1  0.17192300  0.76774900  0.36164500  1
  N  984  1  0.17223100  0.73120800  0.36168800  1
  N  989  1  0.40100600  0.23350800  0.86156600  1
  N  992  1  0.40069900  0.27004800  0.86161400  1
  N  997  1  0.52193300  0.11664100  0.39799800  1
  N  1000  1  0.55874800  0.11701200  0.39809500  1
  N  1005  1  0.05101500  0.88458400  0.89806200  1
  N  1008  1  0.01419900  0.88421600  0.89814600  1
  N  1013  1  0.40065200  0.76622900  0.14694500  1
  N  1016  1  0.40094100  0.72968500  0.14698400  1
  N  1021  1  0.17215300  0.23502600  0.64703700  1
  N  1024  1  0.17186900  0.27156600  0.64706200  1
  N  1029  1  0.90387000  0.23353800  0.64828400  1
  N  1032  1  0.90355800  0.27007600  0.64828200  1
  N  1037  1  0.66893700  0.76773800  0.14837600  1
  N  1040  1  0.66924400  0.73120200  0.14835900  1
  N  1045  1  0.66930500  0.23509200  0.86032200  1
  N  1048  1  0.66901600  0.27163100  0.86029900  1
  N  1053  1  0.90364000  0.76617100  0.36023600  1
  N  1056  1  0.90392400  0.72963500  0.36022600  1
  N  1061  1  0.55866900  0.61882000  0.60954400  1
  N  1064  1  0.52185500  0.61844700  0.60965600  1
  N  1069  1  0.01415600  0.38245400  0.10956500  1
  N  1072  1  0.05097000  0.38281900  0.10967300  1
  N  1077  1  0.01638400  0.61845500  0.89910200  1
  N  1080  1  0.05319600  0.61888200  0.89901500  1
  N  1085  1  0.55653900  0.38278000  0.39912200  1
  N  1088  1  0.51972800  0.38234800  0.39903800  1
  N  1093  1  0.25900600  0.01046700  0.01351300  1
  N  1096  1  0.25865100  0.99421300  0.99284100  1
  N  1101  1  0.31389400  0.99077200  0.51348000  1
  N  1104  1  0.31423700  0.00702100  0.49280900  1
  N  1109  1  0.27694500  0.97269700  0.26360300  1
  N  1112  1  0.29281600  0.97250200  0.24277900  1
  N  1117  1  0.29593500  0.02847200  0.76360200  1
  N  1120  1  0.28007600  0.02866900  0.74277200  1
  N  1125  1  0.80793900  0.99062500  0.99516500  1
  N  1128  1  0.80829300  0.00700900  0.01579200  1
  N  1133  1  0.76490500  0.01063800  0.49520500  1
  N  1136  1  0.76455600  0.99425500  0.51583300  1
  N  1141  1  0.79641200  0.02894200  0.74522100  1
  N  1144  1  0.77967200  0.02912700  0.76577000  1
  N  1149  1  0.77647500  0.97241500  0.24522200  1
  N  1152  1  0.79319700  0.97222600  0.26577700  1
  N  1157  1  0.76459300  0.51112900  0.51328200  1
  N  1160  1  0.76422200  0.49409600  0.49287100  1
  N  1165  1  0.80830700  0.49012300  0.01324100  1
  N  1168  1  0.80867000  0.50715300  0.99282700  1
  N  1173  1  0.77636500  0.47635800  0.76333900  1
  N  1176  1  0.79315800  0.47616300  0.74280700  1
  N  1181  1  0.79649900  0.52480400  0.26334200  1
  N  1184  1  0.77972300  0.52500200  0.24280300  1
  N  1189  1  0.31420900  0.49028700  0.49526500  1
  N  1192  1  0.31457400  0.50718600  0.51572200  1
  N  1197  1  0.25863900  0.51097600  0.99530200  1
  N  1200  1  0.25828200  0.49408300  0.01576300  1
  N  1205  1  0.29601900  0.52458700  0.24506300  1
  N  1208  1  0.28009800  0.52479000  0.26587200  1
  N  1213  1  0.27685400  0.47676800  0.74506200  1
  N  1216  1  0.29276000  0.47656200  0.76587600  1
  N  1221  1  0.25358200  0.98658400  0.11923000  1
  N  1224  1  0.26940800  0.96976900  0.13713300  1
  N  1229  1  0.31933600  0.01473100  0.61917800  1
  N  1232  1  0.30352400  0.03155100  0.63708200  1
  N  1237  1  0.30250400  0.96864000  0.36924900  1
  N  1240  1  0.31910000  0.98472100  0.38714600  1
  N  1245  1  0.27033900  0.03263200  0.86928400  1
  N  1248  1  0.25375300  0.01655100  0.88718500  1
  N  1253  1  0.81441500  0.01447900  0.88959200  1
  N  1256  1  0.79911200  0.03133400  0.87153400  1
  N  1261  1  0.75841700  0.98671800  0.38965100  1
  N  1264  1  0.77370400  0.96985500  0.37159000  1
  N  1269  1  0.77480600  0.03275900  0.63929800  1
  N  1272  1  0.75873800  0.01664300  0.62123200  1
  N  1277  1  0.79809700  0.96848300  0.13925600  1
  N  1280  1  0.81414900  0.98459900  0.12118400  1
  N  1285  1  0.75860300  0.48978300  0.61886600  1
  N  1288  1  0.77389800  0.47327400  0.63704900  1
  N  1293  1  0.81432600  0.51153600  0.11880800  1
  N  1296  1  0.79904700  0.52805000  0.13699500  1
  N  1301  1  0.79821300  0.47204700  0.86910600  1
  N  1304  1  0.81430300  0.48777800  0.88729800  1
  N  1309  1  0.77461200  0.52923000  0.36915100  1
  N  1312  1  0.75854100  0.51349900  0.38734900  1
  N  1317  1  0.31918200  0.51169500  0.38954000  1
  N  1320  1  0.30336600  0.52817000  0.37151400  1
  N  1325  1  0.25364800  0.48950700  0.88959300  1
  N  1328  1  0.26945000  0.47302600  0.87156400  1
  N  1333  1  0.27022500  0.52912100  0.13955900  1
  N  1336  1  0.25361000  0.51341600  0.12153900  1
  N  1341  1  0.30267500  0.47212300  0.63951900  1
  N  1344  1  0.31927400  0.48782800  0.62149300  1
