# generated using pymatgen
data_H36C53O4
_symmetry_space_group_name_H-M   'P 1'
_cell_length_a   25.63340000
_cell_length_b   69.67910000
_cell_length_c   69.67910000
_cell_angle_alpha   90.00000000
_cell_angle_beta   90.00000000
_cell_angle_gamma   90.00000000
_symmetry_Int_Tables_number   1
_chemical_formula_structural   H36C53O4
_chemical_formula_sum   'H576 C848 O64'
_cell_volume   124454.69351736
_cell_formula_units_Z   16
loop_
 _symmetry_equiv_pos_site_id
 _symmetry_equiv_pos_as_xyz
  1  'x, y, z'
loop_
 _atom_site_type_symbol
 _atom_site_label
 _atom_site_symmetry_multiplicity
 _atom_site_fract_x
 _atom_site_fract_y
 _atom_site_fract_z
 _atom_site_occupancy
  H  25  1  0.40206500  0.05339700  0.04372500  1
  H  26  1  0.34366500  0.07594800  0.05774300  1
  H  27  1  0.28609800  0.10116600  0.06634800  1
  H  28  1  0.22717200  0.12737100  0.06981200  1
  H  29  1  0.18367900  0.12229500  0.01130100  1
  H  30  1  0.33107800  0.06182200  0.98941800  1
  H  31  1  0.32136200  0.12356200  0.99628800  1
  H  32  1  0.28425400  0.12560400  0.93702600  1
  H  33  1  0.22875000  0.09842600  0.94061400  1
  H  34  1  0.17755700  0.06235900  0.01864500  1
  H  35  1  0.17210500  0.07297800  0.94955500  1
  H  36  1  0.11278000  0.05092500  0.96383600  1
  H  62  1  0.90201000  0.45494900  0.96458200  1
  H  63  1  0.84365700  0.43238200  0.95055700  1
  H  64  1  0.78607200  0.40716200  0.94194200  1
  H  65  1  0.72695700  0.38102100  0.93844800  1
  H  66  1  0.68346700  0.38608700  0.99696200  1
  H  67  1  0.83099700  0.44650600  0.01888200  1
  H  68  1  0.82121700  0.38472800  0.01197700  1
  H  69  1  0.78424600  0.38270500  0.07125300  1
  H  70  1  0.72883800  0.40991200  0.06768600  1
  H  71  1  0.67751800  0.44597800  0.98966200  1
  H  72  1  0.67203300  0.43530300  0.05874200  1
  H  73  1  0.61272800  0.45737000  0.04448100  1
  H  99  1  0.65177800  0.21452100  0.80422600  1
  H  100  1  0.59336600  0.20049100  0.82677100  1
  H  101  1  0.53559800  0.19184800  0.85191000  1
  H  102  1  0.47637800  0.18832100  0.87801300  1
  H  103  1  0.43330600  0.24689600  0.87313600  1
  H  104  1  0.58108500  0.26885800  0.81280100  1
  H  105  1  0.57137500  0.26200800  0.87451800  1
  H  106  1  0.53489600  0.32133900  0.87631500  1
  H  107  1  0.47941700  0.31772400  0.84913600  1
  H  108  1  0.42731300  0.23963000  0.81340600  1
  H  109  1  0.42264000  0.30877100  0.82376000  1
  H  110  1  0.36313000  0.29449600  0.80177300  1
  H  136  1  0.15160100  0.29378000  0.20409000  1
  H  137  1  0.09309400  0.30780400  0.18158000  1
  H  138  1  0.03558600  0.31640800  0.15636100  1
  H  139  1  0.97655300  0.31991200  0.13020300  1
  H  140  1  0.93346500  0.26134000  0.13508600  1
  H  141  1  0.08111900  0.23941200  0.19546600  1
  H  142  1  0.07138800  0.24629500  0.13378000  1
  H  143  1  0.03504000  0.18695700  0.13194500  1
  H  144  1  0.97946000  0.19054400  0.15909400  1
  H  145  1  0.92729400  0.26858600  0.19492900  1
  H  146  1  0.92262000  0.19946300  0.18446300  1
  H  147  1  0.86315100  0.21370000  0.20649000  1
  H  173  1  0.59340100  0.95142600  0.96963400  1
  H  174  1  0.64085100  0.92550300  0.95604900  1
  H  175  1  0.69806100  0.90082200  0.94589700  1
  H  176  1  0.76106100  0.87623500  0.94045500  1
  H  177  1  0.82944500  0.88753800  0.99469900  1
  H  178  1  0.69151500  0.95051700  0.01864300  1
  H  179  1  0.68313200  0.88636000  0.01439800  1
  H  180  1  0.74707200  0.87805700  0.06988600  1
  H  181  1  0.80736400  0.90354700  0.06446700  1
  H  182  1  0.81764000  0.95011000  0.98968900  1
  H  183  1  0.86386900  0.92826300  0.05391200  1
  H  184  1  0.91159900  0.95374700  0.03966900  1
  H  210  1  0.09329300  0.55691800  0.03863000  1
  H  211  1  0.14073800  0.58284500  0.05221000  1
  H  212  1  0.19809900  0.60745800  0.06240100  1
  H  213  1  0.26127000  0.63197600  0.06788600  1
  H  214  1  0.32957500  0.62070400  0.01361800  1
  H  215  1  0.19140700  0.55782000  0.98962200  1
  H  216  1  0.18307600  0.62198200  0.99383500  1
  H  217  1  0.24707800  0.63025700  0.93835500  1
  H  218  1  0.30726000  0.60472500  0.94377100  1
  H  219  1  0.31754800  0.55825500  0.01861500  1
  H  220  1  0.36378100  0.58001600  0.95436100  1
  H  221  1  0.41151400  0.55455300  0.96864300  1
  H  247  1  0.35543700  0.79340200  0.20521400  1
  H  248  1  0.41359700  0.80759000  0.18268600  1
  H  249  1  0.47133000  0.81641200  0.15763100  1
  H  250  1  0.53060400  0.82013200  0.13156900  1
  H  251  1  0.57472600  0.76165400  0.13638100  1
  H  252  1  0.42730200  0.73926400  0.19668900  1
  H  253  1  0.43698400  0.74611700  0.13497000  1
  H  254  1  0.47407700  0.68682800  0.13338000  1
  H  255  1  0.52958200  0.69062100  0.16053300  1
  H  256  1  0.58050000  0.76889700  0.19612200  1
  H  257  1  0.58653500  0.69977000  0.18577300  1
  H  258  1  0.64572000  0.71419900  0.20777400  1
  H  284  1  0.85557500  0.71482700  0.80303800  1
  H  285  1  0.91379900  0.70065200  0.82555400  1
  H  286  1  0.97156400  0.69184300  0.85060400  1
  H  287  1  0.03076800  0.68814800  0.87669200  1
  H  288  1  0.07465200  0.74665300  0.87192600  1
  H  289  1  0.92723900  0.76899600  0.81159700  1
  H  290  1  0.93714800  0.76213900  0.87337000  1
  H  291  1  0.97432200  0.82141600  0.87500600  1
  H  292  1  0.02965200  0.81764700  0.84780400  1
  H  293  1  0.08058900  0.73939600  0.81219800  1
  H  294  1  0.08640900  0.80853100  0.82251100  1
  H  295  1  0.14572900  0.79410800  0.80055800  1
  H  321  1  0.90229900  0.55328800  0.54367100  1
  H  322  1  0.84366400  0.57570500  0.55778000  1
  H  323  1  0.78569700  0.60073300  0.56649300  1
  H  324  1  0.72661000  0.62687800  0.57005100  1
  H  325  1  0.68365100  0.62214000  0.51144800  1
  H  326  1  0.83134500  0.56187800  0.48937900  1
  H  327  1  0.82099100  0.62355300  0.49628100  1
  H  328  1  0.78507700  0.62507900  0.43689600  1
  H  329  1  0.72981300  0.59783500  0.44053800  1
  H  330  1  0.67725300  0.56244600  0.51874700  1
  H  331  1  0.67291900  0.57251200  0.44955500  1
  H  332  1  0.61325000  0.55061700  0.46389400  1
  H  358  1  0.40226800  0.95506900  0.46464700  1
  H  359  1  0.34369200  0.93263500  0.45052400  1
  H  360  1  0.28573900  0.90759800  0.44179600  1
  H  361  1  0.22650000  0.88150600  0.43820600  1
  H  362  1  0.18351600  0.88622200  0.49680900  1
  H  363  1  0.33128000  0.94644800  0.51892600  1
  H  364  1  0.32087900  0.88473400  0.51199300  1
  H  365  1  0.28508100  0.88323800  0.57139100  1
  H  366  1  0.22990800  0.91050700  0.56775900  1
  H  367  1  0.17724200  0.94588200  0.48955200  1
  H  368  1  0.17284700  0.93576800  0.55873500  1
  H  369  1  0.11320100  0.95767400  0.54441000  1
  H  395  1  0.16455200  0.71942000  0.30713400  1
  H  396  1  0.11696100  0.70591800  0.33306600  1
  H  397  1  0.05942000  0.69581300  0.35767000  1
  H  398  1  0.99621500  0.69046300  0.38221000  1
  H  399  1  0.92845600  0.74480800  0.37084900  1
  H  400  1  0.06681200  0.76853600  0.30796100  1
  H  401  1  0.07512500  0.76427800  0.37211600  1
  H  402  1  0.01178500  0.81985800  0.38044700  1
  H  403  1  0.95152400  0.81456200  0.35491900  1
  H  404  1  0.94042900  0.73978300  0.30837200  1
  H  405  1  0.89482400  0.80406900  0.33022700  1
  H  406  1  0.84694100  0.78988600  0.30474900  1
  H  432  1  0.66466800  0.78875900  0.70112500  1
  H  433  1  0.61705800  0.80228700  0.67521400  1
  H  434  1  0.55968400  0.81237300  0.65055800  1
  H  435  1  0.49655900  0.81773300  0.62599600  1
  H  436  1  0.42851500  0.76345000  0.63741000  1
  H  437  1  0.56673300  0.73969700  0.70033700  1
  H  438  1  0.57496800  0.74398500  0.63615100  1
  H  439  1  0.51151600  0.68843100  0.62779100  1
  H  440  1  0.45130900  0.69372100  0.65333800  1
  H  441  1  0.44045600  0.76846900  0.69994500  1
  H  442  1  0.39470000  0.70420300  0.67807300  1
  H  443  1  0.34688600  0.71838800  0.70357000  1
  H  469  1  0.09170500  0.45127900  0.47045400  1
  H  470  1  0.13836700  0.42520100  0.45677700  1
  H  471  1  0.19554000  0.40065100  0.44631200  1
  H  472  1  0.25900700  0.37631500  0.44045900  1
  H  473  1  0.32982200  0.38797600  0.49421200  1
  H  474  1  0.19244800  0.45081500  0.51875000  1
  H  475  1  0.18308300  0.38667300  0.51483000  1
  H  476  1  0.24931600  0.37824900  0.56994300  1
  H  477  1  0.30980900  0.40359600  0.56415400  1
  H  478  1  0.31664800  0.45040200  0.48948600  1
  H  479  1  0.36610800  0.42821300  0.55327700  1
  H  480  1  0.41297700  0.45383200  0.53887400  1
  H  506  1  0.59166100  0.05706200  0.53784000  1
  H  507  1  0.63832700  0.08314800  0.55150100  1
  H  508  1  0.69564700  0.10763600  0.56199400  1
  H  509  1  0.75929400  0.13189900  0.56787900  1
  H  510  1  0.82998300  0.12026100  0.51409700  1
  H  511  1  0.69235000  0.05751500  0.48952900  1
  H  512  1  0.68305000  0.12166800  0.49341700  1
  H  513  1  0.74924900  0.13004900  0.43829400  1
  H  514  1  0.80963900  0.10466000  0.44407300  1
  H  515  1  0.81660200  0.05796400  0.51881700  1
  H  516  1  0.86598700  0.08006000  0.45498500  1
  H  517  1  0.91288300  0.05446500  0.46942100  1
  H  543  1  0.84177200  0.28791700  0.70216600  1
  H  544  1  0.88868800  0.30160700  0.67616200  1
  H  545  1  0.94589800  0.31203200  0.65161300  1
  H  546  1  0.00927400  0.31781600  0.62723000  1
  H  547  1  0.07968800  0.26397900  0.63882600  1
  H  548  1  0.94207500  0.23950100  0.70164000  1
  H  549  1  0.93326200  0.24353700  0.63748000  1
  H  550  1  0.99903600  0.18833900  0.62913700  1
  H  551  1  0.05929400  0.19403500  0.65458400  1
  H  552  1  0.06682400  0.26880000  0.70124400  1
  H  553  1  0.11566600  0.20489200  0.67920500  1
  H  554  1  0.16271100  0.21930100  0.70477600  1
  H  580  1  0.34185700  0.22033000  0.30605800  1
  H  581  1  0.38878500  0.20662700  0.33205700  1
  H  582  1  0.44604300  0.19618500  0.35659400  1
  H  583  1  0.50932300  0.19043000  0.38102100  1
  H  584  1  0.57954000  0.24432000  0.36950400  1
  H  585  1  0.44201300  0.26878800  0.30666300  1
  H  586  1  0.43326300  0.26473700  0.37083200  1
  H  587  1  0.49928200  0.31988100  0.37924900  1
  H  588  1  0.55950000  0.31418200  0.35379100  1
  H  589  1  0.56686900  0.23944800  0.30709100  1
  H  590  1  0.61577000  0.30334400  0.32913900  1
  H  591  1  0.66290400  0.28890700  0.30360600  1
  H  599  1  0.97010500  0.03561100  0.99281200  1
  H  600  1  0.03584900  0.05950400  0.99017100  1
  H  607  1  0.94281600  0.01195700  0.02729200  1
  H  608  1  0.87606400  0.98866900  0.03104700  1
  H  609  1  0.93111300  0.95846700  0.98304700  1
  H  610  1  0.14919400  0.02020500  0.00895800  1
  H  614  1  0.04933700  0.98228100  0.97713900  1
  H  615  1  0.00449900  0.99622000  0.96399700  1
  H  616  1  0.01174000  0.95555500  0.96507800  1
  H  618  1  0.05745400  0.97963600  0.01613400  1
  H  619  1  0.11961700  0.98430400  0.00626800  1
  H  620  1  0.12156300  0.97964000  0.03911300  1
  H  627  1  0.47002300  0.47274000  0.01551300  1
  H  628  1  0.53576200  0.44883600  0.01816700  1
  H  635  1  0.44265300  0.49637200  0.98104200  1
  H  636  1  0.37588200  0.51963800  0.97732700  1
  H  637  1  0.43117900  0.54989000  0.02525100  1
  H  638  1  0.64911800  0.48809100  0.99932300  1
  H  642  1  0.54944700  0.52607600  0.03110200  1
  H  643  1  0.50464200  0.51216400  0.04428600  1
  H  644  1  0.51194100  0.55282600  0.04314700  1
  H  646  1  0.55743600  0.52866700  0.99211000  1
  H  647  1  0.61959800  0.52400100  0.00197800  1
  H  648  1  0.62153600  0.52861900  0.96912600  1
  H  655  1  0.22011500  0.26576100  0.78671700  1
  H  656  1  0.28600500  0.26827400  0.81056600  1
  H  663  1  0.19202700  0.23141500  0.76309400  1
  H  664  1  0.12526700  0.22781300  0.73979000  1
  H  665  1  0.18143900  0.27557500  0.70951700  1
  H  666  1  0.39889700  0.24926100  0.77119600  1
  H  670  1  0.29967100  0.28121400  0.73333700  1
  H  671  1  0.25513500  0.29450500  0.74726300  1
  H  672  1  0.26233300  0.29334600  0.70660000  1
  H  674  1  0.30683400  0.24220200  0.73070600  1
  H  675  1  0.36916300  0.25195700  0.73531100  1
  H  676  1  0.37062500  0.21910500  0.73068700  1
  H  683  1  0.72007200  0.24245600  0.22163500  1
  H  684  1  0.78592300  0.23992100  0.19776400  1
  H  691  1  0.69210800  0.27682600  0.24527900  1
  H  692  1  0.62537100  0.28041400  0.26858300  1
  H  693  1  0.68153600  0.23261900  0.29882400  1
  H  694  1  0.89891700  0.25893700  0.23708300  1
  H  698  1  0.79977200  0.22699500  0.27497100  1
  H  699  1  0.75517400  0.21371100  0.26106300  1
  H  700  1  0.76249700  0.21486700  0.30172500  1
  H  702  1  0.80698200  0.26601500  0.27760600  1
  H  703  1  0.86928300  0.25624500  0.27298000  1
  H  704  1  0.87081300  0.28909800  0.27759600  1
  H  711  1  0.04079800  0.47250800  0.99485100  1
  H  712  1  0.97602300  0.44823400  0.99235400  1
  H  719  1  0.06295800  0.49798000  0.02873000  1
  H  720  1  0.12875200  0.52165300  0.03235700  1
  H  721  1  0.07944000  0.54903700  0.98187600  1
  H  722  1  0.85965100  0.48789000  0.00756900  1
  H  726  1  0.96238100  0.52456100  0.97532200  1
  H  727  1  0.00909300  0.51012600  0.96368100  1
  H  728  1  0.00088900  0.55076500  0.96251700  1
  H  730  1  0.94939400  0.52916500  0.01407000  1
  H  731  1  0.88852000  0.52373700  0.00353200  1
  H  732  1  0.88276600  0.53001600  0.03604700  1
  H  739  1  0.54089600  0.03581500  0.01342800  1
  H  740  1  0.47612100  0.06010100  0.01596900  1
  H  747  1  0.56306600  0.01035500  0.97952500  1
  H  748  1  0.62888600  0.98670400  0.97593000  1
  H  749  1  0.57944300  0.95930000  0.02638000  1
  H  750  1  0.35970700  0.02048500  0.00068100  1
  H  754  1  0.46231500  0.98376300  0.03288100  1
  H  755  1  0.50900400  0.99818200  0.04455500  1
  H  756  1  0.50076000  0.95754200  0.04567700  1
  H  758  1  0.44941300  0.97920700  0.99411500  1
  H  759  1  0.38854800  0.98462300  0.00466400  1
  H  760  1  0.38278000  0.97840000  0.97213900  1
  H  767  1  0.79076100  0.24471800  0.78684800  1
  H  768  1  0.72589600  0.24231200  0.81109400  1
  H  775  1  0.81320800  0.27848500  0.76127700  1
  H  776  1  0.87893900  0.28199400  0.73756000  1
  H  777  1  0.82918300  0.23149400  0.71032800  1
  H  778  1  0.60971600  0.25749100  0.77135200  1
  H  782  1  0.71217600  0.22510800  0.73484900  1
  H  783  1  0.75879900  0.21345000  0.74931000  1
  H  784  1  0.75055200  0.21219400  0.70867500  1
  H  786  1  0.69961800  0.26387100  0.73010700  1
  H  787  1  0.63869400  0.25337000  0.73552700  1
  H  788  1  0.63306400  0.28587200  0.72917300  1
  H  795  1  0.29075600  0.26359600  0.22144000  1
  H  796  1  0.22589200  0.26602800  0.19717800  1
  H  803  1  0.31330100  0.22980200  0.24697100  1
  H  804  1  0.37905900  0.22633100  0.27066700  1
  H  805  1  0.32902100  0.27675500  0.29796200  1
  H  806  1  0.10970500  0.25071800  0.23687300  1
  H  810  1  0.21194900  0.28307400  0.27344800  1
  H  811  1  0.25852900  0.29478700  0.25901600  1
  H  812  1  0.25022300  0.29597000  0.29965200  1
  H  814  1  0.19957900  0.24429000  0.27812100  1
  H  815  1  0.13863300  0.25478400  0.27271500  1
  H  816  1  0.13307200  0.22226600  0.27899900  1
  H  823  1  0.78816300  0.74333500  0.22280600  1
  H  824  1  0.72233400  0.74075300  0.19894100  1
  H  831  1  0.81539300  0.77761000  0.24658600  1
  H  832  1  0.88219600  0.78130200  0.26985300  1
  H  833  1  0.82731900  0.73320200  0.29993200  1
  H  834  1  0.60898600  0.75911900  0.23843000  1
  H  838  1  0.70911300  0.72727900  0.27612200  1
  H  839  1  0.75400000  0.71423800  0.26211000  1
  H  840  1  0.74684900  0.71513500  0.30278100  1
  H  842  1  0.70083500  0.76622700  0.27897000  1
  H  843  1  0.63876800  0.75628600  0.27429300  1
  H  844  1  0.63645100  0.78910100  0.27913300  1
  H  851  1  0.28825700  0.76495100  0.78551000  1
  H  852  1  0.22243800  0.76758100  0.80939500  1
  H  859  1  0.31547300  0.73063700  0.76172700  1
  H  860  1  0.38225600  0.72698000  0.73846000  1
  H  861  1  0.32721900  0.77507100  0.70839800  1
  H  862  1  0.10903000  0.74911200  0.76996200  1
  H  866  1  0.20899400  0.78092900  0.73223000  1
  H  867  1  0.25387600  0.79399600  0.74621800  1
  H  868  1  0.24662400  0.79307600  0.70554900  1
  H  870  1  0.20083600  0.74194700  0.72941300  1
  H  871  1  0.13876400  0.75189000  0.73408400  1
  H  872  1  0.13646800  0.71906700  0.72930200  1
  H  879  1  0.21716400  0.76289600  0.22263100  1
  H  880  1  0.28194000  0.76538500  0.19835900  1
  H  887  1  0.19524900  0.72919600  0.24823100  1
  H  888  1  0.12942600  0.72562400  0.27188900  1
  H  889  1  0.17844400  0.77623000  0.29910300  1
  H  890  1  0.39846800  0.75062000  0.23812900  1
  H  894  1  0.29546700  0.78280900  0.27462100  1
  H  895  1  0.24868400  0.79433300  0.26012400  1
  H  896  1  0.25681800  0.79568700  0.30076000  1
  H  898  1  0.30873500  0.74411500  0.27940400  1
  H  899  1  0.36946300  0.75475200  0.27394900  1
  H  900  1  0.37569500  0.72228000  0.28037500  1
  H  907  1  0.71710300  0.74535200  0.78566100  1
  H  908  1  0.78190900  0.74285600  0.80993200  1
  H  915  1  0.69519400  0.77904900  0.76002200  1
  H  916  1  0.62937800  0.78258700  0.73636500  1
  H  917  1  0.67843900  0.73195000  0.70920400  1
  H  918  1  0.89841300  0.75761800  0.77016500  1
  H  922  1  0.79547300  0.72541200  0.73371100  1
  H  923  1  0.74866300  0.71389600  0.74820200  1
  H  924  1  0.75687900  0.71251500  0.70757000  1
  H  926  1  0.80870200  0.76412100  0.72888800  1
  H  927  1  0.86941200  0.75347200  0.73434700  1
  H  928  1  0.87569300  0.78594100  0.72791300  1
  H  935  1  0.47000800  0.53592700  0.49266900  1
  H  936  1  0.53610900  0.55970500  0.49018200  1
  H  943  1  0.44177500  0.51218300  0.52696200  1
  H  944  1  0.37506200  0.48884300  0.53051800  1
  H  945  1  0.43117500  0.45874300  0.48261800  1
  H  946  1  0.64868800  0.52016200  0.50909400  1
  H  950  1  0.54931800  0.48261000  0.47701000  1
  H  951  1  0.50475500  0.49659800  0.46379600  1
  H  952  1  0.51194100  0.45593200  0.46476500  1
  H  954  1  0.55630500  0.47976400  0.51609500  1
  H  955  1  0.61863800  0.48432100  0.50632100  1
  H  956  1  0.62018300  0.47961500  0.53916100  1
  H  963  1  0.96994500  0.97241400  0.51563400  1
  H  964  1  0.03603700  0.94862500  0.51813300  1
  H  971  1  0.94165000  0.99614600  0.48135800  1
  H  972  1  0.87492400  0.01946500  0.47784200  1
  H  973  1  0.93124900  0.04960500  0.52567700  1
  H  974  1  0.14864000  0.98813000  0.49918600  1
  H  978  1  0.04943500  0.02573600  0.53123300  1
  H  979  1  0.00489200  0.01177300  0.54448100  1
  H  980  1  0.01214300  0.05243700  0.54346300  1
  H  982  1  0.05632100  0.02853900  0.49215400  1
  H  983  1  0.11864900  0.02398000  0.50193400  1
  H  984  1  0.12020200  0.02865300  0.46908900  1
  H  991  1  0.54115300  0.97222800  0.49493800  1
  H  992  1  0.47616000  0.94802100  0.49254100  1
  H  999  1  0.56363900  0.99793000  0.52862700  1
  H  1000  1  0.62928800  0.02169200  0.53207200  1
  H  1001  1  0.57954400  0.04872100  0.48145200  1
  H  1002  1  0.36012400  0.98789200  0.50757000  1
  H  1006  1  0.46267000  0.02412800  0.47510700  1
  H  1007  1  0.50933100  0.00961900  0.46353200  1
  H  1008  1  0.50104500  0.05024600  0.46208100  1
  H  1010  1  0.45023300  0.02907800  0.51392900  1
  H  1011  1  0.38933200  0.02368400  0.50339200  1
  H  1012  1  0.38355300  0.03011300  0.53587500  1
  H  1019  1  0.04123300  0.53609800  0.51336400  1
  H  1020  1  0.97624100  0.56031900  0.51579800  1
  H  1027  1  0.06374400  0.51040600  0.47965300  1
  H  1028  1  0.12941400  0.48666400  0.47624400  1
  H  1029  1  0.07950900  0.45961600  0.52683000  1
  H  1030  1  0.86017000  0.52048600  0.50069000  1
  H  1034  1  0.96257200  0.48420100  0.53311600  1
  H  1035  1  0.00921300  0.49869200  0.54472500  1
  H  1036  1  0.00087300  0.45806400  0.54613400  1
  H  1038  1  0.95024000  0.47929600  0.49427500  1
  H  1039  1  0.88934300  0.48468100  0.50481700  1
  H  1040  1  0.88356500  0.47830600  0.47232400  1
  H  1047  1  0.43985900  0.20336400  0.94062500  1
  H  1048  1  0.47344800  0.22183400  0.91461500  1
  H  1055  1  0.42635400  0.15767400  0.93010400  1
  H  1056  1  0.39983400  0.13066700  0.94853300  1
  H  1057  1  0.27519400  0.16218100  0.97140900  1
  H  1058  1  0.35868600  0.19933100  0.87808600  1
  H  1062  1  0.27806000  0.19969800  0.93859000  1
  H  1063  1  0.31772900  0.20776400  0.95762300  1
  H  1064  1  0.22051500  0.18834100  0.96034300  1
  H  1066  1  0.29529300  0.16845700  0.91424500  1
  H  1067  1  0.27913600  0.18357200  0.89492600  1
  H  1068  1  0.30253900  0.15295600  0.88527900  1
  H  1075  1  0.93994500  0.30483200  0.06752500  1
  H  1076  1  0.97354200  0.28634900  0.09354800  1
  H  1083  1  0.92627500  0.35062200  0.07812700  1
  H  1084  1  0.89958400  0.37760400  0.05974700  1
  H  1085  1  0.77519900  0.34601400  0.03681100  1
  H  1086  1  0.85896900  0.30890900  0.13009500  1
  H  1090  1  0.77836700  0.30845300  0.06960600  1
  H  1091  1  0.81798700  0.30045800  0.05053000  1
  H  1092  1  0.72064500  0.31981300  0.04791600  1
  H  1094  1  0.79553600  0.33979100  0.09397400  1
  H  1095  1  0.77947100  0.32470300  0.11332300  1
  H  1096  1  0.80301000  0.35532200  0.12291800  1
  H  1103  1  0.69040700  0.31832800  0.95403400  1
  H  1104  1  0.72387900  0.34454000  0.97224900  1
  H  1111  1  0.67706900  0.32829400  0.90820300  1
  H  1112  1  0.65036600  0.30965300  0.88138500  1
  H  1113  1  0.52559500  0.28722800  0.91310100  1
  H  1114  1  0.60927900  0.38081600  0.94925900  1
  H  1118  1  0.52868500  0.32037500  0.95029400  1
  H  1119  1  0.56822300  0.30138900  0.95855200  1
  H  1120  1  0.47100200  0.29856500  0.93914900  1
  H  1122  1  0.54606800  0.34434300  0.91871900  1
  H  1123  1  0.52982800  0.36381100  0.93362900  1
  H  1124  1  0.55336400  0.37315100  0.90293100  1
  H  1131  1  0.19054000  0.19011600  0.05417400  1
  H  1132  1  0.22404500  0.16390400  0.03591200  1
  H  1139  1  0.17716000  0.18005400  0.10010600  1
  H  1140  1  0.15037100  0.19866900  0.12690800  1
  H  1141  1  0.02568900  0.22112700  0.09513600  1
  H  1142  1  0.10972900  0.12755600  0.05900500  1
  H  1146  1  0.02902700  0.18796500  0.05792000  1
  H  1147  1  0.06848300  0.20699200  0.04969900  1
  H  1148  1  0.97118500  0.20972000  0.06906700  1
  H  1150  1  0.04650800  0.16398800  0.08959000  1
  H  1151  1  0.03034000  0.14448700  0.07471400  1
  H  1152  1  0.05412800  0.13520500  0.10540400  1
  H  1159  1  0.56728700  0.80651900  0.06920100  1
  H  1160  1  0.53284400  0.78781900  0.09489900  1
  H  1167  1  0.59111100  0.85308700  0.08181100  1
  H  1168  1  0.62172800  0.87936700  0.06313000  1
  H  1169  1  0.73181800  0.84375600  0.03653700  1
  H  1170  1  0.65005000  0.80829600  0.13158000  1
  H  1174  1  0.72508500  0.80610000  0.06918600  1
  H  1175  1  0.68057700  0.79973700  0.05096100  1
  H  1176  1  0.78172200  0.81580000  0.04632200  1
  H  1178  1  0.71645200  0.83855000  0.09556400  1
  H  1179  1  0.73076100  0.82312100  0.11483000  1
  H  1180  1  0.71157500  0.85410200  0.12460200  1
  H  1187  1  0.06723600  0.70181600  0.93909600  1
  H  1188  1  0.03283300  0.72057500  0.91338800  1
  H  1195  1  0.09125700  0.65516700  0.92639000  1
  H  1196  1  0.12190600  0.62890100  0.94507400  1
  H  1197  1  0.23170500  0.66460300  0.97177800  1
  H  1198  1  0.14995900  0.70001400  0.87667900  1
  H  1202  1  0.22480900  0.70227100  0.93909700  1
  H  1203  1  0.18029000  0.70858600  0.95733500  1
  H  1204  1  0.28152600  0.69259000  0.96194500  1
  H  1206  1  0.21625700  0.66971200  0.91269300  1
  H  1207  1  0.23057100  0.68511100  0.89340500  1
  H  1208  1  0.21120400  0.65413500  0.88367200  1
  H  1215  1  0.32359300  0.69116300  0.05408100  1
  H  1216  1  0.28755900  0.66582300  0.03527100  1
  H  1223  1  0.32886800  0.68083200  0.10168800  1
  H  1224  1  0.35670100  0.69974400  0.12820500  1
  H  1225  1  0.48531600  0.71929500  0.09664300  1
  H  1226  1  0.38623300  0.62616500  0.06239800  1
  H  1230  1  0.48004900  0.68491000  0.06058000  1
  H  1231  1  0.44381100  0.70435400  0.05136200  1
  H  1232  1  0.54004900  0.70596100  0.07155000  1
  H  1234  1  0.45340000  0.66125600  0.09354700  1
  H  1235  1  0.46672700  0.64075300  0.07966500  1
  H  1236  1  0.43581000  0.63342300  0.11002300  1
  H  1243  1  0.82348000  0.81701300  0.95432100  1
  H  1244  1  0.78739800  0.84237100  0.97314600  1
  H  1251  1  0.82889500  0.82735800  0.90662800  1
  H  1252  1  0.85693600  0.80847700  0.88015500  1
  H  1253  1  0.98540900  0.78896900  0.91180500  1
  H  1254  1  0.88590200  0.88205000  0.94594700  1
  H  1258  1  0.97975200  0.82335800  0.94788200  1
  H  1259  1  0.94362400  0.80386600  0.95705200  1
  H  1260  1  0.03997300  0.80238000  0.93692600  1
  H  1262  1  0.95307200  0.84697600  0.91478700  1
  H  1263  1  0.96633600  0.86750000  0.92864200  1
  H  1264  1  0.93528300  0.87477900  0.89829000  1
  H  1271  1  0.93430000  0.70455200  0.44137400  1
  H  1272  1  0.97025700  0.72328800  0.41596700  1
  H  1279  1  0.92948600  0.65703000  0.43115400  1
  H  1280  1  0.90195200  0.63044900  0.45003600  1
  H  1281  1  0.77271000  0.66175300  0.46949800  1
  H  1282  1  0.87146000  0.69604600  0.37642600  1
  H  1286  1  0.77766900  0.69784500  0.43514500  1
  H  1287  1  0.81372300  0.70713200  0.45460100  1
  H  1288  1  0.71774700  0.68677400  0.45617300  1
  H  1290  1  0.80448100  0.66496300  0.41161600  1
  H  1291  1  0.79106500  0.67878100  0.39107900  1
  H  1292  1  0.82210700  0.64842000  0.38382700  1
  H  1299  1  0.43428100  0.80362700  0.56679700  1
  H  1300  1  0.47024600  0.78487300  0.59220800  1
  H  1307  1  0.42943600  0.85128400  0.57709200  1
  H  1308  1  0.40172600  0.87783500  0.55825100  1
  H  1309  1  0.27272900  0.84643800  0.53874900  1
  H  1310  1  0.37188500  0.81223500  0.63178800  1
  H  1314  1  0.27799300  0.81031200  0.57309000  1
  H  1315  1  0.31399100  0.80108700  0.55359100  1
  H  1316  1  0.21789600  0.82138000  0.55212400  1
  H  1318  1  0.30487200  0.84333800  0.59664700  1
  H  1319  1  0.29157400  0.82956300  0.61722100  1
  H  1320  1  0.32284300  0.85991300  0.62439000  1
  H  1327  1  0.19104100  0.81908300  0.45204400  1
  H  1328  1  0.22525100  0.84486600  0.47068100  1
  H  1335  1  0.16727500  0.83162600  0.40556500  1
  H  1336  1  0.13684900  0.81300000  0.37922000  1
  H  1337  1  0.02660400  0.78629400  0.41469000  1
  H  1338  1  0.10745200  0.88131200  0.45023700  1
  H  1342  1  0.03304400  0.81884600  0.45242100  1
  H  1343  1  0.07760200  0.80063800  0.45878300  1
  H  1344  1  0.97656500  0.79596500  0.44264200  1
  H  1346  1  0.04141200  0.84515600  0.42005200  1
  H  1347  1  0.02691700  0.86442300  0.43545500  1
  H  1348  1  0.04595600  0.87417800  0.40445700  1
  H  1355  1  0.69093400  0.68934500  0.55616300  1
  H  1356  1  0.72525300  0.66357500  0.53748000  1
  H  1363  1  0.66705500  0.67667500  0.60273900  1
  H  1364  1  0.63650900  0.69528100  0.62906100  1
  H  1365  1  0.52645000  0.72202800  0.59351400  1
  H  1366  1  0.60780400  0.62701200  0.55801400  1
  H  1370  1  0.53319900  0.68945800  0.55576400  1
  H  1371  1  0.57768700  0.70770800  0.54945300  1
  H  1372  1  0.47653400  0.71228700  0.56552900  1
  H  1374  1  0.54162900  0.66310200  0.58823700  1
  H  1375  1  0.52726900  0.64379600  0.57286700  1
  H  1376  1  0.54654400  0.63410400  0.60386400  1
  H  1383  1  0.07310200  0.30552700  0.56849100  1
  H  1384  1  0.03596200  0.28646900  0.59342100  1
  H  1391  1  0.08911400  0.35447800  0.58150600  1
  H  1392  1  0.12124200  0.38019900  0.56235500  1
  H  1393  1  0.23401700  0.34387800  0.53834700  1
  H  1394  1  0.13653000  0.31180700  0.63363200  1
  H  1398  1  0.22480500  0.30746400  0.57238600  1
  H  1399  1  0.18278700  0.30029400  0.55365800  1
  H  1400  1  0.28392200  0.31664500  0.55015100  1
  H  1402  1  0.20711800  0.34246200  0.59897300  1
  H  1403  1  0.21845200  0.32823100  0.61939600  1
  H  1404  1  0.19131100  0.35903200  0.62692700  1
  H  1411  1  0.57303700  0.20279400  0.43981800  1
  H  1412  1  0.53591000  0.22189700  0.41488100  1
  H  1419  1  0.58917600  0.15376400  0.42672600  1
  H  1420  1  0.62135700  0.12806100  0.44588600  1
  H  1421  1  0.73392500  0.16447300  0.46995900  1
  H  1422  1  0.63631400  0.19647800  0.37463300  1
  H  1426  1  0.72451500  0.20089100  0.43588000  1
  H  1427  1  0.68253100  0.20802200  0.45463200  1
  H  1428  1  0.78375000  0.19172800  0.45808300  1
  H  1430  1  0.70684300  0.16578600  0.40928200  1
  H  1431  1  0.71815200  0.17999100  0.38884300  1
  H  1432  1  0.69085600  0.14919800  0.38135300  1
  H  1439  1  0.82392500  0.19044700  0.55602100  1
  H  1440  1  0.78664500  0.16571100  0.53675100  1
  H  1447  1  0.83927200  0.17703000  0.60486200  1
  H  1448  1  0.87112900  0.19600000  0.63077500  1
  H  1449  1  0.98458600  0.22015700  0.59482000  1
  H  1450  1  0.88661600  0.12516500  0.56190600  1
  H  1454  1  0.97567200  0.18634600  0.55816500  1
  H  1455  1  0.93387500  0.20515900  0.55104200  1
  H  1456  1  0.03480600  0.20846700  0.56760200  1
  H  1458  1  0.95736000  0.15952000  0.59286700  1
  H  1459  1  0.96859900  0.13918100  0.57850800  1
  H  1460  1  0.94114700  0.13147300  0.60922800  1
  H  1467  1  0.32372000  0.31773400  0.45233500  1
  H  1468  1  0.28638900  0.34247700  0.47163200  1
  H  1475  1  0.33928100  0.33119400  0.40342700  1
  H  1476  1  0.37132200  0.31224900  0.37756100  1
  H  1477  1  0.48453200  0.28809200  0.41360600  1
  H  1478  1  0.38624600  0.38305600  0.44644800  1
  H  1482  1  0.47526600  0.32190200  0.45027400  1
  H  1483  1  0.43353200  0.30304700  0.45733700  1
  H  1484  1  0.53459100  0.29983800  0.44086000  1
  H  1486  1  0.45700900  0.34873200  0.41546300  1
  H  1487  1  0.46819000  0.36907900  0.42981500  1
  H  1488  1  0.44066300  0.37676500  0.39910000  1
  C  1  1  0.21229200  0.07760700  0.99558200  1
  C  2  1  0.20943100  0.08051700  0.97572500  1
  C  3  1  0.24388100  0.09479700  0.97038600  1
  C  4  1  0.27047700  0.10157300  0.98659200  1
  C  5  1  0.30318900  0.11794300  0.98450200  1
  C  6  1  0.30891300  0.12694200  0.96623900  1
  C  7  1  0.28198800  0.11920200  0.95025000  1
  C  8  1  0.24946200  0.10321000  0.95219400  1
  C  9  1  0.17383100  0.07065600  0.96402100  1
  C  10  1  0.13893100  0.05782000  0.97257100  1
  C  11  1  0.13861800  0.05478600  0.99268600  1
  C  12  1  0.17683400  0.06437400  0.00411700  1
  C  13  1  0.29844500  0.07812200  0.01217500  1
  C  14  1  0.30326400  0.08200000  0.03180200  1
  C  15  1  0.26843800  0.09620600  0.03695300  1
  C  16  1  0.23920100  0.10184100  0.02091700  1
  C  17  1  0.26382500  0.10522600  0.05488300  1
  C  18  1  0.22931900  0.12064300  0.05674800  1
  C  19  1  0.19935100  0.12715800  0.04095000  1
  C  20  1  0.20432600  0.11760200  0.02293900  1
  C  21  1  0.33333333  0.06459300  0.00379900  1
  C  22  1  0.37293700  0.05567800  0.01513100  1
  C  23  1  0.37487000  0.05978900  0.03504100  1
  C  24  1  0.34053400  0.07292500  0.04344000  1
  C  37  1  0.25487600  0.08996800  0.00384700  1
  C  38  1  0.71229300  0.43073500  0.01271900  1
  C  39  1  0.70947600  0.42783000  0.03257800  1
  C  40  1  0.74375600  0.41348400  0.03789100  1
  C  41  1  0.77038900  0.40672800  0.02168600  1
  C  42  1  0.80306900  0.39034800  0.02376800  1
  C  43  1  0.80882300  0.38135000  0.04203100  1
  C  44  1  0.78193200  0.38909500  0.05802500  1
  C  45  1  0.74938900  0.40508400  0.05608500  1
  C  46  1  0.67382800  0.43766400  0.04428400  1
  C  47  1  0.63892800  0.45050600  0.03574400  1
  C  48  1  0.63861600  0.45355400  0.01563100  1
  C  49  1  0.67680400  0.44396100  0.00419100  1
  C  50  1  0.79844200  0.43018500  0.99612600  1
  C  51  1  0.80333000  0.42628900  0.97650300  1
  C  52  1  0.76841900  0.41211800  0.97133800  1
  C  53  1  0.73911700  0.40650100  0.98736400  1
  C  54  1  0.76371800  0.40313000  0.95339500  1
  C  55  1  0.72911900  0.38774300  0.95151500  1
  C  56  1  0.69913800  0.38123100  0.96731100  1
  C  57  1  0.70413900  0.39077300  0.98532800  1
  C  58  1  0.83331100  0.44372200  0.00450400  1
  C  59  1  0.87290700  0.45264200  0.99317600  1
  C  60  1  0.87485400  0.44853600  0.97326500  1
  C  61  1  0.84057100  0.43538200  0.96486700  1
  C  74  1  0.75482300  0.41835500  0.00444300  1
  C  75  1  0.46235400  0.26270300  0.82854400  1
  C  76  1  0.45974800  0.28257700  0.83136300  1
  C  77  1  0.49415600  0.28790700  0.84565700  1
  C  78  1  0.52056300  0.27168700  0.85249900  1
  C  79  1  0.55331300  0.27379700  0.86885600  1
  C  80  1  0.55915700  0.29208500  0.87779600  1
  C  81  1  0.53244600  0.30808500  0.86998300  1
  C  82  1  0.49989000  0.30612100  0.85400400  1
  C  83  1  0.42420000  0.29429400  0.82149400  1
  C  84  1  0.38921400  0.28575200  0.80868900  1
  C  85  1  0.38867800  0.26562400  0.80574000  1
  C  86  1  0.42677500  0.25416800  0.81535800  1
  C  87  1  0.54841300  0.24609000  0.82907000  1
  C  88  1  0.55316100  0.22645300  0.83291000  1
  C  89  1  0.51830800  0.22129700  0.84710000  1
  C  90  1  0.48918600  0.23734500  0.85278300  1
  C  91  1  0.51346300  0.20332900  0.85602300  1
  C  92  1  0.47875800  0.20142300  0.87137200  1
  C  93  1  0.44884800  0.21722200  0.87792100  1
  C  94  1  0.45402100  0.23527200  0.86845000  1
  C  95  1  0.58332100  0.25447200  0.81555300  1
  C  96  1  0.62280800  0.24312900  0.80660000  1
  C  97  1  0.62465700  0.22320800  0.81065500  1
  C  98  1  0.59034300  0.21480600  0.82379700  1
  C  111  1  0.50487200  0.25442400  0.84092100  1
  C  112  1  0.96231800  0.24554000  0.17974700  1
  C  113  1  0.95968100  0.22567300  0.17688400  1
  C  114  1  0.99405400  0.22037000  0.16257100  1
  C  115  1  0.02053700  0.23659500  0.15577700  1
  C  116  1  0.05332800  0.23449900  0.13942900  1
  C  117  1  0.05933100  0.21621000  0.13050500  1
  C  118  1  0.03261900  0.20019900  0.13830200  1
  C  119  1  0.00000300  0.20214800  0.15426600  1
  C  120  1  0.92421900  0.21393400  0.18676800  1
  C  121  1  0.88923000  0.22245600  0.19958700  1
  C  122  1  0.88868800  0.24257900  0.20256600  1
  C  123  1  0.92676700  0.25405200  0.19295800  1
  C  124  1  0.04833100  0.26218200  0.17922700  1
  C  125  1  0.05302900  0.28182200  0.17539700  1
  C  126  1  0.01807400  0.28698700  0.16124500  1
  C  127  1  0.98902200  0.27092900  0.15554000  1
  C  128  1  0.01338100  0.30493700  0.15227000  1
  C  129  1  0.97881600  0.30682400  0.13687800  1
  C  130  1  0.94892500  0.29102300  0.13032400  1
  C  131  1  0.95404800  0.27298000  0.13981100  1
  C  132  1  0.08330900  0.25380100  0.19271900  1
  C  133  1  0.12274600  0.26515700  0.20168800  1
  C  134  1  0.12449200  0.28508600  0.19766200  1
  C  135  1  0.09011400  0.29348400  0.18454300  1
  C  148  1  0.00480900  0.25384200  0.16737200  1
  C  149  1  0.79970200  0.92985800  0.01146000  1
  C  150  1  0.81289200  0.92433100  0.03018300  1
  C  151  1  0.77981000  0.91000100  0.03641800  1
  C  152  1  0.74376000  0.90569400  0.02196500  1
  C  153  1  0.70829800  0.89028500  0.02507900  1
  C  154  1  0.70899600  0.87995900  0.04273600  1
  C  155  1  0.74519500  0.88534300  0.05712100  1
  C  156  1  0.78070400  0.90027500  0.05406800  1
  C  157  1  0.85423300  0.93267600  0.04038300  1
  C  158  1  0.88189200  0.94771100  0.03189200  1
  C  159  1  0.86837400  0.95485600  0.01349200  1
  C  160  1  0.82797400  0.94532700  0.00302300  1
  C  161  1  0.70833300  0.92934200  0.99764500  1
  C  162  1  0.69384400  0.92289300  0.97936000  1
  C  163  1  0.72745300  0.90864500  0.97334000  1
  C  164  1  0.76529000  0.90539400  0.98746000  1
  C  165  1  0.72590800  0.89827000  0.95607300  1
  C  166  1  0.76293000  0.88385200  0.95302400  1
  C  167  1  0.80137600  0.87966600  0.96701100  1
  C  168  1  0.80247600  0.89055900  0.98432300  1
  C  169  1  0.68022500  0.94506000  0.00567700  1
  C  170  1  0.63876400  0.95394500  0.99521600  1
  C  171  1  0.62388500  0.94585900  0.97735400  1
  C  172  1  0.65133000  0.93054600  0.96927000  1
  C  185  1  0.75444100  0.91788000  0.00459600  1
  C  186  1  0.29953800  0.57845200  0.99680000  1
  C  187  1  0.31277200  0.58397000  0.97807900  1
  C  188  1  0.27970800  0.59829900  0.97182600  1
  C  189  1  0.24379000  0.60267000  0.98630100  1
  C  190  1  0.20820600  0.61803500  0.98315000  1
  C  191  1  0.20897800  0.62836800  0.96549800  1
  C  192  1  0.24519900  0.62297600  0.95112400  1
  C  193  1  0.28062800  0.60801900  0.95417200  1
  C  194  1  0.35414100  0.57562200  0.96789600  1
  C  195  1  0.38176500  0.56058600  0.97640100  1
  C  196  1  0.36825500  0.55346800  0.99481400  1
  C  197  1  0.32786100  0.56301300  0.00527000  1
  C  198  1  0.20816100  0.57902000  0.01059800  1
  C  199  1  0.19368300  0.58546700  0.02888500  1
  C  200  1  0.22735900  0.59968700  0.03492400  1
  C  201  1  0.26514600  0.60295400  0.02079400  1
  C  202  1  0.22592100  0.61002000  0.05221700  1
  C  203  1  0.26304000  0.62439700  0.05529000  1
  C  204  1  0.30150000  0.62857600  0.04130600  1
  C  205  1  0.30252800  0.61771400  0.02397400  1
  C  206  1  0.18002800  0.56331100  0.00256200  1
  C  207  1  0.13862200  0.55440900  0.01304000  1
  C  208  1  0.12374000  0.56249800  0.03090000  1
  C  209  1  0.15117100  0.57781500  0.03897900  1
  C  222  1  0.25433200  0.59046000  0.00366200  1
  C  223  1  0.54591200  0.74573300  0.18098700  1
  C  224  1  0.54890900  0.72586500  0.17817300  1
  C  225  1  0.51469900  0.72045000  0.16385300  1
  C  226  1  0.48796100  0.73659700  0.15700800  1
  C  227  1  0.45524200  0.73438100  0.14065800  1
  C  228  1  0.44967100  0.71605700  0.13177300  1
  C  229  1  0.47645200  0.70011000  0.13965600  1
  C  230  1  0.50905400  0.70218700  0.15560600  1
  C  231  1  0.58465500  0.71423900  0.18805200  1
  C  232  1  0.61944100  0.72287100  0.20087000  1
  C  233  1  0.61958200  0.74300100  0.20381200  1
  C  234  1  0.58128000  0.75435900  0.19419000  1
  C  235  1  0.45952900  0.76211800  0.18041700  1
  C  236  1  0.45434100  0.78173600  0.17656000  1
  C  237  1  0.48919300  0.78700100  0.16241600  1
  C  238  1  0.51872100  0.77104200  0.15676000  1
  C  239  1  0.49373800  0.80499800  0.15352700  1
  C  240  1  0.52845900  0.80701900  0.13820000  1
  C  241  1  0.55857900  0.79128900  0.13162500  1
  C  242  1  0.55382800  0.77322200  0.14109200  1
  C  243  1  0.42477400  0.75364200  0.19392900  1
  C  244  1  0.38500700  0.76487400  0.20285400  1
  C  245  1  0.38274800  0.78479000  0.19879400  1
  C  246  1  0.41693600  0.79328600  0.18567300  1
  C  259  1  0.50328400  0.75390700  0.16858700  1
  C  260  1  0.04589800  0.76255600  0.82731300  1
  C  261  1  0.04881100  0.78242900  0.83010700  1
  C  262  1  0.01449300  0.78784800  0.84439100  1
  C  263  1  0.98782400  0.77169100  0.85125300  1
  C  264  1  0.95528400  0.77388500  0.86765500  1
  C  265  1  0.94978000  0.79220100  0.87656800  1
  C  266  1  0.97660000  0.80814700  0.86870000  1
  C  267  1  0.00903900  0.80609000  0.85270400  1
  C  268  1  0.08457000  0.79405900  0.82024100  1
  C  269  1  0.11946700  0.78542800  0.80746400  1
  C  270  1  0.11965000  0.76530000  0.80452100  1
  C  271  1  0.08135500  0.75393400  0.81414000  1
  C  272  1  0.95954800  0.74614800  0.82785700  1
  C  273  1  0.95443400  0.72652400  0.83170000  1
  C  274  1  0.98928300  0.72127100  0.84585100  1
  C  275  1  0.01867400  0.73725000  0.85154300  1
  C  276  1  0.99388600  0.70327200  0.85473000  1
  C  277  1  0.02856900  0.70126500  0.87007100  1
  C  278  1  0.05865300  0.71700200  0.87665100  1
  C  279  1  0.05383300  0.73507200  0.86719500  1
  C  280  1  0.92473400  0.75461800  0.81436200  1
  C  281  1  0.88504400  0.74336700  0.80541400  1
  C  282  1  0.88285500  0.72345000  0.80946300  1
  C  283  1  0.91705700  0.71496400  0.82258700  1
  C  296  1  0.00325300  0.75437700  0.83970000  1
  C  297  1  0.71244100  0.57746500  0.49563000  1
  C  298  1  0.70989000  0.58022200  0.47574700  1
  C  299  1  0.74434900  0.59448100  0.47038700  1
  C  300  1  0.77056100  0.60141200  0.48661400  1
  C  301  1  0.80312000  0.61781300  0.48449100  1
  C  302  1  0.80895200  0.62669900  0.46618200  1
  C  303  1  0.78257600  0.61877600  0.45016300  1
  C  304  1  0.75022000  0.60274600  0.45214000  1
  C  305  1  0.67444800  0.57029000  0.46404000  1
  C  306  1  0.63934500  0.55755200  0.47262000  1
  C  307  1  0.63870900  0.55470300  0.49276100  1
  C  308  1  0.67679600  0.56433600  0.50420000  1
  C  309  1  0.79852400  0.57802600  0.51220600  1
  C  310  1  0.80326000  0.58181800  0.53185100  1
  C  311  1  0.76834900  0.59597000  0.53703800  1
  C  312  1  0.73921500  0.60167400  0.52099900  1
  C  313  1  0.76353500  0.60486000  0.55502300  1
  C  314  1  0.72894300  0.62023900  0.55694500  1
  C  315  1  0.69917300  0.62684300  0.54113700  1
  C  316  1  0.70424100  0.61739100  0.52307800  1
  C  317  1  0.83354100  0.56458300  0.50377500  1
  C  318  1  0.87316900  0.55567800  0.51508400  1
  C  319  1  0.87504500  0.55968500  0.53501400  1
  C  320  1  0.84057500  0.57273700  0.54346500  1
  C  333  1  0.75492900  0.58985900  0.50389600  1
  C  334  1  0.21246500  0.93086900  0.51266600  1
  C  335  1  0.20995200  0.92812200  0.53255200  1
  C  336  1  0.24423700  0.91379800  0.53789000  1
  C  337  1  0.27049400  0.90688700  0.52166600  1
  C  338  1  0.30302800  0.89047800  0.52378400  1
  C  339  1  0.30888600  0.88159600  0.54209500  1
  C  340  1  0.28253400  0.88952500  0.55811900  1
  C  341  1  0.25015600  0.90554900  0.55614000  1
  C  342  1  0.17445000  0.93802600  0.54425700  1
  C  343  1  0.13935400  0.95076900  0.53568500  1
  C  344  1  0.13872300  0.95362900  0.51554500  1
  C  345  1  0.17678800  0.94399200  0.50409800  1
  C  346  1  0.29854800  0.93027900  0.49609700  1
  C  347  1  0.30336500  0.92647200  0.47645700  1
  C  348  1  0.26837900  0.91235300  0.47125200  1
  C  349  1  0.23918000  0.90666100  0.48728000  1
  C  350  1  0.26349400  0.90349400  0.45325200  1
  C  351  1  0.22883100  0.88813900  0.45131500  1
  C  352  1  0.19905400  0.88153200  0.46711900  1
  C  353  1  0.20412500  0.89097200  0.48518500  1
  C  354  1  0.33352800  0.94373100  0.50453300  1
  C  355  1  0.37315700  0.95264600  0.49323300  1
  C  356  1  0.37505400  0.94864800  0.47330000  1
  C  357  1  0.34064400  0.93557500  0.46484700  1
  C  370  1  0.25490900  0.91846000  0.50439300  1
  C  371  1  0.95863200  0.76154300  0.32860200  1
  C  372  1  0.94560900  0.78028000  0.33413800  1
  C  373  1  0.97876500  0.78647200  0.34845900  1
  C  374  1  0.01455400  0.77194500  0.35279800  1
  C  375  1  0.05011300  0.77500600  0.36818500  1
  C  376  1  0.04953700  0.79264600  0.37853400  1
  C  377  1  0.01351000  0.80709200  0.37315500  1
  C  378  1  0.97804400  0.80411700  0.35819700  1
  C  379  1  0.90434300  0.79053200  0.32580700  1
  C  380  1  0.87661700  0.78207900  0.31076900  1
  C  381  1  0.88995900  0.76366000  0.30362300  1
  C  382  1  0.93023500  0.75313300  0.31315400  1
  C  383  1  0.04980700  0.74758000  0.32914900  1
  C  384  1  0.06415100  0.72929200  0.33563000  1
  C  385  1  0.03041800  0.72331500  0.34985300  1
  C  386  1  0.99277100  0.73750000  0.35309900  1
  C  387  1  0.03169600  0.70603900  0.36021400  1
  C  388  1  0.99456100  0.70304500  0.37460300  1
  C  389  1  0.95625200  0.71709200  0.37875900  1
  C  390  1  0.95538200  0.73440400  0.36786900  1
  C  391  1  0.07804800  0.75557700  0.31345000  1
  C  392  1  0.11938600  0.74504700  0.30457500  1
  C  393  1  0.13413000  0.72718300  0.31268800  1
  C  394  1  0.10660300  0.71914600  0.32800500  1
  C  407  1  0.00376400  0.75460400  0.34059600  1
  C  408  1  0.45859700  0.74670900  0.67970600  1
  C  409  1  0.44552000  0.72798200  0.67416100  1
  C  410  1  0.47861400  0.72179800  0.65981400  1
  C  411  1  0.51443000  0.73631700  0.65548100  1
  C  412  1  0.54994600  0.73326000  0.64008000  1
  C  413  1  0.54938800  0.71561700  0.62973900  1
  C  414  1  0.51332600  0.70117900  0.63511000  1
  C  415  1  0.47788800  0.70415100  0.65008100  1
  C  416  1  0.40424200  0.71773800  0.68249300  1
  C  417  1  0.37657400  0.72618700  0.69754800  1
  C  418  1  0.38996500  0.74459800  0.70470100  1
  C  419  1  0.43024300  0.75511900  0.69516600  1
  C  420  1  0.54982100  0.76064300  0.67912500  1
  C  421  1  0.56418200  0.77893400  0.67265500  1
  C  422  1  0.53043300  0.78492700  0.65844500  1
  C  423  1  0.49266200  0.77077700  0.65523400  1
  C  424  1  0.53185300  0.80218100  0.64804500  1
  C  425  1  0.49478000  0.80517400  0.63363700  1
  C  426  1  0.45640000  0.79115000  0.62949500  1
  C  427  1  0.45541700  0.77385500  0.64040800  1
  C  428  1  0.57798400  0.75265400  0.69484600  1
  C  429  1  0.61940200  0.76315800  0.70369900  1
  C  430  1  0.63424600  0.78100200  0.69556500  1
  C  431  1  0.60672400  0.78905100  0.68025300  1
  C  444  1  0.50370200  0.75365100  0.66770100  1
  C  445  1  0.29994900  0.42998600  0.51123500  1
  C  446  1  0.31405800  0.42437400  0.52984400  1
  C  447  1  0.28120200  0.41006200  0.53624700  1
  C  448  1  0.24445300  0.40583600  0.52201200  1
  C  449  1  0.20883700  0.39052800  0.52534700  1
  C  450  1  0.21024900  0.38019000  0.54298500  1
  C  451  1  0.24710200  0.38550500  0.55716700  1
  C  452  1  0.28271300  0.40035100  0.55390000  1
  C  453  1  0.35584500  0.43267900  0.53982800  1
  C  454  1  0.38299700  0.44778400  0.53124700  1
  C  455  1  0.36846900  0.45502500  0.51299200  1
  C  456  1  0.32767500  0.44553300  0.50271200  1
  C  457  1  0.20801400  0.42941000  0.49786100  1
  C  458  1  0.19256200  0.42280100  0.47974000  1
  C  459  1  0.22605100  0.40859600  0.47355700  1
  C  460  1  0.26469900  0.40552400  0.48741500  1
  C  461  1  0.22391300  0.39819700  0.45631500  1
  C  462  1  0.26120200  0.38393000  0.45302400  1
  C  463  1  0.30044500  0.37992500  0.46676000  1
  C  464  1  0.30218600  0.39085300  0.48403500  1
  C  465  1  0.18041300  0.44521600  0.50593700  1
  C  466  1  0.13846600  0.45400200  0.49567300  1
  C  467  1  0.12252300  0.44574400  0.47801700  1
  C  468  1  0.14949800  0.43034700  0.46988400  1
  C  481  1  0.25446000  0.41801500  0.50459100  1
  C  482  1  0.79980000  0.07831800  0.49702000  1
  C  483  1  0.81392600  0.08391800  0.47841100  1
  C  484  1  0.78108600  0.09823100  0.47199500  1
  C  485  1  0.74447700  0.10252200  0.48625800  1
  C  486  1  0.70874700  0.11778700  0.48289100  1
  C  487  1  0.71020600  0.12812800  0.46525600  1
  C  488  1  0.74705200  0.12280200  0.45107500  1
  C  489  1  0.78259200  0.10792900  0.45433600  1
  C  490  1  0.85573500  0.07561200  0.46844100  1
  C  491  1  0.88285900  0.06050700  0.47703100  1
  C  492  1  0.86836700  0.05329500  0.49530200  1
  C  493  1  0.82759200  0.06280600  0.50557500  1
  C  494  1  0.70786900  0.07895100  0.51039200  1
  C  495  1  0.69244000  0.08556100  0.52851600  1
  C  496  1  0.72600900  0.09973500  0.53471300  1
  C  497  1  0.76460400  0.10282000  0.52083900  1
  C  498  1  0.72399200  0.11009500  0.55198100  1
  C  499  1  0.76138500  0.12432100  0.55529000  1
  C  500  1  0.80063500  0.12831500  0.54155300  1
  C  501  1  0.80228100  0.11741500  0.52425600  1
  C  502  1  0.68023700  0.06315300  0.50231700  1
  C  503  1  0.63835800  0.05434900  0.51260600  1
  C  504  1  0.62243000  0.06261100  0.53026000  1
  C  505  1  0.64939800  0.07801500  0.53838100  1
  C  518  1  0.75437500  0.09032100  0.50367100  1
  C  519  1  0.04979200  0.24699500  0.68092300  1
  C  520  1  0.06376800  0.22836600  0.67533800  1
  C  521  1  0.03093900  0.22198800  0.66100200  1
  C  522  1  0.99444000  0.23628500  0.65669900  1
  C  523  1  0.95887000  0.23298400  0.64137100  1
  C  524  1  0.96022300  0.21534900  0.63102700  1
  C  525  1  0.99688200  0.20111600  0.63639200  1
  C  526  1  0.03235600  0.20433100  0.65129600  1
  C  527  1  0.10549800  0.21835700  0.68365300  1
  C  528  1  0.13275800  0.22694300  0.69872900  1
  C  529  1  0.11845200  0.24524300  0.70591900  1
  C  530  1  0.07772700  0.25554400  0.69640700  1
  C  531  1  0.95792200  0.26042100  0.68029200  1
  C  532  1  0.94266400  0.27858000  0.67372500  1
  C  533  1  0.97624100  0.28475800  0.65954200  1
  C  534  1  0.01477000  0.27086000  0.65644500  1
  C  535  1  0.97420900  0.30200800  0.64915200  1
  C  536  1  0.01143200  0.30525400  0.63485200  1
  C  537  1  0.05050000  0.29146500  0.63080200  1
  C  538  1  0.05217700  0.27419100  0.64173700  1
  C  539  1  0.93011000  0.25232300  0.69604000  1
  C  540  1  0.88822700  0.26261800  0.70483700  1
  C  541  1  0.87252500  0.28032400  0.69662500  1
  C  542  1  0.89961900  0.28845500  0.68125600  1
  C  555  1  0.00440500  0.25368000  0.66891800  1
  C  556  1  0.54979800  0.26126400  0.32739400  1
  C  557  1  0.56379100  0.27989000  0.33298200  1
  C  558  1  0.53089300  0.28628400  0.34729100  1
  C  559  1  0.49427700  0.27201300  0.35155300  1
  C  560  1  0.45882700  0.27529600  0.36692500  1
  C  561  1  0.46027400  0.29291300  0.37729700  1
  C  562  1  0.49701100  0.30712700  0.37195700  1
  C  563  1  0.53244200  0.30391500  0.35703800  1
  C  564  1  0.60560000  0.28987800  0.32469700  1
  C  565  1  0.63287700  0.28128400  0.30962800  1
  C  566  1  0.61854800  0.26299000  0.30242900  1
  C  567  1  0.57774600  0.25270700  0.31191700  1
  C  568  1  0.45794100  0.24783300  0.32797100  1
  C  569  1  0.44272300  0.22966200  0.33451800  1
  C  570  1  0.47624600  0.22349800  0.34872300  1
  C  571  1  0.51462900  0.23743600  0.35188200  1
  C  572  1  0.47426400  0.20623600  0.35909400  1
  C  573  1  0.51143800  0.20300400  0.37341500  1
  C  574  1  0.55045300  0.21680500  0.37748600  1
  C  575  1  0.55208800  0.23409200  0.36657100  1
  C  576  1  0.43016500  0.25592900  0.31221400  1
  C  577  1  0.38828000  0.24564100  0.30341100  1
  C  578  1  0.37261900  0.22791900  0.31160000  1
  C  579  1  0.39975900  0.21976800  0.32694900  1
  C  592  1  0.50434600  0.25459600  0.33937600  1
  C  593  1  0.09887700  0.04225500  0.99982100  1
  C  594  1  0.11092400  0.02359000  0.00637300  1
  C  595  1  0.07212700  0.00909000  0.00819900  1
  C  596  1  0.01968500  0.01320600  0.00254100  1
  C  597  1  0.00734300  0.03215100  0.99688100  1
  C  598  1  0.04605300  0.04637100  0.99560300  1
  C  601  1  0.97805900  0.99940500  0.00272000  1
  C  602  1  0.94022200  0.00116200  0.01735000  1
  C  603  1  0.90026600  0.98754200  0.01940300  1
  C  604  1  0.89706000  0.97135900  0.00718200  1
  C  605  1  0.93275500  0.97025400  0.99176000  1
  C  606  1  0.97288200  0.98416100  0.98910300  1
  C  611  1  0.08923000  0.99005800  0.01568500  1
  C  612  1  0.00889900  0.98299400  0.97224800  1
  C  621  1  0.59879700  0.46605700  0.00850800  1
  C  622  1  0.61084700  0.48471500  0.00192500  1
  C  623  1  0.57207400  0.49922200  0.00008400  1
  C  624  1  0.51962600  0.49512400  0.00575100  1
  C  625  1  0.50726400  0.47619000  0.01143800  1
  C  626  1  0.54597100  0.46197500  0.01274800  1
  C  629  1  0.47802400  0.50893800  0.00558000  1
  C  630  1  0.44007000  0.50715700  0.99099400  1
  C  631  1  0.40016900  0.52079900  0.98894400  1
  C  632  1  0.39695800  0.53698800  0.00116600  1
  C  633  1  0.43283300  0.53811100  0.01652600  1
  C  634  1  0.47294100  0.52419800  0.01918200  1
  C  639  1  0.58920000  0.51824000  0.99257100  1
  C  640  1  0.50903100  0.52537900  0.03601700  1
  C  649  1  0.34880100  0.25849800  0.79327300  1
  C  650  1  0.36067800  0.25191100  0.77460700  1
  C  651  1  0.32178600  0.25014700  0.76013700  1
  C  652  1  0.26946200  0.25592300  0.76428800  1
  C  653  1  0.25727200  0.26160700  0.78323800  1
  C  654  1  0.29605900  0.26280600  0.79743300  1
  C  657  1  0.22780100  0.25586600  0.75051100  1
  C  658  1  0.18962600  0.24135900  0.75229600  1
  C  659  1  0.14963500  0.23941100  0.73867800  1
  C  660  1  0.14669900  0.25161400  0.72247400  1
  C  661  1  0.18280600  0.26690400  0.72134000  1
  C  662  1  0.22295700  0.26947400  0.73524800  1
  C  667  1  0.33867700  0.24260500  0.74110100  1
  C  668  1  0.25934300  0.28622200  0.73404800  1
  C  677  1  0.84876700  0.24967900  0.21502400  1
  C  678  1  0.86068900  0.25628100  0.23368700  1
  C  679  1  0.82183700  0.25806000  0.24817100  1
  C  680  1  0.76949200  0.25229800  0.24404200  1
  C  681  1  0.75724600  0.24660100  0.22510200  1
  C  682  1  0.79601200  0.24536400  0.21090600  1
  C  685  1  0.72787400  0.25236000  0.25783600  1
  C  686  1  0.68967400  0.26685800  0.25605400  1
  C  687  1  0.64976500  0.26882300  0.26970400  1
  C  688  1  0.64683100  0.25659400  0.28588900  1
  C  689  1  0.68296800  0.24132200  0.28702500  1
  C  690  1  0.72306400  0.23874500  0.27309600  1
  C  695  1  0.83879600  0.26560200  0.26719900  1
  C  696  1  0.75943500  0.22199200  0.27427800  1
  C  705  1  0.91154500  0.46565800  0.00023300  1
  C  706  1  0.89826100  0.48455200  0.00571700  1
  C  707  1  0.93641800  0.49928900  0.00741200  1
  C  708  1  0.98954000  0.49512100  0.00275500  1
  C  709  1  0.00303800  0.47599200  0.99818200  1
  C  710  1  0.96488500  0.46156600  0.99699400  1
  C  713  1  0.03072200  0.50908100  0.00293000  1
  C  714  1  0.06659900  0.50824900  0.01828800  1
  C  715  1  0.10596100  0.52210100  0.02029100  1
  C  716  1  0.11046100  0.53759900  0.00726500  1
  C  717  1  0.07681000  0.53775300  0.99119900  1
  C  718  1  0.03730300  0.52359600  0.98862000  1
  C  723  1  0.91797800  0.51859300  0.01367300  1
  C  724  1  0.00339300  0.52374700  0.97114400  1
  C  733  1  0.41165800  0.04268600  0.00808400  1
  C  734  1  0.39832400  0.02381100  0.00254700  1
  C  735  1  0.43646500  0.00907200  0.00082300  1
  C  736  1  0.48959900  0.01322300  0.00548600  1
  C  737  1  0.50312500  0.03234200  0.01009600  1
  C  738  1  0.46498700  0.04676600  0.01133500  1
  C  741  1  0.53075600  0.99925100  0.00531100  1
  C  742  1  0.56671700  0.00010100  0.98998200  1
  C  743  1  0.60603300  0.98623000  0.98798100  1
  C  744  1  0.61057800  0.97073800  0.00101800  1
  C  745  1  0.57677100  0.97056800  0.01703800  1
  C  746  1  0.53727900  0.98472900  0.01961600  1
  C  751  1  0.41800900  0.98978100  0.99453100  1
  C  752  1  0.50331600  0.98456800  0.03707700  1
  C  761  1  0.66151200  0.25019100  0.79362900  1
  C  762  1  0.64831400  0.25563600  0.77471300  1
  C  763  1  0.68651400  0.25728200  0.75999000  1
  C  764  1  0.73959300  0.25260000  0.76419700  1
  C  765  1  0.75302900  0.24807200  0.78334200  1
  C  766  1  0.71482500  0.24694200  0.79775000  1
  C  769  1  0.78078900  0.25268300  0.75025400  1
  C  770  1  0.81678500  0.26800300  0.75104800  1
  C  771  1  0.85614000  0.26992800  0.73718400  1
  C  772  1  0.86050200  0.25685300  0.72172500  1
  C  773  1  0.82669400  0.24083100  0.72160700  1
  C  774  1  0.78721500  0.23832400  0.73577900  1
  C  779  1  0.66816300  0.26351000  0.74066300  1
  C  780  1  0.75315800  0.22088700  0.73567200  1
  C  789  1  0.16154600  0.25810900  0.21463000  1
  C  790  1  0.14830100  0.25260200  0.23352500  1
  C  791  1  0.18649100  0.25093800  0.24825000  1
  C  792  1  0.23956800  0.25564600  0.24406300  1
  C  793  1  0.25302500  0.26022500  0.22493300  1
  C  794  1  0.21483700  0.26139600  0.21052200  1
  C  797  1  0.28073600  0.25557000  0.25801700  1
  C  798  1  0.31686100  0.24029200  0.25719500  1
  C  799  1  0.35616100  0.23837300  0.27108000  1
  C  800  1  0.36052400  0.25144400  0.28654700  1
  C  801  1  0.32652300  0.26740700  0.28669200  1
  C  802  1  0.28705900  0.26991300  0.27251200  1
  C  807  1  0.16813500  0.24466300  0.26756100  1
  C  808  1  0.25290600  0.28732400  0.27264100  1
  C  817  1  0.65930000  0.75022000  0.21628300  1
  C  818  1  0.64727200  0.75662600  0.23500000  1
  C  819  1  0.68610800  0.75842400  0.24948500  1
  C  820  1  0.73857100  0.75285500  0.24530000  1
  C  821  1  0.75090300  0.74734200  0.22631200  1
  C  822  1  0.71214900  0.74611200  0.21210700  1
  C  825  1  0.78023900  0.75298800  0.25907600  1
  C  826  1  0.81803800  0.76763400  0.25734700  1
  C  827  1  0.85802100  0.76965000  0.27095700  1
  C  828  1  0.86126600  0.75739500  0.28711400  1
  C  829  1  0.82562900  0.74195300  0.28817400  1
  C  830  1  0.78549400  0.73931800  0.27426600  1
  C  835  1  0.66901300  0.76578100  0.26856800  1
  C  836  1  0.74958000  0.72242700  0.27537400  1
  C  845  1  0.15943000  0.75809600  0.79206000  1
  C  846  1  0.14732000  0.75162300  0.77337300  1
  C  847  1  0.18614400  0.74979900  0.75888700  1
  C  848  1  0.23861900  0.75538000  0.76305000  1
  C  849  1  0.25099000  0.76093900  0.78202300  1
  C  850  1  0.21225700  0.76222300  0.79622800  1
  C  853  1  0.28024300  0.75525300  0.74925500  1
  C  854  1  0.31811600  0.74063300  0.75098500  1
  C  855  1  0.35802000  0.73861600  0.73734200  1
  C  856  1  0.36126800  0.75089600  0.72119800  1
  C  857  1  0.32550400  0.76629500  0.72013700  1
  C  858  1  0.28541400  0.76892400  0.73406100  1
  C  863  1  0.16902600  0.74240800  0.73981900  1
  C  864  1  0.24944600  0.78579800  0.73296100  1
  C  873  1  0.34648100  0.75771800  0.21584700  1
  C  874  1  0.35983000  0.75236200  0.23476900  1
  C  875  1  0.32167900  0.75066600  0.24950400  1
  C  876  1  0.26851100  0.75521100  0.24529600  1
  C  877  1  0.25496200  0.75964600  0.22614000  1
  C  878  1  0.29311000  0.76082000  0.21171400  1
  C  881  1  0.22733200  0.75505900  0.25924700  1
  C  882  1  0.19154400  0.73967400  0.25845900  1
  C  883  1  0.15217100  0.73770400  0.27230700  1
  C  884  1  0.14755300  0.75077800  0.28776400  1
  C  885  1  0.18114500  0.76686300  0.28785500  1
  C  886  1  0.22064900  0.76942500  0.27369800  1
  C  891  1  0.34016900  0.74452900  0.26884100  1
  C  892  1  0.25442000  0.78693700  0.27378000  1
  C  901  1  0.84643800  0.75051100  0.79245300  1
  C  902  1  0.85977600  0.75587000  0.77352700  1
  C  903  1  0.82163100  0.75757300  0.75879000  1
  C  904  1  0.76845800  0.75303800  0.76299700  1
  C  905  1  0.75490500  0.74859800  0.78215000  1
  C  906  1  0.79306600  0.74739400  0.79656600  1
  C  909  1  0.72729300  0.75317300  0.74904000  1
  C  910  1  0.69145700  0.76854500  0.74982200  1
  C  911  1  0.65215300  0.77051300  0.73594700  1
  C  912  1  0.64754500  0.75741000  0.72051300  1
  C  913  1  0.68119300  0.74134600  0.72042400  1
  C  914  1  0.72064900  0.73879300  0.73460100  1
  C  919  1  0.84013400  0.76370100  0.73945200  1
  C  920  1  0.75442500  0.72128300  0.73454300  1
  C  929  1  0.59874200  0.54231400  0.49992400  1
  C  930  1  0.61048800  0.52362400  0.50647200  1
  C  931  1  0.57148500  0.50919900  0.50821400  1
  C  932  1  0.51919700  0.51342800  0.50245500  1
  C  933  1  0.50713500  0.53240200  0.49681900  1
  C  934  1  0.54603700  0.54655300  0.49564000  1
  C  937  1  0.47747800  0.49968400  0.50245100  1
  C  938  1  0.43934100  0.50142300  0.51697600  1
  C  939  1  0.39937700  0.48779200  0.51889900  1
  C  940  1  0.39654500  0.47162800  0.50664400  1
  C  941  1  0.43253300  0.47054300  0.49132000  1
  C  942  1  0.47262900  0.48447400  0.48878200  1
  C  947  1  0.58823600  0.49012300  0.51570200  1
  C  948  1  0.50897600  0.48334600  0.47201800  1
  C  957  1  0.09868600  0.96599000  0.50839200  1
  C  958  1  0.11044100  0.98467600  0.50182200  1
  C  959  1  0.07145800  0.99910900  0.50006600  1
  C  960  1  0.01916300  0.99489900  0.50582900  1
  C  961  1  0.00707800  0.97593200  0.51148400  1
  C  962  1  0.04597700  0.96178400  0.51269300  1
  C  965  1  0.97747000  0.00865500  0.50584100  1
  C  966  1  0.93922300  0.00689400  0.49135700  1
  C  967  1  0.89932200  0.02055000  0.48943500  1
  C  968  1  0.89647400  0.03671800  0.50169200  1
  C  969  1  0.93263000  0.03781700  0.51695900  1
  C  970  1  0.97270300  0.02387700  0.51949800  1
  C  975  1  0.08823900  0.01817400  0.49256000  1
  C  976  1  0.00910900  0.02501400  0.53624300  1
  C  985  1  0.41186900  0.96557100  0.50035100  1
  C  986  1  0.39871400  0.98449700  0.50575900  1
  C  987  1  0.43698800  0.99919000  0.50739600  1
  C  988  1  0.49005200  0.99492600  0.50274500  1
  C  989  1  0.50342900  0.97576400  0.49827200  1
  C  990  1  0.46516200  0.96137900  0.49715100  1
  C  993  1  0.53126700  0.00885100  0.50276900  1
  C  994  1  0.56723200  0.00811900  0.51810400  1
  C  995  1  0.60653300  0.02200500  0.51999100  1
  C  996  1  0.61081200  0.03742000  0.50686200  1
  C  997  1  0.57709000  0.03746900  0.49082000  1
  C  998  1  0.53767700  0.02326700  0.48835300  1
  C  1003  1  0.41871900  0.01854600  0.51356600  1
  C  1004  1  0.50365900  0.02329100  0.47090500  1
  C  1013  1  0.91197400  0.54277700  0.50797900  1
  C  1014  1  0.89876400  0.52387000  0.50251800  1
  C  1015  1  0.93702700  0.50917400  0.50085500  1
  C  1016  1  0.99009800  0.51342100  0.50551600  1
  C  1017  1  0.00350300  0.53257300  0.51002600  1
  C  1018  1  0.96524800  0.54695600  0.51119500  1
  C  1021  1  0.03128700  0.49948400  0.50549500  1
  C  1022  1  0.06734300  0.50023300  0.49019200  1
  C  1023  1  0.10658900  0.48632400  0.48830700  1
  C  1024  1  0.11090400  0.47091500  0.50144800  1
  C  1025  1  0.07701700  0.47085200  0.51744000  1
  C  1026  1  0.03762400  0.48506000  0.51990700  1
  C  1031  1  0.91873800  0.48983200  0.49465400  1
  C  1032  1  0.00354900  0.48502800  0.53733800  1
  C  1041  1  0.41660500  0.21347700  0.89415500  1
  C  1042  1  0.37307600  0.20126000  0.89168700  1
  C  1043  1  0.35356400  0.18956600  0.90673200  1
  C  1044  1  0.37794700  0.19039000  0.92513600  1
  C  1045  1  0.42005700  0.20322500  0.92785800  1
  C  1046  1  0.43926600  0.21449100  0.91262000  1
  C  1049  1  0.36698900  0.17658500  0.93984200  1
  C  1050  1  0.39632300  0.15938900  0.93966000  1
  C  1051  1  0.38137600  0.14350400  0.95082200  1
  C  1052  1  0.33672000  0.14431300  0.96266400  1
  C  1053  1  0.30913800  0.16188400  0.96369800  1
  C  1054  1  0.32336700  0.17810400  0.95246000  1
  C  1059  1  0.31126600  0.17574000  0.90169300  1
  C  1060  1  0.29190500  0.19617900  0.95301200  1
  C  1069  1  0.91690500  0.29474000  0.11402900  1
  C  1070  1  0.87338700  0.30698500  0.11649500  1
  C  1071  1  0.85381100  0.31867200  0.10145600  1
  C  1072  1  0.87818600  0.31785600  0.08305300  1
  C  1073  1  0.92020100  0.30499100  0.08030300  1
  C  1074  1  0.93946100  0.29375400  0.09555100  1
  C  1077  1  0.86712200  0.33164300  0.06834300  1
  C  1078  1  0.89634200  0.34886800  0.06853900  1
  C  1079  1  0.88111200  0.36477000  0.05745000  1
  C  1080  1  0.83647800  0.36395000  0.04558100  1
  C  1081  1  0.80907300  0.34634800  0.04456200  1
  C  1082  1  0.82346000  0.33011200  0.05574700  1
  C  1087  1  0.81157700  0.33251700  0.10652000  1
  C  1088  1  0.79211500  0.31201200  0.05518300  1
  C  1097  1  0.66715300  0.36492000  0.96363000  1
  C  1098  1  0.62370500  0.36723900  0.95133300  1
  C  1099  1  0.60423500  0.35207400  0.93979000  1
  C  1100  1  0.62859000  0.33367800  0.94083800  1
  C  1101  1  0.67062500  0.33109500  0.95373300  1
  C  1102  1  0.68976400  0.34646000  0.96484200  1
  C  1105  1  0.61762700  0.31881500  0.92720500  1
  C  1106  1  0.64697600  0.31878600  0.91001500  1
  C  1107  1  0.63189400  0.30749000  0.89424100  1
  C  1108  1  0.58709300  0.29571300  0.89511100  1
  C  1109  1  0.55962100  0.29488600  0.91272300  1
  C  1110  1  0.57392700  0.30625400  0.92884300  1
  C  1115  1  0.56200100  0.35696800  0.92588500  1
  C  1116  1  0.54244000  0.30590800  0.94691900  1
  C  1125  1  0.16749100  0.14351800  0.04460300  1
  C  1126  1  0.12412000  0.14113900  0.05693500  1
  C  1127  1  0.10462000  0.15629800  0.06848400  1
  C  1128  1  0.12893500  0.17470400  0.06743400  1
  C  1129  1  0.17084900  0.17733000  0.05449600  1
  C  1130  1  0.19005300  0.16197400  0.04339100  1
  C  1133  1  0.11786800  0.18957100  0.08105100  1
  C  1134  1  0.14715700  0.18959500  0.09826100  1
  C  1135  1  0.13187100  0.20082800  0.11405500  1
  C  1136  1  0.08710100  0.21262100  0.11313700  1
  C  1137  1  0.05965600  0.21343400  0.09553300  1
  C  1138  1  0.07410100  0.20210200  0.07940600  1
  C  1143  1  0.06250200  0.15137300  0.08242500  1
  C  1144  1  0.04268500  0.20244000  0.06131600  1
  C  1153  1  0.59065100  0.79512600  0.11538800  1
  C  1154  1  0.63512800  0.80685100  0.11799700  1
  C  1155  1  0.65546500  0.81856000  0.10311600  1
  C  1156  1  0.63044700  0.81848100  0.08482100  1
  C  1157  1  0.58729200  0.80618300  0.08192200  1
  C  1158  1  0.56757900  0.79478300  0.09696400  1
  C  1161  1  0.64282100  0.83225300  0.07026100  1
  C  1162  1  0.61870400  0.85047400  0.07149600  1
  C  1163  1  0.63599400  0.86595000  0.06020900  1
  C  1164  1  0.67752600  0.86368800  0.04709200  1
  C  1165  1  0.69979400  0.84518600  0.04517700  1
  C  1166  1  0.68343600  0.82937500  0.05658500  1
  C  1171  1  0.69964900  0.83155500  0.10814300  1
  C  1172  1  0.70994400  0.81030400  0.05512400  1
  C  1181  1  0.09063400  0.71319300  0.89293500  1
  C  1182  1  0.13504200  0.70144900  0.89026600  1
  C  1183  1  0.15533900  0.68973200  0.90515000  1
  C  1184  1  0.13027900  0.68980800  0.92344200  1
  C  1185  1  0.08720200  0.70214100  0.92636700  1
  C  1186  1  0.06746900  0.71354100  0.91133000  1
  C  1189  1  0.14270800  0.67605200  0.93801200  1
  C  1190  1  0.11868300  0.65780900  0.93675500  1
  C  1191  1  0.13613900  0.64232400  0.94800100  1
  C  1192  1  0.17753900  0.64466400  0.96115400  1
  C  1193  1  0.19979900  0.66315000  0.96308000  1
  C  1194  1  0.18331800  0.67895400  0.95168900  1
  C  1199  1  0.19944300  0.67670400  0.90011400  1
  C  1200  1  0.20971100  0.69804600  0.95315900  1
  C  1209  1  0.33640400  0.64374700  0.04603200  1
  C  1210  1  0.37592400  0.64013200  0.05970600  1
  C  1211  1  0.39697400  0.65485500  0.07144900  1
  C  1212  1  0.37780100  0.67397900  0.06938600  1
  C  1213  1  0.33962400  0.67774700  0.05523300  1
  C  1214  1  0.31906200  0.66287500  0.04381800  1
  C  1217  1  0.39027200  0.68882000  0.08284300  1
  C  1218  1  0.36021300  0.68977000  0.09984200  1
  C  1219  1  0.37593000  0.70124200  0.11540600  1
  C  1220  1  0.42194900  0.71233500  0.11443500  1
  C  1221  1  0.45041600  0.71218700  0.09701400  1
  C  1222  1  0.43559900  0.70055500  0.08115400  1
  C  1227  1  0.43534200  0.64898100  0.08643500  1
  C  1228  1  0.46818200  0.69973100  0.06336100  1
  C  1237  1  0.83613500  0.86442800  0.96233100  1
  C  1238  1  0.87559900  0.86808100  0.94863700  1
  C  1239  1  0.89668100  0.85335500  0.93690100  1
  C  1240  1  0.87753000  0.83422900  0.93897200  1
  C  1241  1  0.83943200  0.83043900  0.95315000  1
  C  1242  1  0.81879500  0.84531100  0.96454200  1
  C  1245  1  0.89014300  0.81937700  0.92554600  1
  C  1246  1  0.86018200  0.81840400  0.90852400  1
  C  1247  1  0.87619600  0.80699400  0.89295100  1
  C  1248  1  0.92224200  0.79589900  0.89394300  1
  C  1249  1  0.95054400  0.79609700  0.91139100  1
  C  1250  1  0.93554400  0.80768600  0.92725800  1
  C  1255  1  0.93497100  0.85924400  0.92189400  1
  C  1256  1  0.96802200  0.80852700  0.94507600  1
  C  1265  1  0.92133600  0.71245900  0.39394600  1
  C  1266  1  0.88178700  0.69878500  0.39038300  1
  C  1267  1  0.86080200  0.68707700  0.40514500  1
  C  1268  1  0.88003900  0.68920100  0.42425200  1
  C  1269  1  0.91820800  0.70336900  0.42797100  1
  C  1270  1  0.93872400  0.71474000  0.41306000  1
  C  1273  1  0.86775800  0.67574800  0.43911000  1
  C  1274  1  0.89808200  0.65881200  0.44007600  1
  C  1275  1  0.88254700  0.64321300  0.45153000  1
  C  1276  1  0.83641600  0.64411500  0.46256500  1
  C  1277  1  0.80767600  0.66146700  0.46242900  1
  C  1278  1  0.82234500  0.67735600  0.45081500  1
  C  1283  1  0.82249300  0.67205300  0.39931800  1
  C  1284  1  0.78952400  0.69508800  0.44997200  1
  C  1293  1  0.42164100  0.79576100  0.61425900  1
  C  1294  1  0.38218000  0.80948700  0.61783000  1
  C  1295  1  0.36113900  0.82119500  0.60307900  1
  C  1296  1  0.38029900  0.81906000  0.58396500  1
  C  1297  1  0.41830200  0.80484400  0.58021600  1
  C  1298  1  0.43887200  0.79349200  0.59512900  1
  C  1301  1  0.36790400  0.83249100  0.56910200  1
  C  1302  1  0.39811700  0.84945600  0.56813900  1
  C  1303  1  0.38230600  0.86507200  0.55675700  1
  C  1304  1  0.33619200  0.86415200  0.54569600  1
  C  1305  1  0.30763300  0.84676700  0.54585700  1
  C  1306  1  0.32245700  0.83086500  0.55742100  1
  C  1311  1  0.32295900  0.83625600  0.60893200  1
  C  1312  1  0.28975100  0.81310400  0.55826000  1
  C  1321  1  0.16713200  0.86524000  0.46338000  1
  C  1322  1  0.12253800  0.86775600  0.45169800  1
  C  1323  1  0.10234500  0.85282600  0.44002000  1
  C  1324  1  0.12761200  0.83457800  0.44011100  1
  C  1325  1  0.17085700  0.83176500  0.45238600  1
  C  1326  1  0.19043500  0.84685600  0.46374900  1
  C  1329  1  0.11546800  0.82001000  0.42632900  1
  C  1330  1  0.13971400  0.82129000  0.40813600  1
  C  1331  1  0.12253500  0.81003500  0.39262200  1
  C  1332  1  0.08098500  0.79691800  0.39482400  1
  C  1333  1  0.05863700  0.79493800  0.41330500  1
  C  1334  1  0.07488100  0.80631300  0.42915300  1
  C  1339  1  0.05808900  0.85777000  0.42702500  1
  C  1340  1  0.04827400  0.80480100  0.44820200  1
  C  1349  1  0.66734400  0.64317500  0.54484700  1
  C  1350  1  0.62282000  0.64058100  0.55656000  1
  C  1351  1  0.60255700  0.65549500  0.56824400  1
  C  1352  1  0.62773500  0.67376300  0.56815300  1
  C  1353  1  0.67087000  0.67663700  0.55584000  1
  C  1354  1  0.69055200  0.66156200  0.54448200  1
  C  1357  1  0.61545400  0.68832900  0.58192100  1
  C  1358  1  0.63960700  0.68704100  0.60013700  1
  C  1359  1  0.62218800  0.69824100  0.61565800  1
  C  1360  1  0.58070300  0.71138000  0.61339800  1
  C  1361  1  0.55840400  0.71334600  0.59492000  1
  C  1362  1  0.57482000  0.70200400  0.57907500  1
  C  1367  1  0.55840800  0.65050400  0.58126900  1
  C  1368  1  0.54831900  0.70351000  0.56000600  1
  C  1377  1  0.08545200  0.29632400  0.61572000  1
  C  1378  1  0.12586100  0.30956400  0.61962400  1
  C  1379  1  0.14784800  0.32135900  0.60513600  1
  C  1380  1  0.12826000  0.31996700  0.58601500  1
  C  1381  1  0.08917500  0.30625700  0.58192900  1
  C  1382  1  0.06795400  0.29470000  0.59655100  1
  C  1385  1  0.14226000  0.33340000  0.57136400  1
  C  1386  1  0.11778300  0.35159800  0.57167400  1
  C  1387  1  0.13592600  0.36671700  0.56008800  1
  C  1388  1  0.17856600  0.36405300  0.54755000  1
  C  1389  1  0.20124300  0.34554600  0.54655600  1
  C  1390  1  0.18415600  0.33012100  0.55832600  1
  C  1395  1  0.18803800  0.33560000  0.61118900  1
  C  1396  1  0.21130900  0.31111800  0.55794500  1
  C  1405  1  0.58534900  0.21197200  0.39261000  1
  C  1406  1  0.62566800  0.19871400  0.38864600  1
  C  1407  1  0.64763500  0.18691400  0.40313700  1
  C  1408  1  0.62804400  0.18830800  0.42226000  1
  C  1409  1  0.58905100  0.20205100  0.42637100  1
  C  1410  1  0.56779000  0.21360500  0.41175800  1
  C  1413  1  0.64211900  0.17489300  0.43691700  1
  C  1414  1  0.61771300  0.15667500  0.43660200  1
  C  1415  1  0.63602100  0.14154900  0.44814600  1
  C  1416  1  0.67855600  0.14429300  0.46070800  1
  C  1417  1  0.70124900  0.16278300  0.46170100  1
  C  1418  1  0.68403300  0.17819800  0.44994900  1
  C  1423  1  0.68774300  0.17264600  0.39707200  1
  C  1424  1  0.71108700  0.19722000  0.45032500  1
  C  1433  1  0.83587800  0.14328000  0.54651000  1
  C  1434  1  0.87615300  0.13920700  0.55974500  1
  C  1435  1  0.89819500  0.15358600  0.57166100  1
  C  1436  1  0.87880600  0.17274200  0.57038500  1
  C  1437  1  0.83986500  0.17698300  0.55666500  1
  C  1438  1  0.81856400  0.16247900  0.54498200  1
  C  1441  1  0.89278400  0.18727100  0.58395400  1
  C  1442  1  0.86804700  0.18685700  0.60210300  1
  C  1443  1  0.88601500  0.19833200  0.61733500  1
  C  1444  1  0.92872900  0.21085500  0.61481300  1
  C  1445  1  0.95175400  0.21195300  0.59637000  1
  C  1446  1  0.93481100  0.20029400  0.58084000  1
  C  1451  1  0.93821300  0.14737700  0.58590100  1
  C  1452  1  0.96222100  0.20077500  0.56188900  1
  C  1461  1  0.33554400  0.36489300  0.46184000  1
  C  1462  1  0.37577700  0.36901000  0.44859500  1
  C  1463  1  0.39785200  0.35463700  0.43667900  1
  C  1464  1  0.37847600  0.33547700  0.43794600  1
  C  1465  1  0.33959100  0.33120900  0.45168200  1
  C  1466  1  0.31821400  0.34570600  0.46335200  1
  C  1469  1  0.39258500  0.32094300  0.42440200  1
  C  1470  1  0.36796400  0.32134600  0.40623000  1
  C  1471  1  0.38622100  0.30992400  0.39100300  1
  C  1472  1  0.42892100  0.29738300  0.39354700  1
  C  1473  1  0.45177400  0.29632400  0.41201500  1
  C  1474  1  0.43465100  0.30794500  0.42754500  1
  C  1479  1  0.43782300  0.36086500  0.42243000  1
  C  1480  1  0.46192800  0.30746500  0.44652200  1
  O  613  1  0.00024500  0.96758500  0.95898000  1
  O  617  1  0.10930700  0.99229200  0.03473000  1
  O  641  1  0.50046000  0.54080700  0.04926900  1
  O  645  1  0.60926300  0.51597600  0.97352800  1
  O  669  1  0.25095800  0.29949200  0.71862000  1
  O  673  1  0.35850300  0.22352600  0.74334400  1
  O  697  1  0.75109000  0.20872300  0.28970700  1
  O  701  1  0.85864900  0.28467700  0.26494500  1
  O  725  1  0.01334900  0.53847900  0.95724700  1
  O  729  1  0.89584600  0.51721700  0.03248900  1
  O  753  1  0.51320900  0.96982200  0.05096600  1
  O  757  1  0.39587400  0.99119200  0.97571800  1
  O  781  1  0.76298800  0.20694300  0.72097300  1
  O  785  1  0.64608600  0.28233700  0.74198600  1
  O  809  1  0.26264200  0.30125300  0.28736500  1
  O  813  1  0.14609900  0.22583100  0.26619500  1
  O  837  1  0.75835800  0.70910000  0.29072300  1
  O  841  1  0.64869600  0.78480400  0.26644900  1
  O  865  1  0.25813800  0.79912200  0.71760200  1
  O  869  1  0.14872900  0.72338700  0.74197600  1
  O  893  1  0.24433100  0.80088900  0.28844800  1
  O  897  1  0.36258900  0.72575300  0.26755700  1
  O  921  1  0.74437200  0.70732000  0.71988200  1
  O  925  1  0.86258100  0.78247300  0.74073200  1
  O  949  1  0.50054600  0.46798000  0.45868200  1
  O  953  1  0.60814800  0.49229600  0.53477600  1
  O  977  1  0.00075200  0.04039800  0.54956700  1
  O  981  1  0.10815200  0.01597800  0.47348700  1
  O  1005  1  0.51352100  0.03792500  0.45689500  1
  O  1009  1  0.39652100  0.01728200  0.53237900  1
  O  1033  1  0.01333800  0.47037800  0.55133900  1
  O  1037  1  0.89654900  0.49113000  0.47584200  1
  O  1061  1  0.24812700  0.19650500  0.96581400  1
  O  1065  1  0.33138800  0.16162000  0.88872300  1
  O  1089  1  0.74826900  0.31167600  0.04241200  1
  O  1093  1  0.83181700  0.34664500  0.11945700  1
  O  1117  1  0.49858400  0.29314700  0.94736600  1
  O  1121  1  0.58217800  0.36979500  0.91164700  1
  O  1145  1  0.99875100  0.21516500  0.06086200  1
  O  1149  1  0.08286300  0.13858100  0.09666100  1
  O  1173  1  0.75135500  0.80868200  0.04138800  1
  O  1177  1  0.68157500  0.84596900  0.12119300  1
  O  1201  1  0.25113500  0.69968900  0.96688700  1
  O  1205  1  0.18125600  0.66228900  0.88708600  1
  O  1229  1  0.51382200  0.71161600  0.06290600  1
  O  1233  1  0.40952400  0.63745100  0.10054600  1
  O  1257  1  0.01375500  0.79669300  0.94555100  1
  O  1261  1  0.90905200  0.87074100  0.90778200  1
  O  1285  1  0.74384500  0.69546300  0.46183700  1
  O  1289  1  0.84835800  0.65792400  0.38782400  1
  O  1313  1  0.24400500  0.81271500  0.54642800  1
  O  1317  1  0.34900400  0.85038300  0.62037300  1
  O  1341  1  0.00691900  0.79103700  0.44976900  1
  O  1345  1  0.07600200  0.87082400  0.41258900  1
  O  1369  1  0.50689300  0.71724400  0.55842200  1
  O  1373  1  0.57652100  0.63749000  0.59571000  1
  O  1397  1  0.25443100  0.30920300  0.54498000  1
  O  1401  1  0.16390700  0.35003500  0.62280700  1
  O  1425  1  0.75425000  0.19915300  0.46326800  1
  O  1429  1  0.66350500  0.15821400  0.38547900  1
  O  1453  1  0.00545500  0.21371300  0.56013800  1
  O  1457  1  0.91385400  0.13569200  0.60023100  1
  O  1481  1  0.50523100  0.29456300  0.44829500  1
  O  1485  1  0.41339800  0.37253200  0.40810300  1
