# generated using pymatgen
data_H34C47N10
_symmetry_space_group_name_H-M   'P 1'
_cell_length_a   57.80410000
_cell_length_b   83.52830000
_cell_length_c   83.52830000
_cell_angle_alpha   120.00000000
_cell_angle_beta   90.00000000
_cell_angle_gamma   90.00000000
_symmetry_Int_Tables_number   1
_chemical_formula_structural   H34C47N10
_chemical_formula_sum   'H816 C1128 N240'
_cell_volume   349266.20112502
_cell_formula_units_Z   24
loop_
 _symmetry_equiv_pos_site_id
 _symmetry_equiv_pos_as_xyz
  1  'x, y, z'
loop_
 _atom_site_type_symbol
 _atom_site_label
 _atom_site_symmetry_multiplicity
 _atom_site_fract_x
 _atom_site_fract_y
 _atom_site_fract_z
 _atom_site_occupancy
  H  26  1  0.85847300  0.72081900  0.15699600  1
  H  27  1  0.84759100  0.69395600  0.12991200  1
  H  28  1  0.92786100  0.70315500  0.14772500  1
  H  29  1  0.91687600  0.67610000  0.11983000  1
  H  30  1  0.90631900  0.63477300  0.09541700  1
  H  31  1  0.90774100  0.61287700  0.10540800  1
  H  32  1  0.85314400  0.64045200  0.14264900  1
  H  33  1  0.85100500  0.66202900  0.13203600  1
  H  34  1  0.83450700  0.64069900  0.09776700  1
  H  35  1  0.79592500  0.64478200  0.09151200  1
  H  36  1  0.81605500  0.69080900  0.08673000  1
  H  37  1  0.85481900  0.68689900  0.09347500  1
  H  38  1  0.90850200  0.67960000  0.09161100  1
  H  39  1  0.86906300  0.63089400  0.07172700  1
  H  40  1  0.88786300  0.61817700  0.04302400  1
  H  41  1  0.92808900  0.66651100  0.06264000  1
  H  44  1  0.88053600  0.61598200  0.14401200  1
  H  45  1  0.91392400  0.72878700  0.17898300  1
  H  47  1  0.77552000  0.68258900  0.08439000  1
  H  49  1  0.91425700  0.62028200  0.02260400  1
  H  75  1  0.85849200  0.43834100  0.27078200  1
  H  76  1  0.84760800  0.43810600  0.29763500  1
  H  77  1  0.92788100  0.44669100  0.28843700  1
  H  78  1  0.91688700  0.44583900  0.31548100  1
  H  79  1  0.90632500  0.46275500  0.35681000  1
  H  80  1  0.90775700  0.49464300  0.37870300  1
  H  81  1  0.85317200  0.50431700  0.35112600  1
  H  82  1  0.85102300  0.47212800  0.32955100  1
  H  83  1  0.83451500  0.45918700  0.35088500  1
  H  84  1  0.79593000  0.44885300  0.34680400  1
  H  85  1  0.81605000  0.39804900  0.30076600  1
  H  86  1  0.85481600  0.40869700  0.30467500  1
  H  87  1  0.90850500  0.41412500  0.31199000  1
  H  88  1  0.86906000  0.44295600  0.36069300  1
  H  89  1  0.88785600  0.42697200  0.37341500  1
  H  90  1  0.92808600  0.39824700  0.32508400  1
  H  93  1  0.88058000  0.53014600  0.37559800  1
  H  94  1  0.91395400  0.45233000  0.26281000  1
  H  96  1  0.77550700  0.40394600  0.30896200  1
  H  98  1  0.91426100  0.40446000  0.37132200  1
  H  124  1  0.85845700  0.83457300  0.55323700  1
  H  125  1  0.84758800  0.86166600  0.55348000  1
  H  126  1  0.92784900  0.84385600  0.54487500  1
  H  127  1  0.91687000  0.87176100  0.54574000  1
  H  128  1  0.90631700  0.89618300  0.52882900  1
  H  129  1  0.90775000  0.88618800  0.49694100  1
  H  130  1  0.85316400  0.84893600  0.48726800  1
  H  131  1  0.85101400  0.85955000  0.51945400  1
  H  132  1  0.83450800  0.89383200  0.53239800  1
  H  133  1  0.79592500  0.90009700  0.54273400  1
  H  134  1  0.81603900  0.90486500  0.59354000  1
  H  135  1  0.85480400  0.89811400  0.58288800  1
  H  136  1  0.90849500  0.89998800  0.57745700  1
  H  137  1  0.86905800  0.91986800  0.54863000  1
  H  138  1  0.88785400  0.94857400  0.56461900  1
  H  139  1  0.92807500  0.92896300  0.59334400  1
  H  142  1  0.88057000  0.84757800  0.46143900  1
  H  143  1  0.91389000  0.81258700  0.53921600  1
  H  145  1  0.77550200  0.90717600  0.58764600  1
  H  147  1  0.91423900  0.96899700  0.58715000  1
  H  173  1  0.35845300  0.27499700  0.83036500  1
  H  174  1  0.34757800  0.30185000  0.85745600  1
  H  175  1  0.42783700  0.29266700  0.83963300  1
  H  176  1  0.41685300  0.31970900  0.86752900  1
  H  177  1  0.40629500  0.36103500  0.89195000  1
  H  178  1  0.40771000  0.38292300  0.88195000  1
  H  179  1  0.35311700  0.35533100  0.84470900  1
  H  180  1  0.35098600  0.33376100  0.85532800  1
  H  181  1  0.33449600  0.35511400  0.88961900  1
  H  182  1  0.29591400  0.35103900  0.89588300  1
  H  183  1  0.31602800  0.30498500  0.90062000  1
  H  184  1  0.35479200  0.30888900  0.89387200  1
  H  185  1  0.40848400  0.31621300  0.89577100  1
  H  186  1  0.36905000  0.36492000  0.91564000  1
  H  187  1  0.38784700  0.37764100  0.94434500  1
  H  188  1  0.42806500  0.32930400  0.92474300  1
  H  191  1  0.38049400  0.37980900  0.84334500  1
  H  192  1  0.41388800  0.26704300  0.80837000  1
  H  194  1  0.27549500  0.31319600  0.90294300  1
  H  196  1  0.41423400  0.37553700  0.96477100  1
  H  222  1  0.35850100  0.55746200  0.71657800  1
  H  223  1  0.34761900  0.55768200  0.68971700  1
  H  224  1  0.42789700  0.54913300  0.69894400  1
  H  225  1  0.41691000  0.54996800  0.67188800  1
  H  226  1  0.40634900  0.53305300  0.63056700  1
  H  227  1  0.40778300  0.50116800  0.60866500  1
  H  228  1  0.35317100  0.49148200  0.63621300  1
  H  229  1  0.35102100  0.52366700  0.65779700  1
  H  230  1  0.33453000  0.53662700  0.63646500  1
  H  231  1  0.29594500  0.54696100  0.64054500  1
  H  232  1  0.31604900  0.59773600  0.68663100  1
  H  233  1  0.35481400  0.58708900  0.68272100  1
  H  234  1  0.40849000  0.58169200  0.67538800  1
  H  235  1  0.36907800  0.55284300  0.62667000  1
  H  236  1  0.38786200  0.56883900  0.61395800  1
  H  237  1  0.42806200  0.59758400  0.66230300  1
  H  240  1  0.38058600  0.46565900  0.61174800  1
  H  241  1  0.41396800  0.54350000  0.72457600  1
  H  243  1  0.27551400  0.59184500  0.67842200  1
  H  245  1  0.41422200  0.59139300  0.61607800  1
  H  271  1  0.35846800  0.16123300  0.43412200  1
  H  272  1  0.34760000  0.13414700  0.43389000  1
  H  273  1  0.42786600  0.15195300  0.44247400  1
  H  274  1  0.41689000  0.12405100  0.44162200  1
  H  275  1  0.40631900  0.09963200  0.45853400  1
  H  276  1  0.40775200  0.10962500  0.49042100  1
  H  277  1  0.35316400  0.14687400  0.50009600  1
  H  278  1  0.35101400  0.13626200  0.46791000  1
  H  279  1  0.33450800  0.10197800  0.45496000  1
  H  280  1  0.29592100  0.09573700  0.44463000  1
  H  281  1  0.31603700  0.09101000  0.39384100  1
  H  282  1  0.35480400  0.09773300  0.40448500  1
  H  283  1  0.40849700  0.09582500  0.40990500  1
  H  284  1  0.36905400  0.07594600  0.43873100  1
  H  285  1  0.38784800  0.04724200  0.42274400  1
  H  286  1  0.42807700  0.06685200  0.39402200  1
  H  289  1  0.38055800  0.14823100  0.52592400  1
  H  290  1  0.41389500  0.18322400  0.44813700  1
  H  292  1  0.27549700  0.08869200  0.39973200  1
  H  294  1  0.41423700  0.02681900  0.40021500  1
  H  320  1  0.06849400  0.55828300  0.83095700  1
  H  321  1  0.07931300  0.55868500  0.85813100  1
  H  322  1  0.99926700  0.54899600  0.83972400  1
  H  323  1  0.01017800  0.55000700  0.86769900  1
  H  324  1  0.02077100  0.53352900  0.89242400  1
  H  325  1  0.01944400  0.50163900  0.88236400  1
  H  326  1  0.07402800  0.49215800  0.84516700  1
  H  327  1  0.07607100  0.52436500  0.85585000  1
  H  328  1  0.09254600  0.53735000  0.89012500  1
  H  329  1  0.13106400  0.54781700  0.89645900  1
  H  330  1  0.11064500  0.59861200  0.90134700  1
  H  331  1  0.07192500  0.58782700  0.89453300  1
  H  332  1  0.01750300  0.58160100  0.89593100  1
  H  333  1  0.05816800  0.55378400  0.91626800  1
  H  334  1  0.03795300  0.56853900  0.94440400  1
  H  335  1  0.99638000  0.59609500  0.92427000  1
  H  338  1  0.04676900  0.46625700  0.84368600  1
  H  339  1  0.01332500  0.54349400  0.80859100  1
  H  341  1  0.15122300  0.59288500  0.90382700  1
  H  343  1  0.00375500  0.58389500  0.96077200  1
  H  369  1  0.06849600  0.16063800  0.71677800  1
  H  370  1  0.07931000  0.13345800  0.69000500  1
  H  371  1  0.99926000  0.15186100  0.69873800  1
  H  372  1  0.01016800  0.12388300  0.67177600  1
  H  373  1  0.02074700  0.09917100  0.63057000  1
  H  374  1  0.01940900  0.10922900  0.60874000  1
  H  375  1  0.07401800  0.14640800  0.63642400  1
  H  376  1  0.07607500  0.13573100  0.65795300  1
  H  377  1  0.09253600  0.10147800  0.63668200  1
  H  378  1  0.13105900  0.09515300  0.64081500  1
  H  379  1  0.11064800  0.09025200  0.68671600  1
  H  380  1  0.07192300  0.09705800  0.68274500  1
  H  381  1  0.01752000  0.09565000  0.67513400  1
  H  382  1  0.05815200  0.07532900  0.62696600  1
  H  383  1  0.03795500  0.04718500  0.61359000  1
  H  384  1  0.99641400  0.06730300  0.66129700  1
  H  387  1  0.04671000  0.14789700  0.61202400  1
  H  388  1  0.01329700  0.18298600  0.72437100  1
  H  390  1  0.15122500  0.08777800  0.67850900  1
  H  392  1  0.00383300  0.03076300  0.61259900  1
  H  418  1  0.06850100  0.27478400  0.43327600  1
  H  419  1  0.07933400  0.30156100  0.43287300  1
  H  420  1  0.99928400  0.29287200  0.44260200  1
  H  421  1  0.01020400  0.31983300  0.44159000  1
  H  422  1  0.02077400  0.36103300  0.45806700  1
  H  423  1  0.01943900  0.38286300  0.48995500  1
  H  424  1  0.07402100  0.35515600  0.49944900  1
  H  425  1  0.07607500  0.33362800  0.46723800  1
  H  426  1  0.09255300  0.35491100  0.45426300  1
  H  427  1  0.13107100  0.35078500  0.44380000  1
  H  428  1  0.11065900  0.30490200  0.39298700  1
  H  429  1  0.07193800  0.30886200  0.40376700  1
  H  430  1  0.01752400  0.31645600  0.40998800  1
  H  431  1  0.05816400  0.36462300  0.43781700  1
  H  432  1  0.03795600  0.37799400  0.42304900  1
  H  433  1  0.99640600  0.33029100  0.39548100  1
  H  436  1  0.04673400  0.37956800  0.52534300  1
  H  437  1  0.01329900  0.26721800  0.44806200  1
  H  439  1  0.15123000  0.31311600  0.39871700  1
  H  441  1  0.00380700  0.37899000  0.40764700  1
  H  467  1  0.56848200  0.43752800  0.15642100  1
  H  468  1  0.57931700  0.43711100  0.12923800  1
  H  469  1  0.49926600  0.44682800  0.14763600  1
  H  470  1  0.51019400  0.44580700  0.11966300  1
  H  471  1  0.52077500  0.46227300  0.09492700  1
  H  472  1  0.51943400  0.49416100  0.10498600  1
  H  473  1  0.57400500  0.50366100  0.14219900  1
  H  474  1  0.57606100  0.47145300  0.13151600  1
  H  475  1  0.59254800  0.45846900  0.09725200  1
  H  476  1  0.63106600  0.44800300  0.09091100  1
  H  477  1  0.61065200  0.39720000  0.08600600  1
  H  478  1  0.57193400  0.40798200  0.09282500  1
  H  479  1  0.51750300  0.41421500  0.09144100  1
  H  480  1  0.55816300  0.44203000  0.07109800  1
  H  481  1  0.53794000  0.42728000  0.04296700  1
  H  482  1  0.49637200  0.39972400  0.06310500  1
  H  485  1  0.54671200  0.52955200  0.14367100  1
  H  486  1  0.51326700  0.45229000  0.17875600  1
  H  488  1  0.65123100  0.40293600  0.08354600  1
  H  490  1  0.50370500  0.41195300  0.02662600  1
  H  516  1  0.56851200  0.83517000  0.27057300  1
  H  517  1  0.57933300  0.86236000  0.29733300  1
  H  518  1  0.49929900  0.84393100  0.28866000  1
  H  519  1  0.51021200  0.87191400  0.31560400  1
  H  520  1  0.52078900  0.89666500  0.35680900  1
  H  521  1  0.51945000  0.88660200  0.37863500  1
  H  522  1  0.57401000  0.84938200  0.35091100  1
  H  523  1  0.57606800  0.86006800  0.32939000  1
  H  524  1  0.59255700  0.89434000  0.35067900  1
  H  525  1  0.63107100  0.90069000  0.34656300  1
  H  526  1  0.61066500  0.90560300  0.30066900  1
  H  527  1  0.57194600  0.89877400  0.30462200  1
  H  528  1  0.51750500  0.90014100  0.31223200  1
  H  529  1  0.55816800  0.92049400  0.36038800  1
  H  530  1  0.53793100  0.94862000  0.37377100  1
  H  531  1  0.49635600  0.92846900  0.32608000  1
  H  534  1  0.54672600  0.84790800  0.37533100  1
  H  535  1  0.51333400  0.81280900  0.26301700  1
  H  537  1  0.65123800  0.90807200  0.30887200  1
  H  539  1  0.50363400  0.96491200  0.37479100  1
  H  565  1  0.56851400  0.72102800  0.55408000  1
  H  566  1  0.57933600  0.69426300  0.55450300  1
  H  567  1  0.49930600  0.70292400  0.54472000  1
  H  568  1  0.51022200  0.67597500  0.54574900  1
  H  569  1  0.52079600  0.63477700  0.52931200  1
  H  570  1  0.51947000  0.61294700  0.49742300  1
  H  571  1  0.57403600  0.64067500  0.48793700  1
  H  572  1  0.57607900  0.66220100  0.52014300  1
  H  573  1  0.59255500  0.64090100  0.53312600  1
  H  574  1  0.63107300  0.64502000  0.54359000  1
  H  575  1  0.61067300  0.69093900  0.59438100  1
  H  576  1  0.57195600  0.68698300  0.58360400  1
  H  577  1  0.51750500  0.67935800  0.57736800  1
  H  578  1  0.55816700  0.63120000  0.54956700  1
  H  579  1  0.53792400  0.61781800  0.56431100  1
  H  580  1  0.49635300  0.66551200  0.59184900  1
  H  583  1  0.54676900  0.61624800  0.46203900  1
  H  584  1  0.51333400  0.72857800  0.53926000  1
  H  586  1  0.65124500  0.68272900  0.58864800  1
  H  588  1  0.50362200  0.61679800  0.57957500  1
  H  614  1  0.06987500  0.27513600  0.83126900  1
  H  615  1  0.08088800  0.30301600  0.85737900  1
  H  616  1  0.99984300  0.29078300  0.84264400  1
  H  617  1  0.01110500  0.31904800  0.86920900  1
  H  618  1  0.02213700  0.36073700  0.89097400  1
  H  619  1  0.02413700  0.38395000  0.88274500  1
  H  620  1  0.08164900  0.35708000  0.84863900  1
  H  621  1  0.08007800  0.33424100  0.85738900  1
  H  622  1  0.09352900  0.35596700  0.89285800  1
  H  623  1  0.13179900  0.35184800  0.89982000  1
  H  624  1  0.11142500  0.30377500  0.90071400  1
  H  625  1  0.07294000  0.30779700  0.89336000  1
  H  626  1  0.02095100  0.31605300  0.89698900  1
  H  627  1  0.05790000  0.36576000  0.91590100  1
  H  628  1  0.03870400  0.37863300  0.94446200  1
  H  629  1  0.00096100  0.32925400  0.92576800  1
  H  632  1  0.07175500  0.38799300  0.85564600  1
  H  633  1  0.01128700  0.25789700  0.81912400  1
  H  635  1  0.15141000  0.31526600  0.90842400  1
  H  637  1  0.01300300  0.37618700  0.96518200  1
  H  663  1  0.06992100  0.55828900  0.71646700  1
  H  664  1  0.08091900  0.55647900  0.68856300  1
  H  665  1  0.99987600  0.55408900  0.70087600  1
  H  666  1  0.01112300  0.55233400  0.67258000  1
  H  667  1  0.02214100  0.53238100  0.63087400  1
  H  668  1  0.02413200  0.50093500  0.60765700  1
  H  669  1  0.08164900  0.49369700  0.63452100  1
  H  670  1  0.08008300  0.52528600  0.65736000  1
  H  671  1  0.09354600  0.53902000  0.63563300  1
  H  672  1  0.13182700  0.55008900  0.63976400  1
  H  673  1  0.11145100  0.59906700  0.68782600  1
  H  674  1  0.07295900  0.58770400  0.68379400  1
  H  675  1  0.02095900  0.58307500  0.67553700  1
  H  676  1  0.05791900  0.55227900  0.62583500  1
  H  677  1  0.03871600  0.56795500  0.61295300  1
  H  678  1  0.00096300  0.59864200  0.66232800  1
  H  681  1  0.07173600  0.46978100  0.60362200  1
  H  682  1  0.01147400  0.56371000  0.73386900  1
  H  684  1  0.15144300  0.59527300  0.67632200  1
  H  686  1  0.01301000  0.59111600  0.61539300  1
  H  712  1  0.06992800  0.16030600  0.43329400  1
  H  713  1  0.08091900  0.13422100  0.43512700  1
  H  714  1  0.99987600  0.14890400  0.43745400  1
  H  715  1  0.01111400  0.12237400  0.43923400  1
  H  716  1  0.02211800  0.10065000  0.45921700  1
  H  717  1  0.02410100  0.10889500  0.49067200  1
  H  718  1  0.08164400  0.14296700  0.49789600  1
  H  719  1  0.08008800  0.13420200  0.46630300  1
  H  720  1  0.09353500  0.09874100  0.45256800  1
  H  721  1  0.13181000  0.09178100  0.44148800  1
  H  722  1  0.11142900  0.09085300  0.39250500  1
  H  723  1  0.07294000  0.09820900  0.40388400  1
  H  724  1  0.02096800  0.09459100  0.40850700  1
  H  725  1  0.05790100  0.07569600  0.43932300  1
  H  726  1  0.03869900  0.04713700  0.42364500  1
  H  727  1  0.00096900  0.06581500  0.39294100  1
  H  730  1  0.07170800  0.13601700  0.52182500  1
  H  731  1  0.01153300  0.17222300  0.42774700  1
  H  733  1  0.15141400  0.08310700  0.39628900  1
  H  735  1  0.01300500  0.02641100  0.40047500  1
  H  761  1  0.56989400  0.72068500  0.15608800  1
  H  762  1  0.58090200  0.69277700  0.13000100  1
  H  763  1  0.49985200  0.70509200  0.14467900  1
  H  764  1  0.51110600  0.67679400  0.11814500  1
  H  765  1  0.52212800  0.63508800  0.09640000  1
  H  766  1  0.52411400  0.61187500  0.10463100  1
  H  767  1  0.58165300  0.63871000  0.13870700  1
  H  768  1  0.58009600  0.66155500  0.12996400  1
  H  769  1  0.59354100  0.63985900  0.09454500  1
  H  770  1  0.63181700  0.64398400  0.08759300  1
  H  771  1  0.61142900  0.69202000  0.08663400  1
  H  772  1  0.57293700  0.68799500  0.09398400  1
  H  773  1  0.52095800  0.67975100  0.09036700  1
  H  774  1  0.55791400  0.63004800  0.07147300  1
  H  775  1  0.53871600  0.61716500  0.04291000  1
  H  776  1  0.50096700  0.66653900  0.06158900  1
  H  779  1  0.57176400  0.60779200  0.13167700  1
  H  780  1  0.51144000  0.73808100  0.16804800  1
  H  782  1  0.65140900  0.68049600  0.07889300  1
  H  784  1  0.51301200  0.61960200  0.02218500  1
  H  810  1  0.56992500  0.43750400  0.27088700  1
  H  811  1  0.58092800  0.43933300  0.29880000  1
  H  812  1  0.49988000  0.44170700  0.28648200  1
  H  813  1  0.51112800  0.44348100  0.31478700  1
  H  814  1  0.52213100  0.46343900  0.35649300  1
  H  815  1  0.52412800  0.49488200  0.37971600  1
  H  816  1  0.58165300  0.50212700  0.35286700  1
  H  817  1  0.58008000  0.47053100  0.33001600  1
  H  818  1  0.59354500  0.45681200  0.35173400  1
  H  819  1  0.63182000  0.44573800  0.34760600  1
  H  820  1  0.61143400  0.39673800  0.29957400  1
  H  821  1  0.57294400  0.40810900  0.30359900  1
  H  822  1  0.52096500  0.41274200  0.31182800  1
  H  823  1  0.55790500  0.44354800  0.36153700  1
  H  824  1  0.53870300  0.42786900  0.37441700  1
  H  825  1  0.50096700  0.39717300  0.32503500  1
  H  828  1  0.57175200  0.52602300  0.38377300  1
  H  829  1  0.51149000  0.43205000  0.25347600  1
  H  831  1  0.65142100  0.40053200  0.31108600  1
  H  833  1  0.51301100  0.40469500  0.37196800  1
  H  859  1  0.56990300  0.83550100  0.55405700  1
  H  860  1  0.58091200  0.86159500  0.55225100  1
  H  861  1  0.49986600  0.84690100  0.54984100  1
  H  862  1  0.51112700  0.87344100  0.54809400  1
  H  863  1  0.52213600  0.89519000  0.52814700  1
  H  864  1  0.52413400  0.88696800  0.49670600  1
  H  865  1  0.58165600  0.85287000  0.48946700  1
  H  866  1  0.58008000  0.86162000  0.52106400  1
  H  867  1  0.59353400  0.89707100  0.53478400  1
  H  868  1  0.63180800  0.90403100  0.54585800  1
  H  869  1  0.61144000  0.90497500  0.59485000  1
  H  870  1  0.57295100  0.89761900  0.58347800  1
  H  871  1  0.52097000  0.90122600  0.57885100  1
  H  872  1  0.55790200  0.92012300  0.54803600  1
  H  873  1  0.53870400  0.94868400  0.56371800  1
  H  874  1  0.50097900  0.93000500  0.59442400  1
  H  877  1  0.57174500  0.85986000  0.46555500  1
  H  878  1  0.51142900  0.82351900  0.55944300  1
  H  880  1  0.65142800  0.91264300  0.59104800  1
  H  882  1  0.51301800  0.96941200  0.58689600  1
  H  908  1  0.85707000  0.43682400  0.15558700  1
  H  909  1  0.84599800  0.43833600  0.12935800  1
  H  910  1  0.92696200  0.44222400  0.14473800  1
  H  911  1  0.91564000  0.44363200  0.11804300  1
  H  912  1  0.90455800  0.46302200  0.09598200  1
  H  913  1  0.90251800  0.49448000  0.10432500  1
  H  914  1  0.84508000  0.50156000  0.13844700  1
  H  915  1  0.84670500  0.46993300  0.12958600  1
  H  916  1  0.83317100  0.45623200  0.09418000  1
  H  917  1  0.79495600  0.44505200  0.08717400  1
  H  918  1  0.81563300  0.39598200  0.08593700  1
  H  919  1  0.85408400  0.40746300  0.09333900  1
  H  920  1  0.90678800  0.41282500  0.09018500  1
  H  921  1  0.86859300  0.44279000  0.07095200  1
  H  922  1  0.88894700  0.42815800  0.04288100  1
  H  923  1  0.92805100  0.39841800  0.06194300  1
  H  926  1  0.85505400  0.52564500  0.13170600  1
  H  927  1  0.91603800  0.43333800  0.16855900  1
  H  929  1  0.77557800  0.39972800  0.07828900  1
  H  931  1  0.92130900  0.41091200  0.02537900  1
  H  957  1  0.85706800  0.83600200  0.27070000  1
  H  958  1  0.84599900  0.86223000  0.29844400  1
  H  959  1  0.92696300  0.84685200  0.28693700  1
  H  960  1  0.91564600  0.87354500  0.31504400  1
  H  961  1  0.90457100  0.89559100  0.35649700  1
  H  962  1  0.90252900  0.88723600  0.37960500  1
  H  963  1  0.84507400  0.85313700  0.35257200  1
  H  964  1  0.84669600  0.86200800  0.32981300  1
  H  965  1  0.83318200  0.89742000  0.35152100  1
  H  966  1  0.79496600  0.90442900  0.34734800  1
  H  967  1  0.81563800  0.90562200  0.29949000  1
  H  968  1  0.85408700  0.89822300  0.30357200  1
  H  969  1  0.90678300  0.90140700  0.31210100  1
  H  970  1  0.86861300  0.92062800  0.36130900  1
  H  971  1  0.88896500  0.94869900  0.37474900  1
  H  972  1  0.92804400  0.92965200  0.32593700  1
  H  975  1  0.85506000  0.85985600  0.38338600  1
  H  976  1  0.91602100  0.82304900  0.25421600  1
  H  978  1  0.77558400  0.91326000  0.31087100  1
  H  980  1  0.92130900  0.96621200  0.37499800  1
  H  1006  1  0.85707900  0.72088200  0.55475700  1
  H  1007  1  0.84601100  0.69312200  0.55321100  1
  H  1008  1  0.92698300  0.70467900  0.54943100  1
  H  1009  1  0.91567000  0.67655400  0.54798500  1
  H  1010  1  0.90457900  0.63509100  0.52854600  1
  H  1011  1  0.90254600  0.61198400  0.49708200  1
  H  1012  1  0.84507600  0.63900200  0.49001300  1
  H  1013  1  0.84668800  0.66175900  0.52164400  1
  H  1014  1  0.83318800  0.64005800  0.53535700  1
  H  1015  1  0.79497300  0.64423400  0.54654300  1
  H  1016  1  0.81564500  0.69210500  0.59558000  1
  H  1017  1  0.85409200  0.68802400  0.58409600  1
  H  1018  1  0.90676500  0.67948700  0.57877300  1
  H  1019  1  0.86862300  0.63026800  0.54876000  1
  H  1020  1  0.88896700  0.61683000  0.56339400  1
  H  1021  1  0.92802100  0.66565300  0.59318400  1
  H  1024  1  0.85505200  0.60817400  0.46593300  1
  H  1025  1  0.91599200  0.73742900  0.55843100  1
  H  1027  1  0.77560100  0.68069100  0.59185800  1
  H  1029  1  0.92128700  0.61658800  0.58068300  1
  H  1055  1  0.35716000  0.55893900  0.83175700  1
  H  1056  1  0.34605500  0.55753200  0.85802900  1
  H  1057  1  0.42701200  0.55332400  0.84254300  1
  H  1058  1  0.41565800  0.55205000  0.86929700  1
  H  1059  1  0.40452200  0.53278000  0.89142500  1
  H  1060  1  0.40247900  0.50131500  0.88306700  1
  H  1061  1  0.34510200  0.49423400  0.84889200  1
  H  1062  1  0.34673000  0.52586500  0.85776400  1
  H  1063  1  0.33315300  0.53957100  0.89316900  1
  H  1064  1  0.29494100  0.55075800  0.90016400  1
  H  1065  1  0.31565100  0.59981800  0.90139600  1
  H  1066  1  0.35410000  0.58833000  0.89400400  1
  H  1067  1  0.40685600  0.58292100  0.89714800  1
  H  1068  1  0.36855000  0.55305300  0.91643800  1
  H  1069  1  0.38891400  0.56768100  0.94450300  1
  H  1070  1  0.42812600  0.59732400  0.92538900  1
  H  1073  1  0.35504300  0.47015200  0.85564600  1
  H  1074  1  0.41639300  0.56155800  0.81834600  1
  H  1076  1  0.27559300  0.59609400  0.90909300  1
  H  1078  1  0.42137000  0.58483800  0.96194800  1
  H  1104  1  0.35706900  0.15979900  0.71666400  1
  H  1105  1  0.34600200  0.13359100  0.68889800  1
  H  1106  1  0.42697500  0.14892400  0.70046600  1
  H  1107  1  0.41566300  0.12225300  0.67233300  1
  H  1108  1  0.40457400  0.10022300  0.63086800  1
  H  1109  1  0.40254500  0.10858400  0.60776100  1
  H  1110  1  0.34508800  0.14268400  0.63479000  1
  H  1111  1  0.34669700  0.13380500  0.65754200  1
  H  1112  1  0.33317200  0.09840400  0.63584500  1
  H  1113  1  0.29495400  0.09141000  0.64003200  1
  H  1114  1  0.31564200  0.09018600  0.68787000  1
  H  1115  1  0.35409500  0.09758100  0.68378000  1
  H  1116  1  0.40677400  0.09439800  0.67525600  1
  H  1117  1  0.36859500  0.07518300  0.62605300  1
  H  1118  1  0.38894200  0.04710900  0.61261200  1
  H  1119  1  0.42802900  0.06615300  0.66141900  1
  H  1122  1  0.35506300  0.13594300  0.60396700  1
  H  1123  1  0.41595500  0.17263700  0.73324300  1
  H  1125  1  0.27559200  0.08248300  0.67643400  1
  H  1127  1  0.42125900  0.02957300  0.61236500  1
  H  1153  1  0.35704400  0.27492200  0.43258600  1
  H  1154  1  0.34599500  0.30270600  0.43417000  1
  H  1155  1  0.42696800  0.29106000  0.43783200  1
  H  1156  1  0.41567500  0.31921300  0.43932800  1
  H  1157  1  0.40460500  0.36069600  0.45881000  1
  H  1158  1  0.40257700  0.38380700  0.49027200  1
  H  1159  1  0.34506600  0.35683000  0.49734100  1
  H  1160  1  0.34667500  0.33406400  0.46571500  1
  H  1161  1  0.33319000  0.35573900  0.45202300  1
  H  1162  1  0.29497100  0.35156500  0.44084300  1
  H  1163  1  0.31564800  0.30373200  0.39177400  1
  H  1164  1  0.35410200  0.30781100  0.40325700  1
  H  1165  1  0.40675900  0.31632400  0.40857600  1
  H  1166  1  0.36862700  0.36554300  0.43861100  1
  H  1167  1  0.38896400  0.37898700  0.42397700  1
  H  1168  1  0.42800500  0.33016100  0.39416500  1
  H  1171  1  0.35503400  0.38767000  0.52140000  1
  H  1172  1  0.41586400  0.25823500  0.42864700  1
  H  1174  1  0.27561100  0.31518700  0.39550300  1
  H  1176  1  0.42124000  0.37922200  0.40664700  1
  H  1187  1  0.87123500  0.82473500  0.20221800  1
  H  1188  1  0.89823800  0.74868000  0.21281600  1
  H  1189  1  0.89692200  0.77649500  0.24237900  1
  H  1192  1  0.85835200  0.78795100  0.16040600  1
  H  1193  1  0.90610400  0.80184800  0.16223200  1
  H  1194  1  0.88703000  0.79391900  0.14322100  1
  H  1195  1  0.89767300  0.77818400  0.14986600  1
  H  1208  1  0.87120900  0.37961900  0.16687500  1
  H  1209  1  0.89825800  0.46627100  0.24290600  1
  H  1210  1  0.89692300  0.46801400  0.21508700  1
  H  1213  1  0.85837400  0.37460300  0.20367500  1
  H  1214  1  0.90610300  0.36250600  0.18972700  1
  H  1215  1  0.88704400  0.35143600  0.19767800  1
  H  1216  1  0.89771300  0.37381200  0.21340200  1
  H  1229  1  0.87125000  0.78934000  0.61193800  1
  H  1230  1  0.89822400  0.77875900  0.52528900  1
  H  1231  1  0.89693700  0.74919900  0.52354600  1
  H  1234  1  0.85830600  0.83113700  0.61695700  1
  H  1235  1  0.90605700  0.82936500  0.62906100  1
  H  1236  1  0.88695000  0.84835400  0.64012800  1
  H  1237  1  0.89761000  0.84172000  0.61775500  1
  H  1250  1  0.37131500  0.17105400  0.78509100  1
  H  1251  1  0.39817300  0.24716100  0.77454800  1
  H  1252  1  0.39689100  0.21935600  0.74498300  1
  H  1255  1  0.35836100  0.20781700  0.82689900  1
  H  1256  1  0.40612400  0.19395600  0.82511300  1
  H  1257  1  0.38702300  0.20186500  0.84410500  1
  H  1258  1  0.39766400  0.21761500  0.83747800  1
  H  1271  1  0.37093300  0.61628700  0.82042000  1
  H  1272  1  0.39841700  0.52963000  0.74456500  1
  H  1273  1  0.39706600  0.52796300  0.77242800  1
  H  1276  1  0.35817600  0.62119800  0.78354200  1
  H  1277  1  0.40585200  0.63338700  0.79758700  1
  H  1278  1  0.38680300  0.64440300  0.78956800  1
  H  1279  1  0.39754100  0.62203700  0.77389400  1
  H  1292  1  0.37137900  0.20650200  0.37542200  1
  H  1293  1  0.39814200  0.21704100  0.46208800  1
  H  1294  1  0.39685500  0.24661000  0.46385500  1
  H  1297  1  0.35840900  0.16469900  0.37036800  1
  H  1298  1  0.40619500  0.16646900  0.35832500  1
  H  1299  1  0.38708900  0.14748400  0.34723100  1
  H  1300  1  0.39769900  0.15411000  0.36961500  1
  H  1313  1  0.05528200  0.61590900  0.78462900  1
  H  1314  1  0.02898500  0.52950400  0.77490600  1
  H  1315  1  0.03016100  0.52745900  0.74521600  1
  H  1318  1  0.06829700  0.62138400  0.82661600  1
  H  1319  1  0.02052900  0.63332200  0.82461700  1
  H  1320  1  0.03958300  0.64456500  0.84362100  1
  H  1321  1  0.02895900  0.62222900  0.83718100  1
  H  1334  1  0.05548100  0.20690600  0.82068600  1
  H  1335  1  0.02886200  0.21669400  0.74409300  1
  H  1336  1  0.03005000  0.24637300  0.77175700  1
  H  1339  1  0.06848400  0.16494300  0.78413800  1
  H  1340  1  0.02074700  0.16689700  0.79811500  1
  H  1341  1  0.03982500  0.14790500  0.79032200  1
  H  1342  1  0.02914600  0.15435700  0.77444900  1
  H  1355  1  0.05523900  0.17084600  0.37569700  1
  H  1356  1  0.02900200  0.24755100  0.46210100  1
  H  1357  1  0.03016500  0.21991300  0.46415500  1
  H  1360  1  0.06830000  0.20734400  0.37021600  1
  H  1361  1  0.02051100  0.19345600  0.35828700  1
  H  1362  1  0.03959000  0.20119700  0.34704100  1
  H  1363  1  0.02898300  0.21710500  0.36938000  1
  H  1376  1  0.55528100  0.37991800  0.20273100  1
  H  1377  1  0.52897500  0.46632600  0.21247200  1
  H  1378  1  0.53016000  0.46836800  0.24216100  1
  H  1381  1  0.56828900  0.37445800  0.16075000  1
  H  1382  1  0.52052600  0.36250200  0.16273600  1
  H  1383  1  0.53958700  0.35126900  0.14373500  1
  H  1384  1  0.52895200  0.37360300  0.15017800  1
  H  1397  1  0.55529700  0.78885100  0.16664800  1
  H  1398  1  0.52897000  0.77911100  0.24331200  1
  H  1399  1  0.53011800  0.74942800  0.21566000  1
  H  1402  1  0.56837500  0.83081400  0.20316500  1
  H  1403  1  0.52060700  0.82888300  0.18925200  1
  H  1404  1  0.53970100  0.84786300  0.19701200  1
  H  1405  1  0.52905600  0.84142700  0.21290600  1
  H  1418  1  0.55526500  0.82495600  0.61167500  1
  H  1419  1  0.52900400  0.74827700  0.52526400  1
  H  1420  1  0.53015500  0.77592500  0.52322900  1
  H  1423  1  0.56833500  0.78844300  0.61713400  1
  H  1424  1  0.52056400  0.80235700  0.62909400  1
  H  1425  1  0.53964400  0.79460000  0.64032500  1
  H  1426  1  0.52901100  0.77870400  0.61799200  1
  H  1439  1  0.73742400  0.68465900  0.04642400  1
  H  1440  1  0.69222100  0.65484300  0.10517400  1
  H  1441  1  0.73346900  0.65392300  0.10525500  1
  H  1444  1  0.68017000  0.67881200  0.03573600  1
  H  1445  1  0.69241100  0.71720400  0.06421400  1
  H  1446  1  0.66647000  0.70557100  0.06392400  1
  H  1447  1  0.67217200  0.71075600  0.04614900  1
  H  1460  1  0.73742200  0.36389900  0.30694000  1
  H  1461  1  0.69222800  0.45246600  0.33674500  1
  H  1462  1  0.73347600  0.45346500  0.33766200  1
  H  1465  1  0.68018700  0.35907100  0.31282700  1
  H  1466  1  0.69233000  0.34916000  0.27441900  1
  H  1467  1  0.66641000  0.36050500  0.28609300  1
  H  1468  1  0.67212400  0.33754200  0.28089200  1
  H  1481  1  0.73741800  0.94519400  0.62768800  1
  H  1482  1  0.69221900  0.88643400  0.53912400  1
  H  1483  1  0.73346900  0.88634600  0.53812500  1
  H  1486  1  0.68017500  0.95590300  0.63252200  1
  H  1487  1  0.69236600  0.92741300  0.64243300  1
  H  1488  1  0.66643400  0.92772600  0.63109000  1
  H  1489  1  0.67214500  0.94549400  0.65405200  1
  H  1502  1  0.23741600  0.31114200  0.94094200  1
  H  1503  1  0.19220100  0.34099000  0.88222000  1
  H  1504  1  0.23345100  0.34189700  0.88212600  1
  H  1507  1  0.18016800  0.31700500  0.95165000  1
  H  1508  1  0.19239000  0.27861200  0.92316200  1
  H  1509  1  0.16645100  0.29025300  0.92346300  1
  H  1510  1  0.17215800  0.28506100  0.94123300  1
  H  1523  1  0.23743900  0.63190000  0.68043100  1
  H  1524  1  0.19223400  0.54333800  0.65063000  1
  H  1525  1  0.23348400  0.54233600  0.64970600  1
  H  1528  1  0.18020200  0.63673700  0.67455500  1
  H  1529  1  0.19236100  0.64664400  0.71296100  1
  H  1530  1  0.16643500  0.63530200  0.70129200  1
  H  1531  1  0.17215100  0.65826500  0.70649200  1
  H  1544  1  0.23744600  0.05066400  0.35967500  1
  H  1545  1  0.19220100  0.10939700  0.44823000  1
  H  1546  1  0.23345100  0.10949300  0.44924000  1
  H  1549  1  0.18019900  0.03994600  0.35481800  1
  H  1550  1  0.19241800  0.06843900  0.34491800  1
  H  1551  1  0.16647700  0.06813100  0.35625200  1
  H  1552  1  0.17219200  0.05036400  0.33329200  1
  H  1565  1  0.18957500  0.63285000  0.94138100  1
  H  1566  1  0.23462100  0.54420700  0.88271800  1
  H  1567  1  0.19337100  0.54325500  0.88264300  1
  H  1570  1  0.24681000  0.63762400  0.95208800  1
  H  1571  1  0.23471600  0.64748700  0.92354700  1
  H  1572  1  0.26061000  0.63612100  0.92389200  1
  H  1573  1  0.25493400  0.65910400  0.94163100  1
  H  1586  1  0.18956800  0.05021100  0.68090500  1
  H  1587  1  0.23462400  0.10888300  0.65094100  1
  H  1588  1  0.19337400  0.10895600  0.65005800  1
  H  1591  1  0.24679800  0.03949600  0.67496800  1
  H  1592  1  0.23473100  0.06804500  0.71337500  1
  H  1593  1  0.26062000  0.06768400  0.70165000  1
  H  1594  1  0.25493700  0.04995200  0.70690100  1
  H  1607  1  0.18958200  0.31068400  0.35875300  1
  H  1608  1  0.23463100  0.34067100  0.44739700  1
  H  1609  1  0.19338300  0.34156000  0.44835200  1
  H  1612  1  0.24682400  0.31659200  0.35397000  1
  H  1613  1  0.23469800  0.27819700  0.34411900  1
  H  1614  1  0.26060000  0.28989800  0.35548200  1
  H  1615  1  0.25492500  0.28464900  0.33249700  1
  H  1628  1  0.68958100  0.36296700  0.04596000  1
  H  1629  1  0.73461900  0.45161100  0.10462800  1
  H  1630  1  0.69337000  0.45256200  0.10470300  1
  H  1633  1  0.74679500  0.35820400  0.03522400  1
  H  1634  1  0.73480400  0.34835000  0.06379000  1
  H  1635  1  0.76067600  0.35971700  0.06340100  1
  H  1636  1  0.75498800  0.33673100  0.04567800  1
  H  1649  1  0.68959800  0.94563900  0.30647900  1
  H  1650  1  0.73462300  0.88695800  0.33644500  1
  H  1651  1  0.69337300  0.88689100  0.33732500  1
  H  1654  1  0.74683300  0.95634500  0.31242000  1
  H  1655  1  0.73475600  0.92779600  0.27401300  1
  H  1656  1  0.76064500  0.92815100  0.28573500  1
  H  1657  1  0.75496900  0.94588400  0.28048300  1
  H  1670  1  0.68958800  0.68514300  0.62862200  1
  H  1671  1  0.73463500  0.65513000  0.53997400  1
  H  1672  1  0.69338700  0.65425500  0.53902200  1
  H  1675  1  0.74682600  0.67922000  0.63340400  1
  H  1676  1  0.73471300  0.71761700  0.64325300  1
  H  1677  1  0.76061100  0.70591000  0.63189000  1
  H  1678  1  0.75493600  0.71116100  0.65487500  1
  H  1691  1  0.96234500  0.68382100  0.01394900  1
  H  1692  1  0.96934500  0.58807300  0.97770200  1
  H  1693  1  0.94881900  0.60215200  0.00617600  1
  H  1696  1  0.00526700  0.67040600  0.98170500  1
  H  1697  1  0.96236100  0.69184600  0.98694400  1
  H  1698  1  0.98900600  0.69497400  0.97848100  1
  H  1699  1  0.98708100  0.69978800  0.00165500  1
  H  1712  1  0.96233000  0.33224800  0.30776700  1
  H  1713  1  0.96933700  0.39173900  0.40351800  1
  H  1714  1  0.94881000  0.40613800  0.38944400  1
  H  1717  1  0.00525500  0.31341500  0.32118000  1
  H  1718  1  0.96235100  0.29721900  0.29973600  1
  H  1719  1  0.98899600  0.28562700  0.29660800  1
  H  1720  1  0.98707300  0.30398900  0.29179800  1
  H  1733  1  0.96234100  0.97763900  0.65933700  1
  H  1734  1  0.96933500  0.01390400  0.59985100  1
  H  1735  1  0.94880300  0.98543100  0.58545200  1
  H  1738  1  0.00527000  0.00988300  0.67816500  1
  H  1739  1  0.96237500  0.00463200  0.69436900  1
  H  1740  1  0.98902300  0.01309400  0.70595500  1
  H  1741  1  0.98709700  0.98992100  0.68758900  1
  H  1754  1  0.46234500  0.31199500  0.97341600  1
  H  1755  1  0.46933200  0.40774500  0.00967000  1
  H  1756  1  0.44879600  0.39366900  0.98120300  1
  H  1759  1  0.50528300  0.32540900  0.00564700  1
  H  1760  1  0.46238100  0.30396900  0.00042300  1
  H  1761  1  0.48903300  0.30084000  0.00887600  1
  H  1762  1  0.48709200  0.29602700  0.98570200  1
  H  1775  1  0.46237600  0.66355200  0.67960000  1
  H  1776  1  0.46932300  0.60405400  0.58384900  1
  H  1777  1  0.44878700  0.58967000  0.59793100  1
  H  1780  1  0.50531400  0.68236300  0.66618100  1
  H  1781  1  0.46241400  0.69858200  0.68762100  1
  H  1782  1  0.48906600  0.71016400  0.69074800  1
  H  1783  1  0.48712500  0.69180500  0.69556400  1
  H  1796  1  0.46236700  0.01817700  0.32803900  1
  H  1797  1  0.46933200  0.98192500  0.38753800  1
  H  1798  1  0.44879700  0.01039100  0.40192500  1
  H  1801  1  0.50530700  0.98594600  0.30922500  1
  H  1802  1  0.46240500  0.99116800  0.29300800  1
  H  1803  1  0.48905700  0.98271400  0.28142600  1
  H  1804  1  0.48711600  0.00588900  0.29978600  1
  H  1817  1  0.96537400  0.31224000  0.97367100  1
  H  1818  1  0.95713300  0.40789600  0.00969000  1
  H  1819  1  0.97821200  0.39397100  0.98144400  1
  H  1822  1  0.92190500  0.32537400  0.00548600  1
  H  1823  1  0.96492400  0.30416800  0.00060000  1
  H  1824  1  0.93818000  0.30088200  0.00881700  1
  H  1825  1  0.94041200  0.29610400  0.98566900  1
  H  1838  1  0.96537800  0.66355500  0.67933600  1
  H  1839  1  0.95713300  0.60391300  0.58368100  1
  H  1840  1  0.97821800  0.58959600  0.59760800  1
  H  1843  1  0.92190200  0.68223200  0.66619700  1
  H  1844  1  0.96491300  0.69855400  0.68741200  1
  H  1845  1  0.93816700  0.71005400  0.69069500  1
  H  1846  1  0.94039900  0.69168400  0.69547000  1
  H  1859  1  0.96538600  0.01791200  0.32803100  1
  H  1860  1  0.95713700  0.98190000  0.38767400  1
  H  1861  1  0.97821600  0.01014600  0.40199300  1
  H  1864  1  0.92191800  0.98609300  0.30934800  1
  H  1865  1  0.96493600  0.99098100  0.29303000  1
  H  1866  1  0.93819300  0.98276100  0.28152500  1
  H  1867  1  0.94042200  0.00591100  0.29989500  1
  H  1880  1  0.46538100  0.68355300  0.01369500  1
  H  1881  1  0.45715000  0.58789600  0.97767300  1
  H  1882  1  0.47823300  0.60182000  0.00591400  1
  H  1885  1  0.42190500  0.67042100  0.98188600  1
  H  1886  1  0.46492400  0.69162300  0.98676400  1
  H  1887  1  0.43817900  0.69491100  0.97855000  1
  H  1888  1  0.44041600  0.69969000  0.00169800  1
  H  1901  1  0.46538300  0.33225800  0.30802900  1
  H  1902  1  0.45712400  0.39190500  0.40368200  1
  H  1903  1  0.47820900  0.40622200  0.38975500  1
  H  1906  1  0.42190800  0.31357800  0.32116800  1
  H  1907  1  0.46492100  0.29726000  0.29995200  1
  H  1908  1  0.43817500  0.28575700  0.29667000  1
  H  1909  1  0.44040300  0.30412900  0.29189500  1
  H  1922  1  0.46538100  0.97790300  0.65932900  1
  H  1923  1  0.45712700  0.01391500  0.59968600  1
  H  1924  1  0.47821600  0.98567100  0.58536900  1
  H  1927  1  0.42190300  0.00971500  0.67800500  1
  H  1928  1  0.46491500  0.00482800  0.69433000  1
  H  1929  1  0.43816700  0.01304200  0.70582800  1
  H  1930  1  0.44040300  0.98989600  0.68745900  1
  H  1943  1  0.84686500  0.57405800  0.17610400  1
  H  1944  1  0.89803700  0.56288200  0.09495400  1
  H  1945  1  0.89897000  0.53443200  0.09524100  1
  H  1948  1  0.85480800  0.61827500  0.18501900  1
  H  1949  1  0.81303100  0.59894500  0.18720300  1
  H  1950  1  0.81966300  0.62258200  0.20182200  1
  H  1951  1  0.83728100  0.60549200  0.20237400  1
  H  1964  1  0.84678700  0.60413300  0.41751400  1
  H  1965  1  0.89809400  0.53420600  0.42869500  1
  H  1966  1  0.89902200  0.56295000  0.45714100  1
  H  1969  1  0.85472200  0.56882600  0.37329700  1
  H  1970  1  0.81294100  0.59032100  0.39264400  1
  H  1971  1  0.81954900  0.58129700  0.36900200  1
  H  1972  1  0.83716500  0.59895300  0.38607900  1
  H  1985  1  0.84675900  0.81551600  0.38745400  1
  H  1986  1  0.89808800  0.89661500  0.45737900  1
  H  1987  1  0.89900600  0.89632200  0.42863900  1
  H  1990  1  0.85470100  0.80660100  0.42275900  1
  H  1991  1  0.81291800  0.80446200  0.40126900  1
  H  1992  1  0.81952300  0.78984200  0.41029100  1
  H  1993  1  0.83713700  0.78926100  0.39263300  1
  H  2006  1  0.34685500  0.42173800  0.81124900  1
  H  2007  1  0.39800300  0.43290800  0.89240500  1
  H  2008  1  0.39894800  0.46135600  0.89211500  1
  H  2011  1  0.35478000  0.37752000  0.80233500  1
  H  2012  1  0.31301100  0.39685700  0.80014800  1
  H  2013  1  0.31963700  0.37322000  0.78553100  1
  H  2014  1  0.33726200  0.39030500  0.78497800  1
  H  2027  1  0.34673400  0.39169200  0.56982200  1
  H  2028  1  0.39814700  0.46159600  0.55866100  1
  H  2029  1  0.39907800  0.43285000  0.53021700  1
  H  2032  1  0.35465200  0.42700200  0.61404400  1
  H  2033  1  0.31287600  0.40551100  0.59467700  1
  H  2034  1  0.31946400  0.41453800  0.61832300  1
  H  2035  1  0.33708600  0.39687700  0.60125600  1
  H  2048  1  0.34681500  0.18031500  0.59992000  1
  H  2049  1  0.39807400  0.09919000  0.52998300  1
  H  2050  1  0.39900800  0.09948800  0.55872500  1
  H  2053  1  0.35474500  0.18921900  0.56460700  1
  H  2054  1  0.31297000  0.19138500  0.58611700  1
  H  2055  1  0.31958300  0.20599800  0.57709000  1
  H  2056  1  0.33720300  0.20657200  0.59474100  1
  H  2069  1  0.08037600  0.39223300  0.81140100  1
  H  2070  1  0.02869400  0.46190300  0.89247300  1
  H  2071  1  0.02760600  0.43307200  0.89199200  1
  H  2074  1  0.07272900  0.42771400  0.80271400  1
  H  2075  1  0.11441500  0.40614500  0.80061200  1
  H  2076  1  0.10799100  0.41529300  0.78607100  1
  H  2077  1  0.09028700  0.39759400  0.78530700  1
  H  2090  1  0.08039800  0.18018900  0.57030700  1
  H  2091  1  0.02867000  0.09911900  0.55887200  1
  H  2092  1  0.02760300  0.09960500  0.53052500  1
  H  2095  1  0.07273200  0.18886500  0.61447200  1
  H  2096  1  0.11443000  0.19095500  0.59500900  1
  H  2097  1  0.10800900  0.20549300  0.61869900  1
  H  2098  1  0.09031400  0.20627300  0.60176700  1
  H  2111  1  0.08036200  0.42130100  0.59936300  1
  H  2112  1  0.02869600  0.43271400  0.52969600  1
  H  2113  1  0.02762000  0.46106600  0.55852400  1
  H  2116  1  0.07269600  0.37713400  0.56388600  1
  H  2117  1  0.11439200  0.39659100  0.58544400  1
  H  2118  1  0.10795800  0.37290400  0.57630000  1
  H  2119  1  0.09026400  0.38984400  0.59400200  1
  H  2132  1  0.58042600  0.60355500  0.17592700  1
  H  2133  1  0.52864600  0.53391200  0.09489300  1
  H  2134  1  0.52756800  0.56274100  0.09537100  1
  H  2137  1  0.57277100  0.56807600  0.18462100  1
  H  2138  1  0.61446200  0.58963000  0.18669700  1
  H  2139  1  0.60804900  0.58048300  0.20124200  1
  H  2140  1  0.59034900  0.59819100  0.20201800  1
  H  2153  1  0.58042300  0.81564900  0.41708000  1
  H  2154  1  0.52866700  0.89669200  0.42847100  1
  H  2155  1  0.52760000  0.89622000  0.45682600  1
  H  2158  1  0.57275700  0.80695000  0.37290600  1
  H  2159  1  0.61445000  0.80487200  0.39238000  1
  H  2160  1  0.60803300  0.79032600  0.36868900  1
  H  2161  1  0.59033600  0.78955300  0.38562300  1
  H  2174  1  0.58037100  0.57450700  0.38800900  1
  H  2175  1  0.52870500  0.56310800  0.45768700  1
  H  2176  1  0.52761000  0.53475800  0.42885700  1
  H  2179  1  0.57273300  0.61867600  0.42349300  1
  H  2180  1  0.61441500  0.59920400  0.40191900  1
  H  2181  1  0.60799500  0.62289400  0.41106800  1
  H  2182  1  0.59028700  0.60596100  0.39337000  1
  C  1  1  0.91033000  0.64085300  0.04971200  1
  C  2  1  0.89266600  0.63118500  0.05307600  1
  C  3  1  0.88138200  0.63884900  0.07024000  1
  C  4  1  0.88698000  0.65658800  0.08543100  1
  C  5  1  0.90416500  0.66648500  0.08171600  1
  C  6  1  0.91570200  0.65879300  0.06442700  1
  C  7  1  0.87389500  0.66350200  0.10384700  1
  C  8  1  0.84889900  0.66429300  0.09790800  1
  C  9  1  0.84264400  0.67781500  0.09308500  1
  C  10  1  0.81963900  0.68017100  0.08911600  1
  C  11  1  0.80170800  0.66860200  0.08903900  1
  C  12  1  0.80807800  0.65392100  0.09198100  1
  C  13  1  0.83108700  0.65173500  0.09606500  1
  C  14  1  0.87712200  0.65015500  0.11139600  1
  C  15  1  0.88118900  0.68231400  0.12047600  1
  C  16  1  0.86492000  0.69593000  0.13243500  1
  C  17  1  0.87128600  0.71200000  0.14892500  1
  C  18  1  0.89449900  0.71532200  0.15499100  1
  C  19  1  0.91092500  0.70176200  0.14364800  1
  C  20  1  0.90440800  0.68576500  0.12698600  1
  C  21  1  0.89430400  0.63604400  0.10493300  1
  C  22  1  0.89541300  0.62303500  0.11094700  1
  C  23  1  0.87995500  0.62400900  0.12447600  1
  C  24  1  0.86430500  0.63898800  0.13247500  1
  C  25  1  0.86316700  0.65179900  0.12619500  1
  C  42  1  0.90056900  0.73027000  0.17232500  1
  C  43  1  0.92110900  0.63216200  0.03228600  1
  C  46  1  0.77878200  0.67206800  0.08643800  1
  C  48  1  0.88067700  0.61125600  0.13049500  1
  C  50  1  0.91032400  0.41098000  0.35074000  1
  C  51  1  0.89265800  0.42401300  0.36040600  1
  C  52  1  0.88136800  0.43350400  0.35273500  1
  C  53  1  0.88697900  0.43096000  0.33499900  1
  C  54  1  0.90416300  0.41734600  0.32510500  1
  C  55  1  0.91569800  0.40775200  0.33279900  1
  C  56  1  0.87390000  0.44246200  0.32808200  1
  C  57  1  0.84890100  0.43573700  0.32728400  1
  C  58  1  0.84264300  0.41739300  0.31376100  1
  C  59  1  0.81963700  0.41107100  0.31140500  1
  C  60  1  0.80170800  0.42256500  0.32297600  1
  C  61  1  0.80808100  0.44018300  0.33766100  1
  C  62  1  0.83109200  0.44645100  0.33984700  1
  C  63  1  0.87713000  0.46335800  0.34143000  1
  C  64  1  0.88120200  0.44026500  0.30926800  1
  C  65  1  0.86494000  0.43864300  0.29566100  1
  C  66  1  0.87130600  0.43906100  0.27958900  1
  C  67  1  0.89451900  0.44180600  0.27627100  1
  C  68  1  0.91093900  0.44402600  0.28983500  1
  C  69  1  0.90441500  0.44334600  0.30582300  1
  C  70  1  0.89431400  0.47100200  0.35553800  1
  C  71  1  0.89543000  0.49002600  0.36854600  1
  C  72  1  0.87997500  0.50258300  0.36757200  1
  C  73  1  0.86432300  0.49560500  0.35259500  1
  C  74  1  0.86318300  0.47651500  0.33978100  1
  C  91  1  0.90059700  0.44419000  0.26132400  1
  C  92  1  0.92110500  0.40225100  0.35943600  1
  C  95  1  0.77878200  0.41649400  0.31951100  1
  C  97  1  0.88070100  0.52135500  0.38032500  1
  C  99  1  0.91031800  0.94188800  0.58061100  1
  C  100  1  0.89265500  0.93852100  0.56757600  1
  C  101  1  0.88136500  0.92136100  0.55808200  1
  C  102  1  0.88697200  0.90616800  0.56062600  1
  C  103  1  0.90415400  0.90988500  0.57423900  1
  C  104  1  0.91569000  0.92717400  0.58383700  1
  C  105  1  0.87389000  0.88775000  0.54912200  1
  C  106  1  0.84889100  0.89368200  0.55584800  1
  C  107  1  0.84263200  0.89850400  0.57419100  1
  C  108  1  0.81962700  0.90247800  0.58051700  1
  C  109  1  0.80170100  0.90256100  0.56902400  1
  C  110  1  0.80807400  0.89962100  0.55140400  1
  C  111  1  0.83108400  0.89553200  0.54513500  1
  C  112  1  0.87712000  0.88020100  0.52822600  1
  C  113  1  0.88118500  0.87113300  0.55132100  1
  C  114  1  0.86491800  0.85915200  0.55294600  1
  C  115  1  0.87127800  0.84266800  0.55254100  1
  C  116  1  0.89448700  0.83659200  0.54977700  1
  C  117  1  0.91091300  0.84793300  0.54755900  1
  C  118  1  0.90439600  0.86460000  0.54823800  1
  C  119  1  0.89430200  0.88666700  0.52058200  1
  C  120  1  0.89542000  0.88064900  0.50155800  1
  C  121  1  0.87996900  0.86711400  0.48900100  1
  C  122  1  0.86431400  0.85911700  0.49597900  1
  C  123  1  0.86317100  0.86539900  0.51507100  1
  C  140  1  0.90055200  0.81925100  0.54737600  1
  C  141  1  0.92109400  0.95931600  0.58934700  1
  C  144  1  0.77877400  0.90517500  0.57509600  1
  C  146  1  0.88069100  0.86109600  0.47022900  1
  C  148  1  0.41031000  0.35496400  0.93766400  1
  C  149  1  0.39264700  0.36463200  0.93429700  1
  C  150  1  0.38135600  0.35696100  0.91713400  1
  C  151  1  0.38696400  0.33922500  0.90194300  1
  C  152  1  0.40414500  0.32932700  0.90566300  1
  C  153  1  0.41568000  0.33702200  0.92295200  1
  C  154  1  0.37387700  0.33230300  0.88352700  1
  C  155  1  0.34887900  0.33151100  0.88946300  1
  C  156  1  0.34263000  0.31799700  0.89429900  1
  C  157  1  0.31961800  0.31562900  0.89824600  1
  C  158  1  0.30169000  0.32720600  0.89833200  1
  C  159  1  0.30806200  0.34189000  0.89539700  1
  C  160  1  0.33107400  0.34407700  0.89131800  1
  C  161  1  0.37710000  0.34564700  0.87597300  1
  C  162  1  0.38117400  0.31348800  0.86691200  1
  C  163  1  0.36490900  0.29987800  0.85493500  1
  C  164  1  0.37126800  0.28381200  0.83843900  1
  C  165  1  0.39447900  0.28049200  0.83237000  1
  C  166  1  0.41090400  0.29405300  0.84371300  1
  C  167  1  0.40438700  0.31004000  0.86038300  1
  C  168  1  0.39428000  0.35975700  0.88243100  1
  C  169  1  0.39538800  0.37276100  0.87640900  1
  C  170  1  0.37992700  0.37178200  0.86288100  1
  C  171  1  0.36427600  0.35680300  0.85488800  1
  C  172  1  0.36314200  0.34399600  0.86117200  1
  C  189  1  0.40055000  0.26554800  0.81503400  1
  C  190  1  0.42108600  0.36365800  0.95509000  1
  C  193  1  0.27876100  0.32373900  0.90093400  1
  C  195  1  0.38063300  0.38453500  0.85686200  1
  C  197  1  0.41031600  0.58484000  0.63664000  1
  C  198  1  0.39266100  0.57179900  0.62696900  1
  C  199  1  0.38137800  0.56229900  0.63463200  1
  C  200  1  0.38698500  0.56484400  0.65236900  1
  C  201  1  0.40415300  0.57847100  0.66227300  1
  C  202  1  0.41568400  0.58807200  0.65458300  1
  C  203  1  0.37390600  0.55334000  0.65928500  1
  C  204  1  0.34890800  0.56006700  0.66008300  1
  C  205  1  0.34265400  0.57841100  0.67360500  1
  C  206  1  0.31964400  0.58472800  0.67596900  1
  C  207  1  0.30171600  0.57323700  0.66439200  1
  C  208  1  0.30809300  0.55562400  0.64970000  1
  C  209  1  0.33110500  0.54935800  0.64751100  1
  C  210  1  0.37713800  0.53244500  0.64593100  1
  C  211  1  0.38122300  0.55551900  0.67808800  1
  C  212  1  0.36495000  0.55715200  0.69169600  1
  C  213  1  0.37131700  0.55674100  0.70777200  1
  C  214  1  0.39453100  0.55400500  0.71109600  1
  C  215  1  0.41095700  0.55179500  0.69754100  1
  C  216  1  0.40444100  0.55247600  0.68155200  1
  C  217  1  0.39433400  0.52480500  0.63183300  1
  C  218  1  0.39545000  0.50578200  0.61881900  1
  C  219  1  0.37998400  0.49322300  0.61977700  1
  C  220  1  0.36432600  0.50019600  0.63475100  1
  C  221  1  0.36318200  0.51928600  0.64756700  1
  C  238  1  0.40061000  0.55163400  0.72605200  1
  C  239  1  0.42108600  0.59358000  0.62795000  1
  C  242  1  0.27878700  0.57930400  0.66786000  1
  C  244  1  0.38071700  0.47445200  0.60702400  1
  C  246  1  0.41031700  0.05392800  0.40675600  1
  C  247  1  0.39265600  0.05729500  0.41979100  1
  C  248  1  0.38136400  0.07445400  0.42928200  1
  C  249  1  0.38697100  0.08964700  0.42673700  1
  C  250  1  0.40415900  0.08593100  0.41312600  1
  C  251  1  0.41569200  0.06864200  0.40352900  1
  C  252  1  0.37389100  0.10806500  0.43824000  1
  C  253  1  0.34889300  0.10213600  0.43151400  1
  C  254  1  0.34264200  0.09730400  0.41316500  1
  C  255  1  0.31963000  0.09336100  0.40685200  1
  C  256  1  0.30169900  0.09328700  0.41834600  1
  C  257  1  0.30807200  0.09621200  0.43596200  1
  C  258  1  0.33108400  0.10028400  0.44222600  1
  C  259  1  0.37712100  0.11561100  0.45913600  1
  C  260  1  0.38120500  0.12469000  0.43605800  1
  C  261  1  0.36493100  0.13664800  0.43439800  1
  C  262  1  0.37129100  0.15313900  0.43481700  1
  C  263  1  0.39449800  0.15922200  0.43759200  1
  C  264  1  0.41093000  0.14787800  0.43979900  1
  C  265  1  0.40441800  0.13120800  0.43911800  1
  C  266  1  0.39430500  0.10914500  0.46677900  1
  C  267  1  0.39542200  0.11516300  0.48580400  1
  C  268  1  0.37997000  0.12869600  0.49836100  1
  C  269  1  0.36431400  0.13669200  0.49138300  1
  C  270  1  0.36317000  0.13041100  0.47229300  1
  C  287  1  0.40055800  0.17655700  0.43997900  1
  C  288  1  0.42109300  0.03650000  0.39801900  1
  C  291  1  0.27877000  0.09071200  0.41228900  1
  C  293  1  0.38069500  0.13471400  0.51713300  1
  C  295  1  0.01471800  0.58379500  0.93735500  1
  C  296  1  0.03331800  0.57162900  0.93441100  1
  C  297  1  0.04546800  0.56290100  0.91760400  1
  C  298  1  0.03980100  0.56536800  0.90237300  1
  C  299  1  0.02200900  0.57848800  0.90587000  1
  C  300  1  0.00963100  0.58734400  0.92281500  1
  C  301  1  0.05305900  0.55396200  0.88402100  1
  C  302  1  0.07801400  0.56078300  0.89002000  1
  C  303  1  0.08415400  0.57917000  0.89492400  1
  C  304  1  0.10713000  0.58556900  0.89893400  1
  C  305  1  0.12513500  0.57411300  0.89898000  1
  C  306  1  0.11886400  0.55645400  0.89598400  1
  C  307  1  0.09588800  0.55011100  0.89186000  1
  C  308  1  0.04996600  0.53304900  0.87649000  1
  C  309  1  0.04574700  0.55607800  0.86735300  1
  C  310  1  0.06199800  0.55795400  0.85551200  1
  C  311  1  0.05567300  0.55741900  0.83895600  1
  C  312  1  0.03253300  0.55434300  0.83270300  1
  C  313  1  0.01614000  0.55191300  0.84392700  1
  C  314  1  0.02261000  0.55270100  0.86065300  1
  C  315  1  0.03282700  0.52533400  0.88292100  1
  C  316  1  0.03176500  0.50629900  0.87685900  1
  C  317  1  0.04724100  0.49379000  0.86331400  1
  C  318  1  0.06287200  0.50083500  0.85536400  1
  C  319  1  0.06395500  0.51993800  0.86168800  1
  C  336  1  0.02654500  0.55179000  0.81529200  1
  C  337  1  0.00203700  0.59065300  0.95383600  1
  C  340  1  0.14803500  0.58025200  0.90162200  1
  C  342  1  0.04652200  0.47500000  0.85721300  1
  C  344  1  0.01473100  0.05422700  0.63590100  1
  C  345  1  0.03331500  0.05717800  0.62667200  1
  C  346  1  0.04545800  0.07399000  0.63474800  1
  C  347  1  0.03979400  0.08921900  0.65244900  1
  C  348  1  0.02201100  0.08571700  0.66207600  1
  C  349  1  0.00964400  0.06876700  0.65399000  1
  C  350  1  0.05305100  0.10757200  0.65939600  1
  C  351  1  0.07800500  0.10157000  0.66021300  1
  C  352  1  0.08415200  0.09667100  0.67369900  1
  C  353  1  0.10713100  0.09267600  0.67609500  1
  C  354  1  0.12513400  0.09262600  0.66458900  1
  C  355  1  0.11885900  0.09562500  0.64992700  1
  C  356  1  0.09588000  0.09974100  0.64770600  1
  C  357  1  0.04994900  0.11510600  0.64601700  1
  C  358  1  0.04574100  0.12423800  0.67818100  1
  C  359  1  0.06199800  0.13609300  0.69188600  1
  C  360  1  0.05567300  0.15263800  0.70791600  1
  C  361  1  0.03253500  0.15889000  0.71109400  1
  C  362  1  0.01612900  0.14765300  0.69745600  1
  C  363  1  0.02260300  0.13093400  0.68151200  1
  C  364  1  0.03280500  0.10867100  0.63187300  1
  C  365  1  0.03173900  0.11473000  0.61889800  1
  C  366  1  0.04722000  0.12826500  0.61992100  1
  C  367  1  0.06286500  0.13621100  0.63490900  1
  C  368  1  0.06393200  0.12991000  0.64770600  1
  C  385  1  0.02653000  0.17629300  0.72596000  1
  C  386  1  0.00207300  0.03773000  0.62628800  1
  C  389  1  0.14803500  0.08999200  0.66808700  1
  C  391  1  0.04648500  0.13437000  0.60723500  1
  C  393  1  0.01473100  0.35568300  0.40778800  1
  C  394  1  0.03333000  0.36490700  0.41995200  1
  C  395  1  0.04546800  0.35683800  0.42869600  1
  C  396  1  0.03980600  0.33913900  0.42623000  1
  C  397  1  0.02202000  0.32951100  0.41310700  1
  C  398  1  0.00963800  0.33759900  0.40425100  1
  C  399  1  0.05306600  0.33219800  0.43763900  1
  C  400  1  0.07802100  0.33138400  0.43082100  1
  C  401  1  0.08416800  0.31790300  0.41243500  1
  C  402  1  0.10714400  0.31551700  0.40603600  1
  C  403  1  0.12514400  0.32702300  0.41749300  1
  C  404  1  0.11887100  0.34168100  0.43515500  1
  C  405  1  0.09589700  0.34389000  0.44149900  1
  C  406  1  0.04996600  0.34557800  0.45855200  1
  C  407  1  0.04577400  0.31340900  0.43552300  1
  C  408  1  0.06202200  0.29969300  0.43364800  1
  C  409  1  0.05569200  0.28367200  0.43417900  1
  C  410  1  0.03255000  0.28050000  0.43725500  1
  C  411  1  0.01615300  0.29414800  0.43967100  1
  C  412  1  0.02263200  0.31009200  0.43889800  1
  C  413  1  0.03283400  0.35972900  0.46626200  1
  C  414  1  0.03176300  0.37270000  0.48529600  1
  C  415  1  0.04722900  0.37166300  0.49781000  1
  C  416  1  0.06286100  0.35666900  0.49076900  1
  C  417  1  0.06395300  0.34389000  0.47166700  1
  C  434  1  0.02654200  0.26563100  0.43978900  1
  C  435  1  0.00206300  0.36529800  0.40091300  1
  C  438  1  0.14804500  0.32353500  0.41135500  1
  C  440  1  0.04650100  0.38435400  0.51660200  1
  C  442  1  0.51471100  0.41202200  0.05001800  1
  C  443  1  0.53332200  0.42417400  0.05295200  1
  C  444  1  0.54548200  0.43289600  0.06975600  1
  C  445  1  0.53980500  0.43044000  0.08499200  1
  C  446  1  0.52201200  0.41732300  0.08149900  1
  C  447  1  0.50962300  0.40847400  0.06455900  1
  C  448  1  0.55306100  0.44185000  0.10334400  1
  C  449  1  0.57801600  0.43503300  0.09735000  1
  C  450  1  0.58416300  0.41664800  0.09244900  1
  C  451  1  0.60713900  0.41025000  0.08843800  1
  C  452  1  0.62513900  0.42170300  0.08836967  1
  C  453  1  0.61886600  0.43936200  0.09137800  1
  C  454  1  0.59589200  0.44570700  0.09551300  1
  C  455  1  0.54996300  0.46276300  0.11087300  1
  C  456  1  0.54576100  0.43972400  0.12000600  1
  C  457  1  0.56200400  0.43788200  0.13187400  1
  C  458  1  0.55567400  0.43842300  0.14843100  1
  C  459  1  0.53253200  0.44149300  0.15467400  1
  C  460  1  0.51614200  0.44391600  0.14344200  1
  C  461  1  0.52262600  0.44312600  0.12671800  1
  C  462  1  0.53282800  0.47046900  0.10443000  1
  C  463  1  0.53175700  0.48950500  0.11049300  1
  C  464  1  0.54722100  0.50202000  0.12404500  1
  C  465  1  0.56285300  0.49498100  0.13200000  1
  C  466  1  0.56394100  0.47587900  0.12567900  1
  C  483  1  0.52651300  0.44402100  0.17207100  1
  C  484  1  0.50201800  0.40517300  0.03354200  1
  C  487  1  0.64803700  0.41555800  0.08572400  1
  C  489  1  0.54649100  0.52081100  0.13014400  1
  C  491  1  0.51470600  0.94156400  0.35145700  1
  C  492  1  0.53331900  0.93863400  0.36067900  1
  C  493  1  0.54548800  0.92183500  0.35259700  1
  C  494  1  0.53981200  0.90659700  0.33490500  1
  C  495  1  0.52200800  0.91008300  0.32528200  1
  C  496  1  0.50962200  0.92702400  0.33337000  1
  C  497  1  0.55307200  0.88824700  0.32796600  1
  C  498  1  0.57802700  0.89424500  0.32714600  1
  C  499  1  0.58417300  0.89914900  0.31366500  1
  C  500  1  0.60714900  0.90316700  0.31128400  1
  C  501  1  0.62514800  0.90322600  0.32279500  1
  C  502  1  0.61887300  0.90022300  0.33745300  1
  C  503  1  0.59590100  0.89608100  0.33965800  1
  C  504  1  0.54997300  0.88071800  0.34134800  1
  C  505  1  0.54577600  0.87158400  0.30917400  1
  C  506  1  0.56201900  0.85972300  0.29546300  1
  C  507  1  0.55569400  0.84317500  0.27943500  1
  C  508  1  0.53255900  0.83691400  0.27627900  1
  C  509  1  0.51616600  0.84814100  0.28993100  1
  C  510  1  0.52264300  0.86486500  0.30586500  1
  C  511  1  0.53284100  0.88716000  0.35550000  1
  C  512  1  0.53177100  0.88109500  0.36846900  1
  C  513  1  0.54722800  0.86753700  0.36742600  1
  C  514  1  0.56286000  0.85958400  0.35243300  1
  C  515  1  0.56395300  0.86591100  0.33965600  1
  C  532  1  0.52655600  0.81950500  0.26141900  1
  C  533  1  0.50199200  0.95802600  0.36109300  1
  C  536  1  0.64804800  0.90589100  0.31931500  1
  C  538  1  0.54650300  0.86143600  0.38011600  1
  C  540  1  0.51469700  0.64013100  0.57956400  1
  C  541  1  0.53331200  0.63091100  0.56741600  1
  C  542  1  0.54548400  0.63899100  0.55869800  1
  C  543  1  0.53981000  0.65668300  0.56115000  1
  C  544  1  0.52200700  0.66630800  0.57425900  1
  C  545  1  0.50961100  0.65821700  0.58310500  1
  C  546  1  0.55307500  0.66362300  0.54974200  1
  C  547  1  0.57803000  0.66444200  0.55656000  1
  C  548  1  0.58417200  0.67791600  0.57495000  1
  C  549  1  0.60715400  0.68031400  0.58133600  1
  C  550  1  0.62515300  0.66880000  0.56988500  1
  C  551  1  0.61887700  0.65413600  0.55222800  1
  C  552  1  0.59590100  0.65192500  0.54588600  1
  C  553  1  0.54998000  0.65024000  0.52883000  1
  C  554  1  0.54578000  0.68241400  0.55186900  1
  C  555  1  0.56202400  0.69612600  0.55372300  1
  C  556  1  0.55570100  0.71214200  0.55317900  1
  C  557  1  0.53256500  0.71530900  0.55009200  1
  C  558  1  0.51617100  0.70165600  0.54766800  1
  C  559  1  0.52264700  0.68572500  0.54846300  1
  C  560  1  0.53284800  0.63608800  0.52111700  1
  C  561  1  0.53178600  0.62311500  0.50208200  1
  C  562  1  0.54725600  0.62415300  0.48957200  1
  C  563  1  0.56288100  0.63915300  0.49661400  1
  C  564  1  0.56396500  0.65193200  0.51571700  1
  C  581  1  0.52655600  0.73017400  0.54755400  1
  C  582  1  0.50198000  0.63049700  0.58639000  1
  C  585  1  0.64805500  0.67228700  0.57602300  1
  C  587  1  0.54653800  0.61146300  0.47078100  1
  C  589  1  0.01733500  0.35547700  0.93817500  1
  C  590  1  0.03442400  0.36540800  0.93459700  1
  C  591  1  0.04591800  0.35766200  0.91750600  1
  C  592  1  0.04099900  0.33961800  0.90255800  1
  C  593  1  0.02451100  0.32945900  0.90656300  1
  C  594  1  0.01278700  0.33720600  0.92377400  1
  C  595  1  0.05446700  0.33245900  0.88427000  1
  C  596  1  0.07913900  0.33142100  0.89065600  1
  C  597  1  0.08512100  0.31725400  0.89463700  1
  C  598  1  0.10793900  0.31483100  0.89897100  1
  C  599  1  0.12586400  0.32695900  0.90028000  1
  C  600  1  0.11967900  0.34222600  0.89824800  1
  C  601  1  0.09687800  0.34448300  0.89381700  1
  C  602  1  0.05220800  0.34564400  0.87646600  1
  C  603  1  0.04717000  0.31374900  0.86759900  1
  C  604  1  0.06354600  0.30061400  0.85518900  1
  C  605  1  0.05708800  0.28406600  0.83922800  1
  C  606  1  0.03361200  0.27975500  0.83422700  1
  C  607  1  0.01707400  0.29304100  0.84582800  1
  C  608  1  0.02375500  0.30971700  0.86173400  1
  C  609  1  0.03506000  0.35969000  0.88216900  1
  C  610  1  0.03596000  0.37342700  0.87707500  1
  C  611  1  0.05357000  0.37333900  0.86527400  1
  C  612  1  0.06880200  0.35802700  0.85752200  1
  C  613  1  0.06775700  0.34437300  0.86267900  1
  C  630  1  0.02687600  0.26286700  0.81893900  1
  C  631  1  0.00639500  0.36417700  0.95553900  1
  C  634  1  0.14859400  0.32383700  0.90364500  1
  C  636  1  0.05709300  0.38789200  0.86181100  1
  C  638  1  0.01734000  0.58482300  0.63610500  1
  C  639  1  0.03443200  0.57131700  0.62617900  1
  C  640  1  0.04593300  0.56197900  0.63393000  1
  C  641  1  0.04102400  0.56508600  0.65198000  1
  C  642  1  0.02452000  0.57923900  0.66212900  1
  C  643  1  0.01279000  0.58869500  0.65437800  1
  C  644  1  0.05448300  0.55395200  0.65913900  1
  C  645  1  0.07915600  0.56137300  0.66017300  1
  C  646  1  0.08514200  0.57952100  0.67434000  1
  C  647  1  0.10796500  0.58626800  0.67677000  1
  C  648  1  0.12589000  0.57544300  0.66464700  1
  C  649  1  0.11970300  0.55814600  0.64937900  1
  C  650  1  0.09689500  0.55146500  0.64711600  1
  C  651  1  0.05221800  0.53296400  0.64595600  1
  C  652  1  0.04719500  0.55599700  0.67785300  1
  C  653  1  0.06357900  0.55671700  0.69098300  1
  C  654  1  0.05713300  0.55731900  0.70754000  1
  C  655  1  0.03365600  0.55667000  0.71187300  1
  C  656  1  0.01710700  0.55499000  0.69859700  1
  C  657  1  0.02377900  0.55418800  0.68190500  1
  C  658  1  0.03507600  0.52462400  0.63190700  1
  C  659  1  0.03596200  0.50579000  0.61817700  1
  C  660  1  0.05357500  0.49407800  0.61825900  1
  C  661  1  0.06880500  0.50163400  0.63357200  1
  C  662  1  0.06776200  0.52044600  0.64722800  1
  C  679  1  0.02694300  0.55832700  0.72878600  1
  C  680  1  0.00640200  0.59348600  0.62740300  1
  C  683  1  0.14862300  0.58191500  0.66778800  1
  C  685  1  0.05708700  0.47605700  0.60371400  1
  C  687  1  0.01733700  0.05341500  0.40676800  1
  C  688  1  0.03441900  0.05699900  0.42028200  1
  C  689  1  0.04591100  0.07409100  0.42962500  1
  C  690  1  0.04101300  0.08903000  0.42651000  1
  C  691  1  0.02451400  0.08502400  0.41235300  1
  C  692  1  0.01279000  0.06781500  0.40289200  1
  C  693  1  0.05447400  0.10732300  0.43764100  1
  C  694  1  0.07914600  0.10093000  0.43021700  1
  C  695  1  0.08513100  0.09695600  0.41207200  1
  C  696  1  0.10794600  0.09260900  0.40531100  1
  C  697  1  0.12587100  0.09130400  0.41613200  1
  C  698  1  0.11968800  0.09334800  0.43343700  1
  C  699  1  0.09688300  0.09777500  0.44012100  1
  C  700  1  0.05221100  0.11513100  0.45863000  1
  C  701  1  0.04719100  0.12399100  0.43559400  1
  C  702  1  0.06358100  0.13640200  0.43488200  1
  C  703  1  0.05713800  0.15235200  0.43426900  1
  C  704  1  0.03366300  0.15733200  0.43490700  1
  C  705  1  0.01710800  0.14573500  0.43657800  1
  C  706  1  0.02377600  0.12984900  0.43738900  1
  C  707  1  0.03506700  0.10942600  0.46697300  1
  C  708  1  0.03596200  0.11452600  0.48580600  1
  C  709  1  0.05356100  0.12633600  0.49752200  1
  C  710  1  0.06880000  0.13407900  0.48995900  1
  C  711  1  0.06776400  0.12891500  0.47114600  1
  C  728  1  0.02696100  0.17256300  0.43320500  1
  C  729  1  0.00639800  0.03605100  0.39810500  1
  C  732  1  0.14859900  0.08794800  0.40964900  1
  C  734  1  0.05706400  0.12982400  0.51555000  1
  C  736  1  0.51734600  0.64031600  0.04918800  1
  C  737  1  0.53443100  0.63038900  0.05277200  1
  C  738  1  0.54592200  0.63814000  0.06986700  1
  C  739  1  0.54101600  0.65619000  0.08480500  1
  C  740  1  0.52451700  0.66634100  0.08079800  1
  C  741  1  0.51279100  0.65858900  0.06358900  1
  C  742  1  0.55447100  0.66335300  0.10310100  1
  C  743  1  0.57914300  0.66438700  0.09671300  1
  C  744  1  0.58513200  0.67855900  0.09274100  1
  C  745  1  0.60794800  0.68098100  0.08840500  1
  C  746  1  0.62587300  0.66885500  0.08710100  1
  C  747  1  0.61969300  0.65359900  0.08915300  1
  C  748  1  0.59688700  0.65133800  0.09357500  1
  C  749  1  0.55220300  0.65017100  0.11090600  1
  C  750  1  0.54717800  0.68206600  0.11976600  1
  C  751  1  0.56356100  0.69519300  0.13218300  1
  C  752  1  0.55711000  0.71175400  0.14813100  1
  C  753  1  0.53363200  0.71608700  0.15310900  1
  C  754  1  0.51708500  0.70280900  0.14151000  1
  C  755  1  0.52376100  0.68611900  0.12562200  1
  C  756  1  0.53504200  0.63613600  0.10521000  1
  C  757  1  0.53595400  0.62238600  0.11028600  1
  C  758  1  0.55356700  0.62246400  0.12207800  1
  C  759  1  0.56881500  0.63776500  0.12981800  1
  C  760  1  0.56773300  0.65145600  0.12471200  1
  C  777  1  0.52691300  0.73300600  0.16835200  1
  C  778  1  0.50640600  0.63161200  0.03182400  1
  C  781  1  0.64860100  0.67198200  0.08374300  1
  C  783  1  0.55708700  0.60790700  0.12553500  1
  C  785  1  0.51733900  0.41099300  0.35125900  1
  C  786  1  0.53442400  0.42450500  0.36118900  1
  C  787  1  0.54591500  0.43385100  0.35344300  1
  C  788  1  0.54101600  0.43074000  0.33539100  1
  C  789  1  0.52451700  0.41658200  0.32523800  1
  C  790  1  0.51279100  0.40712100  0.33298500  1
  C  791  1  0.55447700  0.44187300  0.32823200  1
  C  792  1  0.57914800  0.43445100  0.32720400  1
  C  793  1  0.58513700  0.41630800  0.31303300  1
  C  794  1  0.60795400  0.40955000  0.31061400  1
  C  795  1  0.62587800  0.42037400  0.32273700  1
  C  796  1  0.61969700  0.43768000  0.33799600  1
  C  797  1  0.59689000  0.44436300  0.34025500  1
  C  798  1  0.55220900  0.46286200  0.34141500  1
  C  799  1  0.54720400  0.43983100  0.30951600  1
  C  800  1  0.56358800  0.43910300  0.29638500  1
  C  801  1  0.55713900  0.43848500  0.27982100  1
  C  802  1  0.53366100  0.43913400  0.27548900  1
  C  803  1  0.51711200  0.44081400  0.28876400  1
  C  804  1  0.52378500  0.44162600  0.30546200  1
  C  805  1  0.53505200  0.47120200  0.35545300  1
  C  806  1  0.53595200  0.49003100  0.36919500  1
  C  807  1  0.55357200  0.50174300  0.36911900  1
  C  808  1  0.56879600  0.49419000  0.35380200  1
  C  809  1  0.56775200  0.47538200  0.34014200  1
  C  826  1  0.52695100  0.43745100  0.25856500  1
  C  827  1  0.50640000  0.40233000  0.35996100  1
  C  830  1  0.64860800  0.41389400  0.31960300  1
  C  832  1  0.55708700  0.51975900  0.38367500  1
  C  834  1  0.51734400  0.94240600  0.58059800  1
  C  835  1  0.53442800  0.93882200  0.56708400  1
  C  836  1  0.54592400  0.92173200  0.55774300  1
  C  837  1  0.54101400  0.90678700  0.56084700  1
  C  838  1  0.52452000  0.91079500  0.57500800  1
  C  839  1  0.51279800  0.92800500  0.58447100  1
  C  840  1  0.55447700  0.88849700  0.54971700  1
  C  841  1  0.57914800  0.89488300  0.55713600  1
  C  842  1  0.58514200  0.89885500  0.57527900  1
  C  843  1  0.60795700  0.90320100  0.58203900  1
  C  844  1  0.62587800  0.90451100  0.57117767  1
  C  845  1  0.61969000  0.90246900  0.55391400  1
  C  846  1  0.59688500  0.89803700  0.54722900  1
  C  847  1  0.55221000  0.88068600  0.52872800  1
  C  848  1  0.54719700  0.87183300  0.55177300  1
  C  849  1  0.56357100  0.85940900  0.55247600  1
  C  850  1  0.55711800  0.84345800  0.55308200  1
  C  851  1  0.53364100  0.83847600  0.55242400  1
  C  852  1  0.51709900  0.85007400  0.55074000  1
  C  853  1  0.52378000  0.86596700  0.54994700  1
  C  854  1  0.53505800  0.88638700  0.52038600  1
  C  855  1  0.53596600  0.88130400  0.50156000  1
  C  856  1  0.55358000  0.86951000  0.48984700  1
  C  857  1  0.56880600  0.86175000  0.49740300  1
  C  858  1  0.56775400  0.86689500  0.51621000  1
  C  875  1  0.52691800  0.82322800  0.55409400  1
  C  876  1  0.50640600  0.95976900  0.58926000  1
  C  879  1  0.64860800  0.90787300  0.57770000  1
  C  881  1  0.55710100  0.86605300  0.47183300  1
  C  883  1  0.91107600  0.41187300  0.04941100  1
  C  884  1  0.89313600  0.42466700  0.05266800  1
  C  885  1  0.88091800  0.43335400  0.06945300  1
  C  886  1  0.88594500  0.43030600  0.08441700  1
  C  887  1  0.90302400  0.41658000  0.08058300  1
  C  888  1  0.91544400  0.40774600  0.06366100  1
  C  889  1  0.87235600  0.44133600  0.10266100  1
  C  890  1  0.84771600  0.43384800  0.09623500  1
  C  891  1  0.84183200  0.41565200  0.09215400  1
  C  892  1  0.81904100  0.40883300  0.08778400  1
  C  893  1  0.80104200  0.41964000  0.08654900  1
  C  894  1  0.80712800  0.43699900  0.08868500  1
  C  895  1  0.82990200  0.44374800  0.09315000  1
  C  896  1  0.87451500  0.46233700  0.11046900  1
  C  897  1  0.87967800  0.43932800  0.11934800  1
  C  898  1  0.86334400  0.43836800  0.13165500  1
  C  899  1  0.86982900  0.43793800  0.14769500  1
  C  900  1  0.89328500  0.43905100  0.15290500  1
  C  901  1  0.90975900  0.44096400  0.14140200  1
  C  902  1  0.90304600  0.44155300  0.12540900  1
  C  903  1  0.89160700  0.47073500  0.10478000  1
  C  904  1  0.89070200  0.48958500  0.10996100  1
  C  905  1  0.87310600  0.50126500  0.12180800  1
  C  906  1  0.85790300  0.49364600  0.12952000  1
  C  907  1  0.85897600  0.47481500  0.12429300  1
  C  924  1  0.90009900  0.43774700  0.16835200  1
  C  925  1  0.92363200  0.40473300  0.03282100  1
  C  928  1  0.77833600  0.41310000  0.08316100  1
  C  930  1  0.86963100  0.51932800  0.12539900  1
  C  932  1  0.91108300  0.94217400  0.35192800  1
  C  933  1  0.89315000  0.93891400  0.36146900  1
  C  934  1  0.88093300  0.92212800  0.35337000  1
  C  935  1  0.88595700  0.90716600  0.33535500  1
  C  936  1  0.90302600  0.91100500  0.32546000  1
  C  937  1  0.91544600  0.92792700  0.33354900  1
  C  938  1  0.87236200  0.88892400  0.32813700  1
  C  939  1  0.84772400  0.89535500  0.32707800  1
  C  940  1  0.84184700  0.89944500  0.31296900  1
  C  941  1  0.81904800  0.90378900  0.31050300  1
  C  942  1  0.80105100  0.90503200  0.32254900  1
  C  943  1  0.80713800  0.90290700  0.33777800  1
  C  944  1  0.82991200  0.89844800  0.34006600  1
  C  945  1  0.87451700  0.88111400  0.34132800  1
  C  946  1  0.87968200  0.87223900  0.30944200  1
  C  947  1  0.86334500  0.85993300  0.29617600  1
  C  948  1  0.86982800  0.84389400  0.27970600  1
  C  949  1  0.89328400  0.83868600  0.27560300  1
  C  950  1  0.90976100  0.85019100  0.28901500  1
  C  951  1  0.90304900  0.86617900  0.30560200  1
  C  952  1  0.89162200  0.88678800  0.35540600  1
  C  953  1  0.89068600  0.88163200  0.36909400  1
  C  954  1  0.87310200  0.86977200  0.36891600  1
  C  955  1  0.85789800  0.86206400  0.35358600  1
  C  956  1  0.85897000  0.86729400  0.33998500  1
  C  973  1  0.90009600  0.82324100  0.25885000  1
  C  974  1  0.92363700  0.95876600  0.36137700  1
  C  977  1  0.77834300  0.90841600  0.31939500  1
  C  979  1  0.86962900  0.86617800  0.38338800  1
  C  981  1  0.91107500  0.63965500  0.57970100  1
  C  982  1  0.89315100  0.63011100  0.56689200  1
  C  983  1  0.88094000  0.63821000  0.55820200  1
  C  984  1  0.88595800  0.65622600  0.56126000  1
  C  985  1  0.90301600  0.66612500  0.57500400  1
  C  986  1  0.91543500  0.65803600  0.58383800  1
  C  987  1  0.87236600  0.66344600  0.55023700  1
  C  988  1  0.84772900  0.66450900  0.55772900  1
  C  989  1  0.84185300  0.67862300  0.57592700  1
  C  990  1  0.81905800  0.68108100  0.58274300  1
  C  991  1  0.80105900  0.66903500  0.57194000  1
  C  992  1  0.80714500  0.65380400  0.55458700  1
  C  993  1  0.82991800  0.65151800  0.54783700  1
  C  994  1  0.87452100  0.65025300  0.52923400  1
  C  995  1  0.87970000  0.68213500  0.55223600  1
  C  996  1  0.86335600  0.69539800  0.55319700  1
  C  997  1  0.86983900  0.71187600  0.55364300  1
  C  998  1  0.89329700  0.71599000  0.55256200  1
  C  999  1  0.90977800  0.70258200  0.55066000  1
  C  1000  1  0.90307000  0.68599000  0.55005000  1
  C  1001  1  0.89163800  0.63618500  0.52083100  1
  C  1002  1  0.89070000  0.62249400  0.50199000  1
  C  1003  1  0.87311900  0.62266900  0.49030200  1
  C  1004  1  0.85790200  0.63799100  0.49792700  1
  C  1005  1  0.85896800  0.65159200  0.51675900  1
  C  1022  1  0.90010600  0.73275600  0.55390000  1
  C  1023  1  0.92362300  0.63020800  0.58685000  1
  C  1026  1  0.77835300  0.67218600  0.57848500  1
  C  1028  1  0.86964400  0.60819600  0.47223800  1
  C  1030  1  0.41108700  0.58392200  0.93794800  1
  C  1031  1  0.39312700  0.57114800  0.93470300  1
  C  1032  1  0.38089900  0.56246800  0.91792200  1
  C  1033  1  0.38594700  0.56549500  0.90294900  1
  C  1034  1  0.40306500  0.57919000  0.90676200  1
  C  1035  1  0.41549000  0.58802000  0.92368200  1
  C  1036  1  0.37235800  0.55446200  0.88470400  1
  C  1037  1  0.34771600  0.56195300  0.89111900  1
  C  1038  1  0.34185200  0.58015700  0.89521900  1
  C  1039  1  0.31905600  0.58697500  0.89956800  1
  C  1040  1  0.30104700  0.57616700  0.90079100  1
  C  1041  1  0.30712200  0.55880700  0.89865400  1
  C  1042  1  0.32989400  0.55205600  0.89419800  1
  C  1043  1  0.37450500  0.53346200  0.87691000  1
  C  1044  1  0.37972100  0.55644600  0.86801100  1
  C  1045  1  0.36340400  0.55746600  0.85572700  1
  C  1046  1  0.36991200  0.55782900  0.83965800  1
  C  1047  1  0.39336700  0.55660900  0.83440000  1
  C  1048  1  0.40981200  0.55467000  0.84590700  1
  C  1049  1  0.40308400  0.55415800  0.86193700  1
  C  1050  1  0.39158200  0.52506500  0.88261500  1
  C  1051  1  0.39067200  0.50621300  0.87742900  1
  C  1052  1  0.37309500  0.49453000  0.86555800  1
  C  1053  1  0.35790900  0.50215100  0.85783600  1
  C  1054  1  0.35898400  0.52098200  0.86306800  1
  C  1071  1  0.40022500  0.55773100  0.81885200  1
  C  1072  1  0.42366200  0.59104300  0.95452800  1
  C  1075  1  0.27834200  0.58271300  0.90417500  1
  C  1077  1  0.36962600  0.47645900  0.86194900  1
  C  1079  1  0.41106800  0.05363300  0.63542700  1
  C  1080  1  0.39314000  0.05689800  0.62588700  1
  C  1081  1  0.38093400  0.07368900  0.63398400  1
  C  1082  1  0.38594500  0.08864300  0.65200300  1
  C  1083  1  0.40301700  0.08480200  0.66189600  1
  C  1084  1  0.41543100  0.06787700  0.65380700  1
  C  1085  1  0.37236000  0.10689000  0.65922200  1
  C  1086  1  0.34772100  0.10046200  0.66028400  1
  C  1087  1  0.34184300  0.09638000  0.67439900  1
  C  1088  1  0.31905000  0.09201400  0.67685500  1
  C  1089  1  0.30104800  0.09078600  0.66481700  1
  C  1090  1  0.30712900  0.09292300  0.64959500  1
  C  1091  1  0.32990400  0.09737600  0.64730200  1
  C  1092  1  0.37451900  0.11469900  0.64603000  1
  C  1093  1  0.37969300  0.12357900  0.67791300  1
  C  1094  1  0.36334800  0.13587600  0.69117900  1
  C  1095  1  0.36982900  0.15190900  0.70765700  1
  C  1096  1  0.39328600  0.15710400  0.71177300  1
  C  1097  1  0.40976900  0.14560200  0.69836600  1
  C  1098  1  0.40306400  0.12962100  0.68177000  1
  C  1099  1  0.39162800  0.10902700  0.63195700  1
  C  1100  1  0.39069800  0.11418600  0.61827100  1
  C  1101  1  0.37312100  0.12605100  0.61844900  1
  C  1102  1  0.35790900  0.13375300  0.63377500  1
  C  1103  1  0.35897300  0.12852000  0.64737300  1
  C  1120  1  0.40009000  0.17251900  0.72854900  1
  C  1121  1  0.42361000  0.03703400  0.62598200  1
  C  1124  1  0.27834200  0.08741500  0.66798300  1
  C  1126  1  0.36965400  0.12965600  0.60398300  1
  C  1128  1  0.41107200  0.35616400  0.40766300  1
  C  1129  1  0.39316100  0.36570900  0.42048500  1
  C  1130  1  0.38095600  0.35761000  0.42917800  1
  C  1131  1  0.38595900  0.33958500  0.42610100  1
  C  1132  1  0.40301500  0.32968900  0.41235400  1
  C  1133  1  0.41542400  0.33777900  0.40351700  1
  C  1134  1  0.37237200  0.33236100  0.43712400  1
  C  1135  1  0.34773500  0.33130600  0.42963400  1
  C  1136  1  0.34185000  0.31719000  0.41143900  1
  C  1137  1  0.31905700  0.31473800  0.40462400  1
  C  1138  1  0.30106000  0.32678200  0.41543100  1
  C  1139  1  0.30714500  0.34200000  0.43279300  1
  C  1140  1  0.32992000  0.34428700  0.43953800  1
  C  1141  1  0.37453800  0.34554600  0.45812600  1
  C  1142  1  0.37969300  0.31366500  0.43511300  1
  C  1143  1  0.36334000  0.30041500  0.43416700  1
  C  1144  1  0.36981000  0.28392300  0.43369700  1
  C  1145  1  0.39326700  0.27978400  0.43474100  1
  C  1146  1  0.40976200  0.29317900  0.43663400  1
  C  1147  1  0.40306500  0.30978600  0.43727000  1
  C  1148  1  0.39166300  0.35960700  0.46652700  1
  C  1149  1  0.39073400  0.37329700  0.48537000  1
  C  1150  1  0.37313000  0.37314300  0.49705000  1
  C  1151  1  0.35789200  0.35783400  0.48942200  1
  C  1152  1  0.35899700  0.34419600  0.47060400  1
  C  1169  1  0.40005300  0.26299100  0.43334400  1
  C  1170  1  0.42360000  0.36560600  0.40049900  1
  C  1173  1  0.27835400  0.32363100  0.40889000  1
  C  1175  1  0.36965100  0.38762500  0.51511100  1
  C  1177  1  0.89134500  0.76125900  0.19668400  1
  C  1178  1  0.88616900  0.77853100  0.19818300  1
  C  1179  1  0.88546600  0.79505500  0.21574900  1
  C  1180  1  0.88992200  0.79465200  0.23219800  1
  C  1181  1  0.89466200  0.77735400  0.23068000  1
  C  1182  1  0.89552400  0.76099700  0.21326100  1
  C  1184  1  0.87523400  0.81225400  0.20098400  1
  C  1185  1  0.87622600  0.79608000  0.18357700  1
  C  1191  1  0.89183000  0.79237800  0.15502300  1
  C  1198  1  0.89141000  0.43755700  0.23033300  1
  C  1199  1  0.88619900  0.42178500  0.21306500  1
  C  1200  1  0.88548000  0.42282500  0.19653900  1
  C  1201  1  0.88993300  0.43967400  0.19693700  1
  C  1202  1  0.89467800  0.45545600  0.21423100  1
  C  1203  1  0.89556200  0.45439600  0.23058800  1
  C  1205  1  0.87521900  0.39086600  0.17935200  1
  C  1206  1  0.87623300  0.38963500  0.19552700  1
  C  1212  1  0.89184500  0.36477700  0.19921300  1
  C  1219  1  0.89135000  0.79488800  0.55400200  1
  C  1220  1  0.88618200  0.79338900  0.56977800  1
  C  1221  1  0.88550300  0.77581900  0.56873300  1
  C  1222  1  0.88999000  0.75937100  0.55188800  1
  C  1223  1  0.89466900  0.76089500  0.53610200  1
  C  1224  1  0.89552500  0.77831400  0.53716300  1
  C  1226  1  0.87525100  0.79057600  0.60069300  1
  C  1227  1  0.87621900  0.80798600  0.60192900  1
  C  1233  1  0.89177200  0.83655600  0.62678800  1
  C  1240  1  0.39134300  0.23456100  0.79067000  1
  C  1241  1  0.38619600  0.21728000  0.78916000  1
  C  1242  1  0.38552300  0.20075900  0.77158700  1
  C  1243  1  0.38999200  0.20116700  0.75514200  1
  C  1244  1  0.39465100  0.21848400  0.75667600  1
  C  1245  1  0.39549500  0.23483900  0.77409900  1
  C  1247  1  0.37529900  0.18354100  0.78633400  1
  C  1248  1  0.37626600  0.19971100  0.80374700  1
  C  1254  1  0.39183600  0.20341400  0.83231000  1
  C  1261  1  0.39140900  0.55831600  0.75706300  1
  C  1262  1  0.38611000  0.57409400  0.77430100  1
  C  1263  1  0.38536400  0.57309400  0.79084700  1
  C  1264  1  0.38991200  0.55628800  0.79050900  1
  C  1265  1  0.39476500  0.54049700  0.77324500  1
  C  1266  1  0.39565100  0.54151500  0.75686200  1
  C  1268  1  0.37499500  0.60503300  0.80796200  1
  C  1269  1  0.37603100  0.60622800  0.79176800  1
  C  1275  1  0.39162300  0.63108000  0.78806600  1
  C  1282  1  0.39134100  0.20092100  0.43336000  1
  C  1283  1  0.38621400  0.20243300  0.41758700  1
  C  1284  1  0.38554100  0.22000700  0.41864100  1
  C  1285  1  0.38997400  0.23645200  0.43550500  1
  C  1286  1  0.39462500  0.23491800  0.45128800  1
  C  1287  1  0.39547400  0.21749300  0.45021400  1
  C  1289  1  0.37535600  0.20526100  0.38666900  1
  C  1290  1  0.37631600  0.18784700  0.38542500  1
  C  1296  1  0.39189300  0.15927800  0.36057700  1
  C  1303  1  0.03563700  0.55827200  0.79082500  1
  C  1304  1  0.04065500  0.57396800  0.78914800  1
  C  1305  1  0.04126400  0.57274900  0.77149800  1
  C  1306  1  0.03688200  0.55579000  0.75514000  1
  C  1307  1  0.03236200  0.54008600  0.75683900  1
  C  1308  1  0.03156100  0.54132500  0.77433700  1
  C  1310  1  0.05136600  0.60472400  0.78599200  1
  C  1311  1  0.05044000  0.60613600  0.80348000  1
  C  1317  1  0.03479900  0.63116200  0.83189900  1
  C  1324  1  0.03563700  0.20076200  0.75690700  1
  C  1325  1  0.04071100  0.20242100  0.77426300  1
  C  1326  1  0.04132800  0.22006600  0.79070400  1
  C  1327  1  0.03687500  0.23643000  0.79013100  1
  C  1328  1  0.03228700  0.23474200  0.77274200  1
  C  1329  1  0.03151600  0.21725400  0.75647000  1
  C  1331  1  0.05151900  0.20555300  0.80815000  1
  C  1332  1  0.05059400  0.18807100  0.79206400  1
  C  1338  1  0.03501000  0.15963200  0.78865900  1
  C  1345  1  0.03564000  0.23469400  0.43333100  1
  C  1346  1  0.04064300  0.21731700  0.41763500  1
  C  1347  1  0.04123800  0.20088700  0.41885800  1
  C  1348  1  0.03686300  0.20149500  0.43582100  1
  C  1349  1  0.03236200  0.21890400  0.45152600  1
  C  1350  1  0.03158000  0.23516000  0.45028200  1
  C  1352  1  0.05132400  0.18339700  0.38688000  1
  C  1353  1  0.05042100  0.19947300  0.38546600  1
  C  1359  1  0.03480100  0.20288300  0.36044600  1
  C  1366  1  0.53557800  0.43755400  0.19654500  1
  C  1367  1  0.54061900  0.42185800  0.19822000  1
  C  1368  1  0.54123400  0.42307500  0.21587000  1
  C  1369  1  0.53685700  0.44003200  0.23223000  1
  C  1370  1  0.53234500  0.45573900  0.23053500  1
  C  1371  1  0.53153900  0.45450200  0.21303800  1
  C  1373  1  0.55135200  0.39110200  0.20136900  1
  C  1374  1  0.55042500  0.38969500  0.18388400  1
  C  1380  1  0.53479600  0.36466900  0.15545800  1
  C  1387  1  0.53563000  0.79503500  0.23047100  1
  C  1388  1  0.54064900  0.79336600  0.21310200  1
  C  1389  1  0.54123500  0.77571700  0.19666700  1
  C  1390  1  0.53681000  0.75935400  0.19725100  1
  C  1391  1  0.53233500  0.76105400  0.21466200  1
  C  1392  1  0.53155100  0.77854700  0.23092600  1
  C  1394  1  0.55136600  0.79021300  0.17919300  1
  C  1395  1  0.55047200  0.80769900  0.19527500  1
  C  1401  1  0.53489100  0.83614300  0.19868900  1
  C  1408  1  0.53563900  0.76112200  0.55403500  1
  C  1409  1  0.54064700  0.77849600  0.56973500  1
  C  1410  1  0.54123400  0.79492900  0.56851700  1
  C  1411  1  0.53681900  0.79434000  0.55156700  1
  C  1412  1  0.53234800  0.77692800  0.53585700  1
  C  1413  1  0.53157500  0.76066500  0.53708800  1
  C  1415  1  0.55134700  0.81240800  0.60049100  1
  C  1416  1  0.55044700  0.79632900  0.60189900  1
  C  1422  1  0.53484500  0.79292200  0.62692500  1
  C  1429  1  0.68901400  0.66557600  0.08702300  1
  C  1430  1  0.70208700  0.67109600  0.07622400  1
  C  1431  1  0.72673800  0.67033500  0.07611200  1
  C  1432  1  0.73864500  0.66434000  0.08702200  1
  C  1433  1  0.72542500  0.65855600  0.09740700  1
  C  1434  1  0.70110600  0.65914100  0.09738300  1
  C  1436  1  0.72774600  0.68103700  0.05435200  1
  C  1437  1  0.70349200  0.68225000  0.05472600  1
  C  1443  1  0.68005800  0.70653900  0.05534200  1
  C  1450  1  0.68902100  0.42358000  0.32600100  1
  C  1451  1  0.70209100  0.40726300  0.32049200  1
  C  1452  1  0.72674100  0.40790900  0.32125000  1
  C  1453  1  0.73865000  0.42481000  0.32723000  1
  C  1454  1  0.72543100  0.44098200  0.33302600  1
  C  1455  1  0.70111300  0.44037600  0.33244200  1
  C  1457  1  0.72774600  0.37545000  0.31056000  1
  C  1458  1  0.70349200  0.37461400  0.30935600  1
  C  1464  1  0.68000600  0.35095200  0.28510100  1
  C  1471  1  0.68901400  0.90457900  0.56800900  1
  C  1472  1  0.70208500  0.91538900  0.58432600  1
  C  1473  1  0.72673600  0.91549800  0.58367900  1
  C  1474  1  0.73864300  0.90457600  0.56677700  1
  C  1475  1  0.72542500  0.89419400  0.55060600  1
  C  1476  1  0.70110400  0.89422200  0.55121400  1
  C  1478  1  0.72774100  0.93727500  0.61613600  1
  C  1479  1  0.70348800  0.93690100  0.61697500  1
  C  1485  1  0.68002600  0.93629600  0.64064100  1
  C  1492  1  0.18900100  0.33025600  0.90037200  1
  C  1493  1  0.20207400  0.32472400  0.91116000  1
  C  1494  1  0.22672500  0.32547900  0.91126700  1
  C  1495  1  0.23863100  0.33147400  0.90035500  1
  C  1496  1  0.22540800  0.33726400  0.88997700  1
  C  1497  1  0.20109000  0.33668400  0.89000500  1
  C  1499  1  0.22773700  0.31476900  0.93301900  1
  C  1500  1  0.20348300  0.31356300  0.93265200  1
  C  1506  1  0.18004000  0.28928000  0.93203800  1
  C  1513  1  0.18903000  0.57222400  0.66137400  1
  C  1514  1  0.20210200  0.58854100  0.66688100  1
  C  1515  1  0.22675300  0.58789200  0.66611800  1
  C  1516  1  0.23866000  0.57098800  0.66013200  1
  C  1517  1  0.22544000  0.55481900  0.65434400  1
  C  1518  1  0.20112100  0.55542700  0.65493100  1
  C  1520  1  0.22776100  0.62035100  0.67680700  1
  C  1521  1  0.20350700  0.62119000  0.67801800  1
  C  1527  1  0.18003100  0.64485300  0.70228100  1
  C  1534  1  0.18900800  0.09124200  0.41934400  1
  C  1535  1  0.20208800  0.08044600  0.40302900  1
  C  1536  1  0.22673900  0.08034300  0.40368200  1
  C  1537  1  0.23863900  0.09126500  0.42058900  1
  C  1538  1  0.22541200  0.10164100  0.43675600  1
  C  1539  1  0.20109400  0.10160800  0.43614200  1
  C  1541  1  0.22776100  0.05857600  0.37122400  1
  C  1542  1  0.20350900  0.05894600  0.37037900  1
  C  1548  1  0.18007100  0.05955900  0.34670600  1
  C  1555  1  0.23788000  0.57309000  0.90084900  1
  C  1556  1  0.22483100  0.58942800  0.91162600  1
  C  1557  1  0.20017700  0.58881100  0.91174300  1
  C  1558  1  0.18823600  0.57191900  0.90084800  1
  C  1559  1  0.20143400  0.55573200  0.89047500  1
  C  1560  1  0.22575400  0.55630900  0.89049600  1
  C  1562  1  0.19923200  0.62128400  0.93346500  1
  C  1563  1  0.22348800  0.62208900  0.93309000  1
  C  1569  1  0.24702800  0.64569700  0.93244600  1
  C  1576  1  0.23788000  0.09076400  0.66170800  1
  C  1577  1  0.22482900  0.07997300  0.66725000  1
  C  1578  1  0.20017500  0.07985600  0.66651400  1
  C  1579  1  0.18823500  0.09075500  0.66052000  1
  C  1580  1  0.20143600  0.10112300  0.65470200  1
  C  1581  1  0.22575800  0.10110500  0.65526500  1
  C  1583  1  0.19922700  0.05812400  0.67725300  1
  C  1584  1  0.22348100  0.05850000  0.67843600  1
  C  1590  1  0.24703700  0.05913900  0.70268100  1
  C  1597  1  0.23789000  0.32991000  0.41851200  1
  C  1598  1  0.22484100  0.32435400  0.40217500  1
  C  1599  1  0.20018700  0.32509500  0.40279500  1
  C  1600  1  0.18824700  0.33110700  0.41968900  1
  C  1601  1  0.20144500  0.33691500  0.43587500  1
  C  1602  1  0.22576700  0.33635000  0.43529500  1
  C  1604  1  0.19923900  0.31433500  0.37032000  1
  C  1605  1  0.22349500  0.31314700  0.36951300  1
  C  1611  1  0.24702100  0.28887900  0.34590500  1
  C  1618  1  0.73787900  0.42272500  0.08651100  1
  C  1619  1  0.72483100  0.40639000  0.07572100  1
  C  1620  1  0.70017700  0.40700500  0.07560700  1
  C  1621  1  0.68823500  0.42389700  0.08650500  1
  C  1622  1  0.70143300  0.44008500  0.09687300  1
  C  1623  1  0.72575500  0.43950800  0.09685400  1
  C  1625  1  0.69923600  0.37453400  0.05387900  1
  C  1626  1  0.72349200  0.37373300  0.05424600  1
  C  1632  1  0.74708700  0.35013700  0.05487000  1
  C  1639  1  0.73788700  0.90507700  0.32567800  1
  C  1640  1  0.72484300  0.91587300  0.32013900  1
  C  1641  1  0.70018900  0.91599300  0.32087200  1
  C  1642  1  0.68824400  0.90510000  0.32687000  1
  C  1643  1  0.70143800  0.89472200  0.33268000  1
  C  1644  1  0.72576000  0.89473700  0.33211900  1
  C  1646  1  0.69925300  0.93773000  0.31013900  1
  C  1647  1  0.72350800  0.93734500  0.30895300  1
  C  1653  1  0.74706300  0.93670000  0.28470600  1
  C  1660  1  0.73789400  0.66589000  0.56885900  1
  C  1661  1  0.72484500  0.67145800  0.58519700  1
  C  1662  1  0.70019300  0.67072400  0.58458100  1
  C  1663  1  0.68825100  0.66471200  0.56768500  1
  C  1664  1  0.70144900  0.65890000  0.55149900  1
  C  1665  1  0.72577100  0.65946000  0.55207700  1
  C  1667  1  0.69924500  0.68148800  0.61705500  1
  C  1668  1  0.72350100  0.68266800  0.61786100  1
  C  1674  1  0.74703200  0.70693300  0.64146800  1
  C  1681  1  0.97669700  0.61269300  0.97710100  1
  C  1682  1  0.97264000  0.63200100  0.98709600  1
  C  1683  1  0.96003400  0.64042100  0.00406600  1
  C  1684  1  0.95077500  0.62971600  0.01137200  1
  C  1685  1  0.95482400  0.61041200  0.00127600  1
  C  1686  1  0.96725300  0.60210400  0.98450500  1
  C  1688  1  0.96527700  0.66993000  0.00649200  1
  C  1689  1  0.97784700  0.66180100  0.98973700  1
  C  1695  1  0.98109600  0.69060200  0.98754900  1
  C  1702  1  0.97668600  0.36652000  0.37889400  1
  C  1703  1  0.97262800  0.35720900  0.35958700  1
  C  1704  1  0.96002300  0.36576100  0.35117000  1
  C  1705  1  0.95076300  0.38377300  0.36187700  1
  C  1706  1  0.95481400  0.39297800  0.38118100  1
  C  1707  1  0.96724400  0.38451400  0.38948700  1
  C  1709  1  0.96526200  0.33868000  0.32165800  1
  C  1710  1  0.97783400  0.33005300  0.32978600  1
  C  1716  1  0.98108600  0.29906600  0.30098200  1
  C  1723  1  0.97668400  0.01449800  0.62506800  1
  C  1724  1  0.97262900  0.00450100  0.63437900  1
  C  1725  1  0.96002100  0.98753200  0.62582700  1
  C  1726  1  0.95075200  0.98023300  0.60781900  1
  C  1727  1  0.95481100  0.99032600  0.59861000  1
  C  1728  1  0.96724100  0.00709800  0.60707500  1
  C  1730  1  0.96527500  0.98509700  0.65290500  1
  C  1731  1  0.97784600  0.00185300  0.66153300  1
  C  1737  1  0.98110900  0.00403000  0.69251600  1
  C  1744  1  0.47668800  0.38312500  0.01026900  1
  C  1745  1  0.47263300  0.36381600  0.00027300  1
  C  1746  1  0.46002000  0.35539800  0.98330800  1
  C  1747  1  0.45074700  0.36610400  0.97600800  1
  C  1748  1  0.45480200  0.38540700  0.98610000  1
  C  1749  1  0.46723900  0.39371500  0.00286800  1
  C  1751  1  0.46527500  0.32588700  0.98087600  1
  C  1752  1  0.47785100  0.33401500  0.99762700  1
  C  1758  1  0.48111500  0.30521400  0.99981300  1
  C  1765  1  0.47669800  0.62927200  0.60846800  1
  C  1766  1  0.47265200  0.63858400  0.62777800  1
  C  1767  1  0.46003900  0.63004000  0.63619900  1
  C  1768  1  0.45075700  0.61203600  0.62549500  1
  C  1769  1  0.45480200  0.60282700  0.60619000  1
  C  1770  1  0.46723900  0.61128400  0.59788000  1
  C  1772  1  0.46530600  0.65711700  0.66570900  1
  C  1773  1  0.47788200  0.66573900  0.65757900  1
  C  1779  1  0.48114800  0.69672700  0.68637700  1
  C  1786  1  0.47670400  0.98132500  0.36231900  1
  C  1787  1  0.47265200  0.99132200  0.35300700  1
  C  1788  1  0.46003700  0.00828700  0.36155100  1
  C  1789  1  0.45076300  0.01559000  0.37955800  1
  C  1790  1  0.45480900  0.00549500  0.38876700  1
  C  1791  1  0.46724600  0.98872600  0.38030800  1
  C  1793  1  0.46530000  0.01072000  0.33447400  1
  C  1794  1  0.47787600  0.99396800  0.32585200  1
  C  1800  1  0.48113900  0.99177800  0.29486200  1
  C  1807  1  0.95000000  0.38323100  0.01023500  1
  C  1808  1  0.95435800  0.36396400  0.00033300  1
  C  1809  1  0.96726300  0.35563900  0.98350900  1
  C  1810  1  0.97656000  0.36640600  0.97628200  1
  C  1811  1  0.97220700  0.38567200  0.98629700  1
  C  1812  1  0.95945800  0.39388700  0.00291700  1
  C  1814  1  0.96224700  0.32610600  0.98107800  1
  C  1815  1  0.94938800  0.33414600  0.99769300  1
  C  1821  1  0.94619600  0.30531200  0.99983200  1
  C  1828  1  0.95000400  0.62912600  0.60834600  1
  C  1829  1  0.95436300  0.63849300  0.62761200  1
  C  1830  1  0.96727100  0.62999300  0.63593700  1
  C  1831  1  0.97657500  0.61200300  0.62517100  1
  C  1832  1  0.97221500  0.60274900  0.60590600  1
  C  1833  1  0.95946100  0.61115200  0.59769100  1
  C  1835  1  0.96224600  0.65709400  0.66547100  1
  C  1836  1  0.94938600  0.66566800  0.65743000  1
  C  1842  1  0.94618500  0.69664100  0.68626600  1
  C  1849  1  0.95000800  0.98135000  0.36246000  1
  C  1850  1  0.95436700  0.99125000  0.35309400  1
  C  1851  1  0.96727200  0.00807700  0.36159400  1
  C  1852  1  0.97656700  0.01530500  0.37958900  1
  C  1853  1  0.97221200  0.00529200  0.38884100  1
  C  1854  1  0.95946300  0.98867100  0.38043500  1
  C  1856  1  0.96225600  0.01050600  0.33449100  1
  C  1857  1  0.94939800  0.99389000  0.32591500  1
  C  1863  1  0.94620700  0.99174800  0.29494200  1
  C  1870  1  0.45000700  0.61256200  0.97712900  1
  C  1871  1  0.45436400  0.63182800  0.98703200  1
  C  1872  1  0.46727300  0.64015300  0.00385500  1
  C  1873  1  0.47657400  0.62938600  0.01108000  1
  C  1874  1  0.47222500  0.61012000  0.00106300  1
  C  1875  1  0.45947100  0.60190500  0.98444500  1
  C  1877  1  0.46225300  0.66968800  0.00628900  1
  C  1878  1  0.44938900  0.66164800  0.98967500  1
  C  1884  1  0.44619500  0.69048100  0.98753500  1
  C  1891  1  0.45000300  0.36668900  0.37901700  1
  C  1892  1  0.45436300  0.35732200  0.35975200  1
  C  1893  1  0.46727000  0.36582100  0.35142600  1
  C  1894  1  0.47657200  0.38381300  0.36219200  1
  C  1895  1  0.47220400  0.39307000  0.38145600  1
  C  1896  1  0.45945400  0.38466600  0.38967300  1
  C  1898  1  0.46225000  0.33871900  0.32189400  1
  C  1899  1  0.44939100  0.33014400  0.32993400  1
  C  1905  1  0.44619200  0.29917300  0.30110000  1
  C  1912  1  0.45000300  0.01446400  0.62490000  1
  C  1913  1  0.45436400  0.00456600  0.63426800  1
  C  1914  1  0.46727300  0.98774100  0.62576900  1
  C  1915  1  0.47657700  0.98051700  0.60777700  1
  C  1916  1  0.47221300  0.99052500  0.59852100  1
  C  1917  1  0.45945900  0.00714500  0.60692600  1
  C  1919  1  0.46225100  0.98530900  0.65287100  1
  C  1920  1  0.44938900  0.00192200  0.66144300  1
  C  1926  1  0.44618700  0.00405900  0.69241500  1
  C  1933  1  0.88132100  0.57867700  0.12081300  1
  C  1934  1  0.87169000  0.57741700  0.13577000  1
  C  1935  1  0.87237700  0.56048500  0.13600600  1
  C  1936  1  0.88219000  0.54435300  0.12105300  1
  C  1937  1  0.89175500  0.54579100  0.10627400  1
  C  1938  1  0.89113000  0.56255200  0.10607800  1
  C  1940  1  0.85329500  0.57528600  0.16539700  1
  C  1941  1  0.85191300  0.59200500  0.16509800  1
  C  1947  1  0.82716900  0.60884500  0.19339300  1
  C  1954  1  0.88135300  0.54425700  0.41289800  1
  C  1955  1  0.87168800  0.56046300  0.41415900  1
  C  1956  1  0.87237100  0.57763500  0.43108700  1
  C  1957  1  0.88220700  0.57882500  0.44721700  1
  C  1958  1  0.89179400  0.56261500  0.44578100  1
  C  1959  1  0.89117300  0.54565600  0.42902400  1
  C  1961  1  0.85323700  0.59220400  0.41628700  1
  C  1962  1  0.85186000  0.57518300  0.39957200  1
  C  1968  1  0.82706800  0.58661500  0.38273600  1
  C  1975  1  0.88134500  0.87076800  0.44732700  1
  C  1976  1  0.87167700  0.85582400  0.43112100  1
  C  1977  1  0.87235600  0.85558300  0.41395100  1
  C  1978  1  0.88219000  0.87052500  0.41276200  1
  C  1979  1  0.89178000  0.88529500  0.42897100  1
  C  1980  1  0.89116400  0.88549500  0.44592800  1
  C  1982  1  0.85322100  0.82621400  0.39938100  1
  C  1983  1  0.85184500  0.82651800  0.41640100  1
  C  1989  1  0.82704400  0.79825700  0.40497300  1
  C  1996  1  0.38127800  0.41711700  0.86654900  1
  C  1997  1  0.37165900  0.41837600  0.85158800  1
  C  1998  1  0.37235500  0.43530600  0.85135000  1
  C  1999  1  0.38216900  0.45143700  0.86630300  1
  C  2000  1  0.39173400  0.44999700  0.88108100  1
  C  2001  1  0.39110100  0.43323900  0.88128000  1
  C  2003  1  0.35327800  0.42050900  0.82195700  1
  C  2004  1  0.35188900  0.40379100  0.82225700  1
  C  2010  1  0.32714700  0.38695600  0.79396000  1
  C  2017  1  0.38137000  0.45155300  0.57445100  1
  C  2018  1  0.37168700  0.43535000  0.57318700  1
  C  2019  1  0.37237200  0.41817900  0.55626100  1
  C  2020  1  0.38222800  0.41698400  0.54013400  1
  C  2021  1  0.39183400  0.43318800  0.54157300  1
  C  2022  1  0.39121000  0.45015000  0.55833000  1
  C  2024  1  0.35320200  0.40361600  0.57105200  1
  C  2025  1  0.35182000  0.42063900  0.58776600  1
  C  2031  1  0.32699500  0.40921600  0.60459200  1
  C  2038  1  0.38133300  0.12503600  0.54003200  1
  C  2039  1  0.37168300  0.13998900  0.55624300  1
  C  2040  1  0.37237400  0.14023400  0.57341500  1
  C  2041  1  0.38220200  0.12528900  0.57460300  1
  C  2042  1  0.39178100  0.11051500  0.55839300  1
  C  2043  1  0.39115600  0.11031100  0.54143300  1
  C  2045  1  0.35326300  0.16961300  0.58799000  1
  C  2046  1  0.35187500  0.16930500  0.57096900  1
  C  2052  1  0.32710000  0.19758100  0.58240700  1
  C  2059  1  0.04565700  0.45197700  0.86672800  1
  C  2060  1  0.05535700  0.43580500  0.85176400  1
  C  2061  1  0.05457300  0.41858000  0.85140900  1
  C  2062  1  0.04458700  0.41729900  0.86625400  1
  C  2063  1  0.03495500  0.43347400  0.88104100  1
  C  2064  1  0.03566600  0.45048400  0.88135000  1
  C  2066  1  0.07389700  0.40413700  0.82211900  1
  C  2067  1  0.07537200  0.42120800  0.82253900  1
  C  2073  1  0.10036500  0.40990900  0.79439500  1
  C  2080  1  0.04560600  0.12487100  0.57470500  1
  C  2081  1  0.05532900  0.13983000  0.57349900  1
  C  2082  1  0.05455900  0.14019000  0.55663300  1
  C  2083  1  0.04457400  0.12535000  0.54050300  1
  C  2084  1  0.03493400  0.11056200  0.54188500  1
  C  2085  1  0.03563800  0.11024700  0.55858400  1
  C  2087  1  0.07390000  0.16947400  0.57149000  1
  C  2088  1  0.07536600  0.16904700  0.58813900  1
  C  2094  1  0.10038100  0.19717600  0.60499000  1
  C  2101  1  0.04563100  0.41688800  0.53962400  1
  C  2102  1  0.05533600  0.41809700  0.55579700  1
  C  2103  1  0.05455900  0.43496600  0.57301900  1
  C  2104  1  0.04458200  0.45109400  0.57429900  1
  C  2105  1  0.03495000  0.44970800  0.55812600  1
  C  2106  1  0.03565900  0.43300700  0.54111600  1
  C  2108  1  0.07388100  0.42011600  0.58746100  1
  C  2109  1  0.07535000  0.40346300  0.57039000  1
  C  2115  1  0.10034000  0.38661400  0.58168500  1
  C  2122  1  0.54560500  0.54383400  0.12063600  1
  C  2123  1  0.55533800  0.56000000  0.13558900  1
  C  2124  1  0.55456300  0.57722400  0.13594300  1
  C  2125  1  0.54456400  0.57850900  0.12110500  1
  C  2126  1  0.53491200  0.56233900  0.10632400  1
  C  2127  1  0.53562100  0.54532800  0.10601400  1
  C  2129  1  0.57392800  0.59165600  0.16521500  1
  C  2130  1  0.57539400  0.57458300  0.16479600  1
  C  2136  1  0.60041800  0.58587200  0.19292400  1
  C  2143  1  0.54561400  0.87094100  0.41264800  1
  C  2144  1  0.55534200  0.85598900  0.41386300  1
  C  2145  1  0.55457000  0.85563700  0.43073300  1
  C  2146  1  0.54458100  0.87048100  0.44685900  1
  C  2147  1  0.53493500  0.88526100  0.44546800  1
  C  2148  1  0.53563900  0.88556900  0.42876600  1
  C  2150  1  0.57392000  0.82635800  0.41589100  1
  C  2151  1  0.57538500  0.82677500  0.39923700  1
  C  2157  1  0.60040400  0.79864600  0.38239600  1
  C  2164  1  0.54566100  0.57892700  0.44775900  1
  C  2165  1  0.55535500  0.57771800  0.43158400  1
  C  2166  1  0.55456800  0.56084900  0.41435900  1
  C  2167  1  0.54458100  0.54472400  0.41308000  1
  C  2168  1  0.53494300  0.54611500  0.42925500  1
  C  2169  1  0.53566800  0.56281400  0.44626600  1
  C  2171  1  0.57389200  0.57569400  0.39991400  1
  C  2172  1  0.57537300  0.59234600  0.41698600  1
  C  2178  1  0.60036800  0.60918700  0.40568400  1
  N  1183  1  0.87987100  0.81115200  0.21631200  1
  N  1186  1  0.88148400  0.77988700  0.18293200  1
  N  1190  1  0.87163100  0.79689400  0.16743400  1
  N  1196  1  0.88936600  0.74571500  0.18019000  1
  N  1197  1  0.88640200  0.80966100  0.24877800  1
  N  1204  1  0.87986300  0.40729300  0.18044800  1
  N  1207  1  0.88151200  0.40518300  0.21171500  1
  N  1211  1  0.87163800  0.37268000  0.19471700  1
  N  1217  1  0.88940300  0.43660600  0.24587400  1
  N  1218  1  0.88640100  0.44123900  0.18192400  1
  N  1225  1  0.87990900  0.77525400  0.58426600  1
  N  1228  1  0.88147600  0.80863400  0.58638000  1
  N  1232  1  0.87159500  0.82412400  0.61888100  1
  N  1238  1  0.88936600  0.81138700  0.55496600  1
  N  1239  1  0.88645400  0.74278500  0.55030000  1
  N  1246  1  0.37994600  0.18465500  0.77101400  1
  N  1249  1  0.38150400  0.21591300  0.80440400  1
  N  1253  1  0.37165400  0.19888600  0.81988100  1
  N  1259  1  0.38935700  0.25009800  0.80716800  1
  N  1260  1  0.38646100  0.18617500  0.73855200  1
  N  1267  1  0.37968300  0.58863400  0.80691100  1
  N  1270  1  0.38137600  0.59067200  0.77560800  1
  N  1274  1  0.37141200  0.62315800  0.79253500  1
  N  1280  1  0.38941600  0.55923100  0.74150300  1
  N  1281  1  0.38632200  0.55481700  0.80556600  1
  N  1288  1  0.37998200  0.22058100  0.40310700  1
  N  1291  1  0.38153700  0.18719100  0.40097300  1
  N  1295  1  0.37171500  0.17171300  0.36846400  1
  N  1301  1  0.38935900  0.18442100  0.43239600  1
  N  1302  1  0.38647000  0.25305200  0.43711700  1
  N  1309  1  0.04675700  0.58820800  0.77076300  1
  N  1312  1  0.04529300  0.59066300  0.80430000  1
  N  1316  1  0.05501100  0.62318700  0.81951900  1
  N  1322  1  0.03763500  0.55939600  0.80739800  1
  N  1323  1  0.04025900  0.55398900  0.73844500  1
  N  1330  1  0.04687100  0.22078600  0.80688400  1
  N  1333  1  0.04539700  0.18726500  0.77578600  1
  N  1337  1  0.05520400  0.17202600  0.79305400  1
  N  1343  1  0.03763300  0.18419200  0.74145300  1
  N  1344  1  0.04029000  0.25310300  0.80504400  1
  N  1351  1  0.04671900  0.18469000  0.40339900  1
  N  1354  1  0.04528500  0.21576900  0.40094000  1
  N  1358  1  0.05499700  0.19845600  0.36841500  1
  N  1364  1  0.03765000  0.25014200  0.43220600  1
  N  1365  1  0.04023000  0.18660500  0.43763400  1
  N  1372  1  0.54673800  0.40761500  0.21660000  1
  N  1375  1  0.54526400  0.40516800  0.18306900  1
  N  1379  1  0.55500200  0.37264700  0.16784200  1
  N  1385  1  0.53761400  0.43643300  0.17997700  1
  N  1386  1  0.54023900  0.44183300  0.24892500  1
  N  1393  1  0.54673300  0.77498600  0.18047500  1
  N  1396  1  0.54531800  0.80851500  0.21156400  1
  N  1400  1  0.55507700  0.82373700  0.19426900  1
  N  1406  1  0.53764000  0.81160900  0.24591800  1
  N  1407  1  0.54021100  0.74266200  0.18236100  1
  N  1414  1  0.54672300  0.81112300  0.58397800  1
  N  1417  1  0.54530200  0.78003600  0.58642300  1
  N  1421  1  0.55503900  0.79733800  0.61894400  1
  N  1427  1  0.53764700  0.74567200  0.55515400  1
  N  1428  1  0.54022700  0.80923100  0.54976700  1
  N  1435  1  0.73830200  0.67520700  0.06500600  1
  N  1438  1  0.69178500  0.67704900  0.06550400  1
  N  1442  1  0.69196800  0.68862300  0.04411900  1
  N  1448  1  0.66598100  0.66510500  0.08787800  1
  N  1449  1  0.76158100  0.66319100  0.08806800  1
  N  1456  1  0.73830400  0.39193000  0.31637900  1
  N  1459  1  0.69178700  0.39059200  0.31455300  1
  N  1463  1  0.69196200  0.35763800  0.30299800  1
  N  1469  1  0.66598600  0.42490800  0.32648200  1
  N  1470  1  0.76158600  0.42700500  0.32839700  1
  N  1477  1  0.73829900  0.92660700  0.59965700  1
  N  1480  1  0.69178200  0.92611900  0.60099600  1
  N  1484  1  0.69196200  0.94751400  0.63395200  1
  N  1490  1  0.66597900  0.90374700  0.56668000  1
  N  1491  1  0.76157900  0.90354600  0.56458400  1
  N  1498  1  0.23829200  0.32059900  0.92236500  1
  N  1501  1  0.19177400  0.31877300  0.92188300  1
  N  1505  1  0.19196100  0.30719200  0.94326200  1
  N  1511  1  0.16596600  0.33073700  0.89953000  1
  N  1512  1  0.26156500  0.33263000  0.89931700  1
  N  1519  1  0.23831800  0.60386900  0.67098700  1
  N  1522  1  0.19180000  0.60521300  0.67282400  1
  N  1526  1  0.19198000  0.63816800  0.68438000  1
  N  1532  1  0.16599600  0.57089800  0.66089200  1
  N  1533  1  0.26159400  0.56879500  0.65896500  1
  N  1540  1  0.23831100  0.06924300  0.38770900  1
  N  1543  1  0.19179500  0.06972000  0.38635300  1
  N  1547  1  0.19199000  0.04833700  0.35339500  1
  N  1553  1  0.16597300  0.09208900  0.42066500  1
  N  1554  1  0.26157200  0.09230900  0.42278900  1
  N  1561  1  0.18864500  0.60481000  0.92282900  1
  N  1564  1  0.23516400  0.60609100  0.92233000  1
  N  1568  1  0.23504600  0.63905500  0.94368500  1
  N  1574  1  0.26091500  0.57173800  0.89999300  1
  N  1575  1  0.16529500  0.56973200  0.89982300  1
  N  1582  1  0.18864100  0.06876600  0.67142200  1
  N  1585  1  0.23515900  0.06926500  0.67320500  1
  N  1589  1  0.23504100  0.04790300  0.68480600  1
  N  1595  1  0.26091500  0.09161100  0.66120100  1
  N  1596  1  0.16529500  0.09178200  0.65936000  1
  N  1603  1  0.18865500  0.32018200  0.38679500  1
  N  1606  1  0.23517200  0.31838500  0.38551000  1
  N  1610  1  0.23505300  0.30676500  0.35254400  1
  N  1616  1  0.26092500  0.33040700  0.41986600  1
  N  1617  1  0.16530500  0.33225700  0.42187500  1
  N  1624  1  0.68864700  0.39100500  0.06451900  1
  N  1627  1  0.73516600  0.38973100  0.06501100  1
  N  1631  1  0.73505700  0.35677000  0.04364200  1
  N  1637  1  0.76091300  0.42408200  0.08734700  1
  N  1638  1  0.66529600  0.42608200  0.08752400  1
  N  1645  1  0.68866100  0.92708700  0.31596600  1
  N  1648  1  0.73518000  0.92657900  0.31418400  1
  N  1652  1  0.73507300  0.94793900  0.30258200  1
  N  1658  1  0.76092200  0.90424400  0.32620300  1
  N  1659  1  0.66530400  0.90408200  0.32803300  1
  N  1666  1  0.68865900  0.67564300  0.60058100  1
  N  1669  1  0.73517800  0.67742400  0.60186200  1
  N  1673  1  0.73505900  0.68904900  0.63483000  1
  N  1679  1  0.76092900  0.66538300  0.56750600  1
  N  1680  1  0.66531100  0.66355500  0.56550200  1
  N  1687  1  0.95696300  0.65904700  0.01294700  1
  N  1690  1  0.98088700  0.64317800  0.98090100  1
  N  1694  1  0.98758500  0.67118300  0.98115000  1
  N  1700  1  0.98907300  0.60519900  0.96123500  1
  N  1701  1  0.93927900  0.63788600  0.02763200  1
  N  1708  1  0.95694900  0.35601800  0.33254300  1
  N  1711  1  0.98087500  0.33983800  0.34840800  1
  N  1715  1  0.98757300  0.31208500  0.32040300  1
  N  1721  1  0.98906000  0.35814700  0.38638900  1
  N  1722  1  0.93926600  0.39186200  0.35370800  1
  N  1729  1  0.95695300  0.97864800  0.63556900  1
  N  1732  1  0.98088200  0.01069100  0.65174900  1
  N  1736  1  0.98758900  0.01043500  0.67949900  1
  N  1742  1  0.98905600  0.03036700  0.63344100  1
  N  1743  1  0.93926300  0.96397000  0.59972600  1
  N  1750  1  0.45695100  0.33677200  0.97442500  1
  N  1753  1  0.48089000  0.35263800  0.00646400  1
  N  1757  1  0.48760100  0.32463200  0.00620800  1
  N  1763  1  0.48907500  0.39061600  0.02613100  1
  N  1764  1  0.43925500  0.35793400  0.95974700  1
  N  1771  1  0.45697500  0.63978400  0.65482500  1
  N  1774  1  0.48091400  0.65595200  0.63895500  1
  N  1778  1  0.48763400  0.68370200  0.66695800  1
  N  1784  1  0.48909200  0.63764100  0.60097800  1
  N  1785  1  0.43926900  0.60394700  0.63366700  1
  N  1792  1  0.45697100  0.01717000  0.35180800  1
  N  1795  1  0.48091100  0.98513200  0.33563900  1
  N  1799  1  0.48762500  0.98538400  0.30788700  1
  N  1805  1  0.48909700  0.96546800  0.35394900  1
  N  1806  1  0.43926900  0.03184800  0.38764600  1
  N  1813  1  0.97058200  0.33704200  0.97469100  1
  N  1816  1  0.94609900  0.35274000  0.00646600  1
  N  1820  1  0.93958300  0.32469900  0.00619000  1
  N  1826  1  0.93748900  0.39072000  0.02603000  1
  N  1827  1  0.98831400  0.35830400  0.96013900  1
  N  1834  1  0.97058800  0.63977400  0.65453500  1
  N  1837  1  0.94610000  0.65584800  0.63883600  1
  N  1841  1  0.93957900  0.68361200  0.66687700  1
  N  1847  1  0.93749500  0.63742900  0.60085300  1
  N  1848  1  0.98832400  0.60396200  0.63327600  1
  N  1855  1  0.97059100  0.01689300  0.35181300  1
  N  1858  1  0.94610900  0.98511600  0.33573600  1
  N  1862  1  0.93959500  0.98539000  0.30797100  1
  N  1868  1  0.93749800  0.96555600  0.35415600  1
  N  1869  1  0.98832100  0.03144900  0.38762900  1
  N  1876  1  0.47059200  0.65875000  0.01267200  1
  N  1879  1  0.44610000  0.64305300  0.98090100  1
  N  1883  1  0.43958200  0.67109400  0.98117900  1
  N  1889  1  0.43748800  0.60507600  0.96133900  1
  N  1890  1  0.48832900  0.63748800  0.02722200  1
  N  1897  1  0.47059000  0.35603900  0.33282800  1
  N  1900  1  0.44610400  0.33996400  0.34852800  1
  N  1904  1  0.43958700  0.31220000  0.32048900  1
  N  1910  1  0.43750000  0.35838600  0.38651300  1
  N  1911  1  0.48832000  0.39185500  0.35408800  1
  N  1918  1  0.47059200  0.97892400  0.63554900  1
  N  1921  1  0.44610200  0.01069700  0.65162400  1
  N  1925  1  0.43958000  0.01041900  0.67938600  1
  N  1931  1  0.43749700  0.03026000  0.63320400  1
  N  1932  1  0.48832600  0.96437100  0.59973500  1
  N  1939  1  0.86331500  0.56039400  0.15098000  1
  N  1942  1  0.86127100  0.59211700  0.15024700  1
  N  1946  1  0.84181400  0.60874400  0.17881100  1
  N  1952  1  0.88111500  0.59373100  0.11901400  1
  N  1953  1  0.88319300  0.52768500  0.11969200  1
  N  1960  1  0.86328100  0.59269200  0.43117700  1
  N  1963  1  0.86124600  0.56022800  0.39946000  1
  N  1967  1  0.84173800  0.57214500  0.38283500  1
  N  1973  1  0.88113600  0.52740000  0.39785000  1
  N  1974  1  0.88321200  0.59413800  0.46388200  1
  N  1981  1  0.86326100  0.84061800  0.39889300  1
  N  1984  1  0.86123400  0.84136100  0.43135700  1
  N  1988  1  0.84171800  0.81282300  0.41944100  1
  N  1994  1  0.88112900  0.87257600  0.46418400  1
  N  1995  1  0.88318400  0.87188700  0.39745500  1
  N  2002  1  0.36330000  0.43540000  0.83637500  1
  N  2005  1  0.36124000  0.40367700  0.83711000  1
  N  2009  1  0.34178800  0.38705300  0.80854200  1
  N  2015  1  0.38107500  0.40206000  0.86834300  1
  N  2016  1  0.38317700  0.46810500  0.86766500  1
  N  2023  1  0.36326400  0.40312400  0.55616500  1
  N  2026  1  0.36122400  0.43559100  0.58788100  1
  N  2030  1  0.34167900  0.42368300  0.60449800  1
  N  2036  1  0.38115500  0.46841000  0.58949900  1
  N  2037  1  0.38324100  0.40166800  0.52347300  1
  N  2044  1  0.36329600  0.15520500  0.58847500  1
  N  2047  1  0.36124800  0.15445600  0.55601100  1
  N  2051  1  0.34175800  0.18300500  0.56793200  1
  N  2057  1  0.38112700  0.12323400  0.52317800  1
  N  2058  1  0.38321000  0.12393800  0.58991600  1
  N  2065  1  0.06371400  0.40356400  0.83643200  1
  N  2068  1  0.06593700  0.43612400  0.83739200  1
  N  2072  1  0.08563800  0.42433900  0.80894700  1
  N  2078  1  0.04592000  0.46887000  0.86862200  1
  N  2079  1  0.04349600  0.40193200  0.86750600  1
  N  2086  1  0.06371600  0.15516700  0.55660100  1
  N  2089  1  0.06591500  0.15419600  0.58819400  1
  N  2093  1  0.08563800  0.18263000  0.60486300  1
  N  2099  1  0.04588800  0.12296200  0.58969400  1
  N  2100  1  0.04349200  0.12409700  0.52388200  1
  N  2107  1  0.06370400  0.43500300  0.58803400  1
  N  2110  1  0.06591100  0.40340300  0.55547600  1
  N  2114  1  0.08560900  0.38674000  0.56725900  1
  N  2120  1  0.04590400  0.40189100  0.52272900  1
  N  2121  1  0.04349900  0.46771600  0.58966500  1
  N  2128  1  0.56373000  0.59223400  0.15091200  1
  N  2131  1  0.56593400  0.55967500  0.14995300  1
  N  2135  1  0.58567300  0.57144900  0.17838100  1
  N  2141  1  0.54588900  0.52693700  0.11873300  1
  N  2142  1  0.54347400  0.59387800  0.11985600  1
  N  2149  1  0.56373200  0.84066700  0.43077500  1
  N  2152  1  0.56592900  0.84162100  0.39917200  1
  N  2156  1  0.58566100  0.81319000  0.38251600  1
  N  2162  1  0.54589800  0.87284500  0.39765600  1
  N  2163  1  0.54350500  0.87174300  0.46348400  1
  N  2170  1  0.56370800  0.56081000  0.39934200  1
  N  2173  1  0.56593900  0.59240800  0.43190200  1
  N  2177  1  0.58564000  0.60906700  0.42011500  1
  N  2183  1  0.54593400  0.59392400  0.46465100  1
  N  2184  1  0.54348900  0.52810500  0.39771400  1
