# generated using pymatgen
data_H17C30(NO)6
_symmetry_space_group_name_H-M   'P 1'
_cell_length_a   50.88990000
_cell_length_b   50.88990000
_cell_length_c   50.88990000
_cell_angle_alpha   90.00000000
_cell_angle_beta   90.00000000
_cell_angle_gamma   90.00000000
_symmetry_Int_Tables_number   1
_chemical_formula_structural   H17C30(NO)6
_chemical_formula_sum   'H408 C720 N144 O144'
_cell_volume   131793.74303290
_cell_formula_units_Z   24
loop_
 _symmetry_equiv_pos_site_id
 _symmetry_equiv_pos_as_xyz
  1  'x, y, z'
loop_
 _atom_site_type_symbol
 _atom_site_label
 _atom_site_symmetry_multiplicity
 _atom_site_fract_x
 _atom_site_fract_y
 _atom_site_fract_z
 _atom_site_occupancy
  H  49  1  0.96899400  0.64380200  0.49610200  1
  H  50  1  0.96883900  0.59678300  0.49518700  1
  H  51  1  0.05152600  0.64379000  0.48813800  1
  H  52  1  0.05149100  0.59666500  0.48785500  1
  H  53  1  0.01215700  0.57970800  0.43885300  1
  H  54  1  0.01295900  0.54212500  0.40623000  1
  H  55  1  0.00998300  0.51078700  0.48001500  1
  H  56  1  0.01089400  0.48042200  0.51422800  1
  H  57  1  0.00959800  0.58763900  0.54443600  1
  H  58  1  0.00895600  0.55459500  0.58189200  1
  H  59  1  0.96725300  0.49682400  0.59692800  1
  H  60  1  0.96695200  0.49475300  0.64389800  1
  H  61  1  0.04981700  0.50565800  0.59787900  1
  H  62  1  0.04935600  0.50444400  0.64499700  1
  H  63  1  0.00657800  0.44913000  0.58799500  1
  H  64  1  0.00585600  0.41166700  0.55547200  1
  H  65  1  0.00963400  0.43650900  0.41244100  1
  H  66  1  0.00884200  0.40357700  0.44985600  1
  H  67  1  0.04586300  0.39211700  0.51545400  1
  H  68  1  0.04165700  0.34512600  0.51937200  1
  H  69  1  0.96616200  0.39713800  0.49253800  1
  H  70  1  0.96235800  0.35013400  0.49570900  1
  H  71  1  0.96911000  0.49844500  0.39868600  1
  H  72  1  0.96640000  0.49612800  0.35163000  1
  H  73  1  0.04671400  0.47574500  0.34775500  1
  H  74  1  0.04973600  0.47863100  0.39492100  1
  H  76  1  0.00155700  0.30921700  0.52681600  1
  H  78  1  0.01039400  0.46897100  0.31032700  1
  H  80  1  0.02594700  0.68215900  0.50352600  1
  H  82  1  0.02374900  0.48856500  0.68289000  1
  H  131  1  0.49422600  0.96600700  0.64285700  1
  H  132  1  0.49715200  0.96956000  0.59588900  1
  H  133  1  0.47429500  0.04636100  0.64792400  1
  H  134  1  0.47782000  0.05022700  0.60087200  1
  H  135  1  0.43623200  0.01032200  0.58115700  1
  H  136  1  0.40395100  0.01095600  0.54343000  1
  H  137  1  0.47808100  0.01510100  0.51278600  1
  H  138  1  0.51275400  0.00864800  0.48315900  1
  H  139  1  0.54172300  0.01204500  0.59030000  1
  H  140  1  0.57965500  0.01006800  0.55785000  1
  H  141  1  0.59538200  0.96780100  0.49786900  1
  H  142  1  0.64229700  0.96747100  0.49518700  1
  H  143  1  0.59670000  0.04977400  0.51085000  1
  H  144  1  0.64375900  0.04924800  0.50905600  1
  H  145  1  0.58685500  0.00998800  0.45223700  1
  H  146  1  0.55445400  0.00972900  0.41453600  1
  H  147  1  0.41127200  0.01093600  0.43791600  1
  H  148  1  0.44916800  0.00946700  0.40558500  1
  H  149  1  0.50735200  0.04991200  0.39691400  1
  H  150  1  0.50683400  0.04918800  0.34980000  1
  H  151  1  0.49631300  0.96762400  0.39821100  1
  H  152  1  0.49493900  0.96707800  0.35123500  1
  H  153  1  0.39753500  0.96972900  0.49843500  1
  H  154  1  0.35057300  0.96616100  0.49524800  1
  H  155  1  0.34542000  0.04692100  0.47704200  1
  H  156  1  0.39247100  0.05078900  0.48081500  1
  H  158  1  0.49061400  0.02397000  0.31199700  1
  H  160  1  0.30875300  0.00985700  0.46869800  1
  H  162  1  0.46729900  0.00966100  0.68486300  1
  H  164  1  0.68128900  0.02489500  0.49153600  1
  H  213  1  0.64254000  0.49429700  0.96593300  1
  H  214  1  0.59558600  0.49721700  0.96970200  1
  H  215  1  0.64796200  0.47416500  0.04621000  1
  H  216  1  0.60092700  0.47766900  0.05029300  1
  H  217  1  0.58094100  0.43618700  0.01039300  1
  H  218  1  0.54313500  0.40398800  0.01089400  1
  H  219  1  0.51264000  0.47815400  0.01529700  1
  H  220  1  0.48302100  0.51287200  0.00945200  1
  H  221  1  0.59025500  0.54166800  0.01249100  1
  H  222  1  0.55783600  0.57964200  0.01089900  1
  H  223  1  0.49803400  0.59516700  0.96859900  1
  H  224  1  0.49577200  0.64208400  0.96793700  1
  H  225  1  0.51085200  0.59694600  0.05060000  1
  H  226  1  0.50950200  0.64404000  0.04973100  1
  H  227  1  0.45224500  0.58702200  0.01081300  1
  H  228  1  0.41447100  0.55470500  0.01022500  1
  H  229  1  0.43765900  0.41148300  0.01090200  1
  H  230  1  0.40535600  0.44941000  0.00960500  1
  H  231  1  0.39661100  0.50765900  0.05014000  1
  H  232  1  0.34951000  0.50711100  0.04927200  1
  H  233  1  0.39816800  0.49646200  0.96788000  1
  H  234  1  0.35119700  0.49503000  0.96720000  1
  H  235  1  0.49791200  0.39794400  0.96955800  1
  H  236  1  0.49482100  0.35097700  0.96581700  1
  H  237  1  0.47714400  0.34546000  0.04668200  1
  H  238  1  0.48081300  0.39250200  0.05071700  1
  H  240  1  0.31181600  0.49083400  0.02406500  1
  H  242  1  0.46879100  0.30888500  0.00948500  1
  H  244  1  0.68473500  0.46730300  0.00940000  1
  H  246  1  0.49234300  0.68163400  0.02479900  1
  H  295  1  0.46892400  0.14640100  0.99800600  1
  H  296  1  0.46783200  0.09930900  0.99735300  1
  H  297  1  0.55182700  0.14467800  0.99491500  1
  H  298  1  0.55083200  0.09749000  0.99466900  1
  H  299  1  0.50948800  0.08511900  0.94307100  1
  H  300  1  0.50961400  0.04971500  0.90808800  1
  H  301  1  0.50850800  0.01377000  0.97987100  1
  H  302  1  0.50570200  0.98168200  0.01231800  1
  H  303  1  0.50758000  0.08662600  0.04881600  1
  H  304  1  0.50626600  0.05151900  0.08435300  1
  H  305  1  0.46560700  0.99172400  0.09697800  1
  H  306  1  0.46626700  0.98864200  0.14395000  1
  H  307  1  0.54782600  0.00342800  0.09664900  1
  H  308  1  0.54830900  0.00103900  0.14372600  1
  H  309  1  0.50734600  0.94569700  0.08406200  1
  H  310  1  0.50713800  0.91033000  0.04910500  1
  H  311  1  0.50867700  0.94397900  0.90784200  1
  H  312  1  0.50758200  0.90885800  0.94332900  1
  H  313  1  0.54802200  0.89727700  0.00144600  1
  H  314  1  0.54852200  0.85016700  0.00008700  1
  H  315  1  0.46573300  0.89664200  0.99032400  1
  H  316  1  0.46639900  0.84962100  0.98825300  1
  H  317  1  0.46782400  0.99891500  0.89486100  1
  H  318  1  0.46852900  0.99984900  0.84776400  1
  H  319  1  0.55142800  0.99651600  0.84877800  1
  H  320  1  0.55082700  0.99594200  0.89598200  1
  H  322  1  0.52410400  0.81170000  0.98381000  1
  H  324  1  0.52418300  0.01038300  0.80971700  1
  H  326  1  0.52496500  0.18389400  0.00868900  1
  H  328  1  0.52381100  0.98376900  0.18186700  1
  H  377  1  0.99821700  0.46876300  0.14756900  1
  H  378  1  0.99738300  0.46770000  0.10047800  1
  H  379  1  0.99506600  0.55166200  0.14590800  1
  H  380  1  0.99464200  0.55069900  0.09872500  1
  H  381  1  0.94303400  0.50933900  0.08640800  1
  H  382  1  0.90798800  0.50956300  0.05105700  1
  H  383  1  0.97971900  0.50852000  0.01500400  1
  H  384  1  0.01213900  0.50595100  0.98287900  1
  H  385  1  0.04878500  0.50741900  0.08774700  1
  H  386  1  0.08427800  0.50619900  0.05258800  1
  H  387  1  0.09670400  0.46562100  0.99265700  1
  H  388  1  0.14364900  0.46618700  0.98923800  1
  H  389  1  0.09662500  0.54782600  0.00445900  1
  H  390  1  0.14368500  0.54821700  0.00173400  1
  H  391  1  0.08382500  0.50759600  0.94676600  1
  H  392  1  0.04880100  0.50759600  0.91147000  1
  H  393  1  0.90759100  0.50896200  0.94531400  1
  H  394  1  0.94304400  0.50806400  0.91015700  1
  H  395  1  0.00106200  0.54850200  0.89852400  1
  H  396  1  0.99980400  0.54894000  0.85139700  1
  H  397  1  0.99015000  0.46617100  0.89796400  1
  H  398  1  0.98818700  0.46677600  0.85093500  1
  H  399  1  0.89467300  0.46790600  0.00007100  1
  H  400  1  0.84756500  0.46859600  0.00067300  1
  H  401  1  0.84858100  0.55150400  0.99754800  1
  H  402  1  0.89578900  0.55091700  0.99729800  1
  H  404  1  0.98364100  0.52425200  0.81289200  1
  H  406  1  0.80940800  0.52421000  0.01102000  1
  H  408  1  0.00903000  0.52484300  0.18502300  1
  H  410  1  0.18166100  0.52365400  0.98414600  1
  H  459  1  0.14510300  0.99041500  0.46891400  1
  H  460  1  0.09806800  0.98945000  0.46870000  1
  H  461  1  0.14477600  0.99472600  0.55176600  1
  H  462  1  0.09762300  0.99440600  0.55158100  1
  H  463  1  0.08117300  0.93987200  0.51878100  1
  H  464  1  0.04383100  0.90688500  0.51879300  1
  H  465  1  0.01288400  0.97971300  0.50516900  1
  H  466  1  0.98241300  0.01485100  0.50406300  1
  H  467  1  0.08900800  0.04409000  0.50161400  1
  H  468  1  0.05625300  0.08168400  0.49988900  1
  H  469  1  0.98821200  0.09655200  0.46697500  1
  H  470  1  0.99061500  0.14361900  0.46383500  1
  H  471  1  0.02026400  0.10015000  0.54353000  1
  H  472  1  0.02337300  0.14721600  0.53990300  1
  H  473  1  0.95120300  0.08803200  0.51494300  1
  H  474  1  0.91384400  0.05508100  0.51500200  1
  H  475  1  0.93912600  0.91267200  0.50192300  1
  H  476  1  0.90634500  0.95022800  0.50159300  1
  H  477  1  0.89699600  0.00394000  0.54924300  1
  H  478  1  0.84992900  0.00216500  0.54894000  1
  H  479  1  0.89755400  0.00097500  0.46628500  1
  H  480  1  0.85062300  0.99831300  0.46607300  1
  H  481  1  0.00679400  0.89733500  0.46982800  1
  H  482  1  0.00400900  0.85031200  0.46745400  1
  H  483  1  0.97171800  0.84814700  0.54377200  1
  H  484  1  0.97499100  0.89524500  0.54651500  1
  H  486  1  0.81241100  0.98704700  0.52274600  1
  H  488  1  0.96912600  0.81046200  0.50861200  1
  H  490  1  0.18309400  0.00664800  0.52373700  1
  H  492  1  0.02603200  0.18397300  0.50157900  1
  H  503  1  0.04912200  0.52985000  0.27964300  1
  H  506  1  0.99448800  0.43646800  0.22241700  1
  H  521  1  0.93001000  0.51655800  0.73271100  1
  H  524  1  0.01066300  0.43290900  0.76658600  1
  H  539  1  0.27699000  0.04807600  0.52944700  1
  H  542  1  0.21833400  0.99224600  0.43694700  1
  H  557  1  0.73115300  0.93180800  0.51658600  1
  H  560  1  0.76680900  0.01175900  0.43267900  1
  H  575  1  0.52935500  0.27868800  0.04842800  1
  H  578  1  0.43638300  0.22159800  0.99354700  1
  H  593  1  0.51724200  0.73442500  0.92893900  1
  H  596  1  0.43316900  0.76469800  0.01080700  1
  H  611  1  0.52825800  0.04905300  0.71490800  1
  H  614  1  0.43625200  0.99467900  0.77521900  1
  H  629  1  0.51665100  0.93019100  0.26542000  1
  H  632  1  0.43266200  0.00991900  0.22915400  1
  H  647  1  0.05423300  0.27993400  0.47865500  1
  H  650  1  0.98057200  0.21367900  0.55562100  1
  H  665  1  0.93099000  0.73211400  0.49163600  1
  H  668  1  0.02702200  0.77698100  0.55101500  1
  H  683  1  0.26384800  0.51668600  0.93000600  1
  H  686  1  0.22901600  0.43240400  0.00975400  1
  H  701  1  0.71422400  0.52833100  0.04885100  1
  H  704  1  0.77515000  0.43638500  0.99480300  1
  H  757  1  0.12619600  0.80100400  0.65330400  1
  H  758  1  0.12604100  0.75398500  0.65238900  1
  H  759  1  0.20872800  0.80099200  0.64534000  1
  H  760  1  0.20869300  0.75386700  0.64505700  1
  H  761  1  0.16935900  0.73691000  0.59605500  1
  H  762  1  0.17016100  0.69932700  0.56343200  1
  H  763  1  0.16718500  0.66798900  0.63721700  1
  H  764  1  0.16809600  0.63762400  0.67143000  1
  H  765  1  0.16680000  0.74484100  0.70163800  1
  H  766  1  0.16615800  0.71179700  0.73909400  1
  H  767  1  0.12445500  0.65402600  0.75413000  1
  H  768  1  0.12415400  0.65195500  0.80110000  1
  H  769  1  0.20701900  0.66286000  0.75508100  1
  H  770  1  0.20655800  0.66164600  0.80219900  1
  H  771  1  0.16378000  0.60633200  0.74519700  1
  H  772  1  0.16305800  0.56886900  0.71267400  1
  H  773  1  0.16683600  0.59371100  0.56964300  1
  H  774  1  0.16604400  0.56077900  0.60705800  1
  H  775  1  0.20306500  0.54931900  0.67265600  1
  H  776  1  0.19885900  0.50232800  0.67657400  1
  H  777  1  0.12336400  0.55434000  0.64974000  1
  H  778  1  0.11956000  0.50733600  0.65291100  1
  H  779  1  0.12631200  0.65564700  0.55588800  1
  H  780  1  0.12360200  0.65333000  0.50883200  1
  H  781  1  0.20391600  0.63294700  0.50495700  1
  H  782  1  0.20693800  0.63583300  0.55212300  1
  H  784  1  0.15875900  0.46641900  0.68401800  1
  H  786  1  0.16759600  0.62617300  0.46752900  1
  H  788  1  0.18314900  0.83936100  0.66072800  1
  H  790  1  0.18095100  0.64576700  0.84009200  1
  H  839  1  0.65142800  0.12320900  0.80005900  1
  H  840  1  0.65435400  0.12676200  0.75309100  1
  H  841  1  0.63149700  0.20356300  0.80512600  1
  H  842  1  0.63502200  0.20742900  0.75807400  1
  H  843  1  0.59343400  0.16752400  0.73835900  1
  H  844  1  0.56115300  0.16815800  0.70063200  1
  H  845  1  0.63528300  0.17230300  0.66998800  1
  H  846  1  0.66995600  0.16585000  0.64036100  1
  H  847  1  0.69892500  0.16924700  0.74750200  1
  H  848  1  0.73685700  0.16727000  0.71505200  1
  H  849  1  0.75258400  0.12500300  0.65507100  1
  H  850  1  0.79949900  0.12467300  0.65238900  1
  H  851  1  0.75390200  0.20697600  0.66805200  1
  H  852  1  0.80096100  0.20645000  0.66625800  1
  H  853  1  0.74405700  0.16719000  0.60943900  1
  H  854  1  0.71165600  0.16693100  0.57173800  1
  H  855  1  0.56847400  0.16813800  0.59511800  1
  H  856  1  0.60637000  0.16666900  0.56278700  1
  H  857  1  0.66455400  0.20711400  0.55411600  1
  H  858  1  0.66403600  0.20639000  0.50700200  1
  H  859  1  0.65351500  0.12482600  0.55541300  1
  H  860  1  0.65214100  0.12428000  0.50843700  1
  H  861  1  0.55473700  0.12693100  0.65563700  1
  H  862  1  0.50777500  0.12336300  0.65245000  1
  H  863  1  0.50262200  0.20412300  0.63424400  1
  H  864  1  0.54967300  0.20799100  0.63801700  1
  H  866  1  0.64781600  0.18117200  0.46919900  1
  H  868  1  0.46595500  0.16705900  0.62590000  1
  H  870  1  0.62450100  0.16686300  0.84206500  1
  H  872  1  0.83849100  0.18209700  0.64873800  1
  H  921  1  0.79974200  0.65149900  0.12313500  1
  H  922  1  0.75278800  0.65441900  0.12690400  1
  H  923  1  0.80516400  0.63136700  0.20341200  1
  H  924  1  0.75812900  0.63487100  0.20749500  1
  H  925  1  0.73814300  0.59338900  0.16759500  1
  H  926  1  0.70033700  0.56119000  0.16809600  1
  H  927  1  0.66984200  0.63535600  0.17249900  1
  H  928  1  0.64022300  0.67007400  0.16665400  1
  H  929  1  0.74745700  0.69887000  0.16969300  1
  H  930  1  0.71503800  0.73684400  0.16810100  1
  H  931  1  0.65523600  0.75236900  0.12580100  1
  H  932  1  0.65297400  0.79928600  0.12513900  1
  H  933  1  0.66805400  0.75414800  0.20780200  1
  H  934  1  0.66666667  0.80124200  0.20693300  1
  H  935  1  0.60944700  0.74422400  0.16801500  1
  H  936  1  0.57167300  0.71190700  0.16742700  1
  H  937  1  0.59486100  0.56868500  0.16810400  1
  H  938  1  0.56255800  0.60661200  0.16680700  1
  H  939  1  0.55381300  0.66486100  0.20734200  1
  H  940  1  0.50671200  0.66431300  0.20647400  1
  H  941  1  0.55537000  0.65366400  0.12508200  1
  H  942  1  0.50839900  0.65223200  0.12440200  1
  H  943  1  0.65511400  0.55514600  0.12676000  1
  H  944  1  0.65202300  0.50817900  0.12301900  1
  H  945  1  0.63434600  0.50266200  0.20388400  1
  H  946  1  0.63801500  0.54970400  0.20791900  1
  H  948  1  0.46901800  0.64803600  0.18126700  1
  H  950  1  0.62599300  0.46608700  0.16668700  1
  H  952  1  0.84193700  0.62450500  0.16660200  1
  H  954  1  0.64954500  0.83883600  0.18200100  1
  H  1003  1  0.62612600  0.30360300  0.15520800  1
  H  1004  1  0.62503400  0.25651100  0.15455500  1
  H  1005  1  0.70902900  0.30188000  0.15211700  1
  H  1006  1  0.70803400  0.25469200  0.15187100  1
  H  1007  1  0.66666667  0.24232100  0.10027300  1
  H  1008  1  0.66681600  0.20691700  0.06529010  1
  H  1009  1  0.66571000  0.17097200  0.13707300  1
  H  1010  1  0.66290400  0.13888400  0.16952000  1
  H  1011  1  0.66478200  0.24382800  0.20601800  1
  H  1012  1  0.66346800  0.20872100  0.24155500  1
  H  1013  1  0.62280900  0.14892600  0.25418000  1
  H  1014  1  0.62346900  0.14584400  0.30115200  1
  H  1015  1  0.70502800  0.16063000  0.25385100  1
  H  1016  1  0.70551100  0.15824100  0.30092800  1
  H  1017  1  0.66454800  0.10289900  0.24126400  1
  H  1018  1  0.66434000  0.06753210  0.20630700  1
  H  1019  1  0.66587900  0.10118100  0.06504410  1
  H  1020  1  0.66478400  0.06606010  0.10053100  1
  H  1021  1  0.70522400  0.05447910  0.15864800  1
  H  1022  1  0.70572400  0.00736912  0.15728900  1
  H  1023  1  0.62293500  0.05384410  0.14752600  1
  H  1024  1  0.62360100  0.00682312  0.14545500  1
  H  1025  1  0.62502600  0.15611700  0.05206310  1
  H  1026  1  0.62573100  0.15705100  0.00496612  1
  H  1027  1  0.70863000  0.15371800  0.00598012  1
  H  1028  1  0.70802900  0.15314400  0.05318410  1
  H  1030  1  0.68130600  0.96890200  0.14101200  1
  H  1032  1  0.68138500  0.16758500  0.96691900  1
  H  1034  1  0.68216700  0.34109600  0.16589100  1
  H  1036  1  0.68101300  0.14097100  0.33906900  1
  H  1085  1  0.15541900  0.62596500  0.30477100  1
  H  1086  1  0.15458500  0.62490200  0.25768000  1
  H  1087  1  0.15226800  0.70886400  0.30311000  1
  H  1088  1  0.15184400  0.70790100  0.25592700  1
  H  1089  1  0.10023600  0.66654100  0.24361000  1
  H  1090  1  0.06519010  0.66676500  0.20825900  1
  H  1091  1  0.13692100  0.66572200  0.17220600  1
  H  1092  1  0.16934100  0.66315300  0.14008100  1
  H  1093  1  0.20598700  0.66462100  0.24494900  1
  H  1094  1  0.24148000  0.66340100  0.20979000  1
  H  1095  1  0.25390600  0.62282300  0.14985900  1
  H  1096  1  0.30085100  0.62338900  0.14644000  1
  H  1097  1  0.25382700  0.70502800  0.16166100  1
  H  1098  1  0.30088700  0.70541900  0.15893600  1
  H  1099  1  0.24102700  0.66479800  0.10396800  1
  H  1100  1  0.20600300  0.66479800  0.06867210  1
  H  1101  1  0.06479310  0.66616400  0.10251600  1
  H  1102  1  0.10024600  0.66526600  0.06735910  1
  H  1103  1  0.15826400  0.70570400  0.05572610  1
  H  1104  1  0.15700600  0.70614200  0.00859912  1
  H  1105  1  0.14735200  0.62337300  0.05516610  1
  H  1106  1  0.14538900  0.62397800  0.00813712  1
  H  1107  1  0.05187510  0.62510800  0.15727300  1
  H  1108  1  0.00476712  0.62579800  0.15787500  1
  H  1109  1  0.00578312  0.70870600  0.15475000  1
  H  1110  1  0.05299110  0.70811900  0.15450000  1
  H  1112  1  0.14084300  0.68145400  0.97009400  1
  H  1114  1  0.96661000  0.68141200  0.16822200  1
  H  1116  1  0.16623200  0.68204500  0.34222500  1
  H  1118  1  0.33886300  0.68085600  0.14134800  1
  H  1167  1  0.30230500  0.14761700  0.62611600  1
  H  1168  1  0.25527000  0.14665200  0.62590200  1
  H  1169  1  0.30197800  0.15192800  0.70896800  1
  H  1170  1  0.25482500  0.15160800  0.70878300  1
  H  1171  1  0.23837500  0.09707410  0.67598300  1
  H  1172  1  0.20103300  0.06408710  0.67599500  1
  H  1173  1  0.17008600  0.13691500  0.66237100  1
  H  1174  1  0.13961500  0.17205300  0.66126500  1
  H  1175  1  0.24621000  0.20129200  0.65881600  1
  H  1176  1  0.21345500  0.23888600  0.65709100  1
  H  1177  1  0.14541400  0.25375400  0.62417700  1
  H  1178  1  0.14781700  0.30082100  0.62103700  1
  H  1179  1  0.17746600  0.25735200  0.70073200  1
  H  1180  1  0.18057500  0.30441800  0.69710500  1
  H  1181  1  0.10840500  0.24523400  0.67214500  1
  H  1182  1  0.07104610  0.21228300  0.67220400  1
  H  1183  1  0.09632810  0.06987410  0.65912500  1
  H  1184  1  0.06354710  0.10743000  0.65879500  1
  H  1185  1  0.05419810  0.16114200  0.70644500  1
  H  1186  1  0.00713112  0.15936700  0.70614200  1
  H  1187  1  0.05475610  0.15817700  0.62348700  1
  H  1188  1  0.00782512  0.15551500  0.62327500  1
  H  1189  1  0.16399600  0.05453710  0.62703000  1
  H  1190  1  0.16121100  0.00751412  0.62465600  1
  H  1191  1  0.12892000  0.00534912  0.70097400  1
  H  1192  1  0.13219300  0.05244710  0.70371700  1
  H  1194  1  0.96961300  0.14424900  0.67994800  1
  H  1196  1  0.12632800  0.96766400  0.66581400  1
  H  1198  1  0.34029600  0.16385000  0.68093900  1
  H  1200  1  0.18323400  0.34117500  0.65878100  1
  H  1211  1  0.20632400  0.68705200  0.43684500  1
  H  1214  1  0.15169000  0.59367000  0.37961900  1
  H  1229  1  0.08721210  0.67376000  0.88991300  1
  H  1232  1  0.16786500  0.59011100  0.92378800  1
  H  1247  1  0.43419200  0.20527800  0.68664900  1
  H  1250  1  0.37553600  0.14944800  0.59414900  1
  H  1265  1  0.88835500  0.08901010  0.67378800  1
  H  1268  1  0.92401100  0.16896100  0.58988100  1
  H  1283  1  0.68655700  0.43589000  0.20563000  1
  H  1286  1  0.59358500  0.37880000  0.15074900  1
  H  1301  1  0.67444400  0.89162700  0.08614110  1
  H  1304  1  0.59037100  0.92190000  0.16800900  1
  H  1319  1  0.68546000  0.20625500  0.87211000  1
  H  1322  1  0.59345400  0.15188100  0.93242100  1
  H  1337  1  0.67385300  0.08739310  0.42262200  1
  H  1340  1  0.58986400  0.16712100  0.38635600  1
  H  1355  1  0.21143500  0.43713600  0.63585700  1
  H  1358  1  0.13777400  0.37088100  0.71282300  1
  H  1373  1  0.08819210  0.88931600  0.64883800  1
  H  1376  1  0.18422400  0.93418300  0.70821700  1
  H  1391  1  0.42105000  0.67388800  0.08720810  1
  H  1394  1  0.38621800  0.58960600  0.16695600  1
  H  1409  1  0.87142600  0.68553300  0.20605300  1
  H  1412  1  0.93235200  0.59358700  0.15200500  1
  C  1  1  0.01185500  0.56027400  0.44392300  1
  C  2  1  0.01225500  0.53978500  0.42616700  1
  C  3  1  0.01141900  0.51617300  0.44020100  1
  C  5  1  0.01098100  0.54964000  0.46921300  1
  C  6  1  0.01024500  0.56455200  0.49281900  1
  C  7  1  0.00981300  0.55365400  0.51847600  1
  C  9  1  0.00942800  0.52461700  0.55141600  1
  C  10  1  0.00927700  0.54977100  0.56239700  1
  C  11  1  0.00954600  0.56769400  0.54206600  1
  C  12  1  0.00901200  0.50055900  0.56544400  1
  C  13  1  0.00883800  0.47506300  0.55401600  1
  C  15  1  0.00864800  0.44161600  0.52503400  1
  C  16  1  0.00717200  0.43103700  0.55032900  1
  C  17  1  0.00754400  0.45148900  0.56807400  1
  C  18  1  0.00860800  0.42667200  0.50143200  1
  C  19  1  0.00955400  0.43757200  0.47579600  1
  C  21  1  0.01067600  0.46659800  0.44284400  1
  C  22  1  0.00991700  0.44141800  0.43191100  1
  C  23  1  0.00947400  0.42351000  0.45223300  1
  C  24  1  0.01111900  0.49066100  0.42876900  1
  C  25  1  0.00974700  0.48901900  0.40095000  1
  C  26  1  0.03211000  0.48227500  0.38593700  1
  C  27  1  0.03032000  0.48038600  0.35843100  1
  C  28  1  0.00639000  0.48599200  0.34558700  1
  C  29  1  0.98399900  0.49244800  0.36063900  1
  C  30  1  0.98559300  0.49375800  0.38813400  1
  C  31  1  0.00641800  0.39885700  0.50354000  1
  C  32  1  0.02818100  0.38345300  0.51133500  1
  C  33  1  0.02572400  0.35602900  0.51375600  1
  C  34  1  0.00170200  0.34357100  0.50772000  1
  C  35  1  0.97996700  0.35889600  0.49989900  1
  C  36  1  0.98221900  0.38635800  0.49808900  1
  C  37  1  0.00849200  0.50205800  0.59326900  1
  C  38  1  0.98453700  0.49922700  0.60694600  1
  C  39  1  0.98438000  0.49822900  0.63452700  1
  C  40  1  0.00801800  0.50050600  0.64900300  1
  C  41  1  0.03190600  0.50327500  0.63506700  1
  C  42  1  0.03220100  0.50414100  0.60748400  1
  C  43  1  0.01009500  0.59245200  0.49082600  1
  C  44  1  0.98628600  0.60654500  0.49292100  1
  C  45  1  0.03394400  0.60646400  0.48881400  1
  C  46  1  0.03393200  0.63409700  0.48909900  1
  C  47  1  0.01018800  0.64843700  0.49108000  1
  C  48  1  0.98638300  0.63418700  0.49314900  1
  C  83  1  0.44150400  0.01165700  0.56182300  1
  C  84  1  0.42389200  0.01199500  0.54124900  1
  C  85  1  0.43814600  0.01289300  0.51779200  1
  C  87  1  0.46690400  0.01275500  0.55141400  1
  C  88  1  0.49042900  0.01229900  0.56647400  1
  C  89  1  0.51625000  0.01193900  0.55594300  1
  C  91  1  0.54962800  0.01044500  0.52743500  1
  C  92  1  0.56023900  0.01062100  0.55273500  1
  C  93  1  0.53964400  0.01168100  0.57032500  1
  C  94  1  0.56399400  0.00944700  0.50359300  1
  C  95  1  0.55270300  0.00944500  0.47803400  1
  C  97  1  0.52391900  0.00950100  0.44447300  1
  C  98  1  0.54926600  0.00956700  0.43394100  1
  C  99  1  0.56690000  0.00967000  0.45450300  1
  C  100  1  0.50039600  0.00946200  0.42948200  1
  C  101  1  0.47461300  0.01035700  0.43997900  1
  C  103  1  0.44127600  0.01202400  0.46840500  1
  C  104  1  0.43067300  0.01111800  0.44310400  1
  C  105  1  0.45125900  0.01027000  0.42554400  1
  C  106  1  0.42688400  0.01255100  0.49223500  1
  C  107  1  0.39912100  0.01066100  0.49023500  1
  C  108  1  0.38378200  0.03289800  0.48382700  1
  C  109  1  0.35635200  0.03061700  0.48139600  1
  C  110  1  0.34391100  0.00627800  0.48606900  1
  C  111  1  0.35929300  0.98401900  0.49218200  1
  C  112  1  0.38672900  0.98611900  0.49401800  1
  C  113  1  0.50262800  0.00872500  0.40171000  1
  C  114  1  0.50559200  0.03227400  0.38739100  1
  C  115  1  0.50513800  0.03182300  0.35980200  1
  C  116  1  0.50189900  0.00793600  0.34595700  1
  C  117  1  0.49884800  0.98444900  0.36053700  1
  C  118  1  0.49936600  0.98476900  0.38813000  1
  C  119  1  0.59185200  0.00870200  0.50530700  1
  C  120  1  0.60547600  0.98490300  0.50111100  1
  C  121  1  0.63305900  0.98471200  0.49976100  1
  C  122  1  0.64767700  0.00815800  0.50297400  1
  C  123  1  0.63379400  0.03187300  0.50724000  1
  C  124  1  0.60621500  0.03220500  0.50847000  1
  C  125  1  0.48798700  0.01028400  0.59421800  1
  C  126  1  0.49233000  0.98585400  0.60666500  1
  C  127  1  0.48112500  0.03238700  0.60956100  1
  C  128  1  0.47888500  0.03011100  0.63700900  1
  C  129  1  0.48420200  0.00592500  0.64949600  1
  C  130  1  0.49066300  0.98376300  0.63411400  1
  C  165  1  0.56161500  0.44149800  0.01167300  1
  C  166  1  0.54099900  0.42392900  0.01198500  1
  C  167  1  0.51757600  0.43823600  0.01294100  1
  C  169  1  0.55125900  0.46691200  0.01290200  1
  C  170  1  0.56636400  0.49040600  0.01256500  1
  C  171  1  0.55586700  0.51623800  0.01240300  1
  C  173  1  0.52738600  0.54964400  0.01125200  1
  C  174  1  0.55269900  0.56023100  0.01137400  1
  C  175  1  0.57027600  0.53961400  0.01222000  1
  C  176  1  0.50355400  0.56403300  0.01039300  1
  C  177  1  0.47796700  0.55281300  0.01029100  1
  C  179  1  0.44434400  0.52410800  0.01005600  1
  C  180  1  0.43386400  0.54947700  0.01017000  1
  C  181  1  0.45446800  0.56706400  0.01046400  1
  C  182  1  0.42930500  0.50061800  0.00982100  1
  C  183  1  0.43977500  0.47482100  0.01059600  1
  C  185  1  0.46817200  0.44146100  0.01209400  1
  C  186  1  0.44286000  0.43087900  0.01115000  1
  C  187  1  0.42531800  0.45148100  0.01039700  1
  C  188  1  0.49198800  0.42705300  0.01257100  1
  C  189  1  0.48994600  0.39931900  0.01054700  1
  C  190  1  0.48370100  0.38389400  0.03276600  1
  C  191  1  0.48133900  0.35647200  0.03039100  1
  C  192  1  0.48587800  0.34416300  0.00596400  1
  C  193  1  0.49180500  0.35963100  0.98371800  1
  C  194  1  0.49359900  0.38705500  0.98592300  1
  C  195  1  0.40154000  0.50289200  0.00897300  1
  C  196  1  0.38714800  0.50588400  0.03247200  1
  C  197  1  0.35956100  0.50542100  0.03193400  1
  C  198  1  0.34578000  0.50210400  0.00801800  1
  C  199  1  0.36044300  0.49899100  0.98458900  1
  C  200  1  0.38803400  0.49960600  0.98497800  1
  C  201  1  0.50533000  0.59186800  0.00955200  1
  C  202  1  0.50128200  0.60534800  0.98565000  1
  C  203  1  0.50023500  0.63293100  0.98525100  1
  C  204  1  0.50357400  0.64767900  0.00859700  1
  C  205  1  0.50759400  0.63395100  0.03243800  1
  C  206  1  0.50854700  0.60636200  0.03296900  1
  C  207  1  0.59409400  0.48793400  0.01040500  1
  C  208  1  0.60643500  0.49234300  0.98593300  1
  C  209  1  0.60953400  0.48101300  0.03242100  1
  C  210  1  0.63697300  0.47880400  0.03002200  1
  C  211  1  0.64935700  0.48416900  0.00579300  1
  C  212  1  0.63387400  0.49068300  0.98371600  1
  C  247  1  0.50930600  0.06540000  0.94689700  1
  C  248  1  0.50935700  0.04612200  0.92785000  1
  C  249  1  0.50893600  0.02169300  0.94039900  1
  C  251  1  0.50888700  0.05314200  0.97147400  1
  C  252  1  0.50864300  0.06642100  0.99602300  1
  C  253  1  0.50789900  0.05413700  0.02101100  1
  C  255  1  0.50686700  0.02331800  0.05221900  1
  C  256  1  0.50673900  0.04780500  0.06461800  1
  C  257  1  0.50745800  0.06684300  0.04534200  1
  C  258  1  0.50650300  0.99848000  0.06480700  1
  C  259  1  0.50654300  0.97377100  0.05178300  1
  C  261  1  0.50660200  0.94230300  0.02070100  1
  C  262  1  0.50685900  0.93004500  0.04527100  1
  C  263  1  0.50695900  0.94932400  0.06431000  1
  C  264  1  0.50663100  0.92899200  0.99616500  1
  C  265  1  0.50709100  0.94131500  0.97118300  1
  C  267  1  0.50821100  0.97215600  0.94000200  1
  C  268  1  0.50818500  0.94768300  0.92757700  1
  C  269  1  0.50754700  0.92863400  0.94683600  1
  C  270  1  0.50883800  0.99698400  0.92741000  1
  C  271  1  0.50925400  0.99704100  0.89955200  1
  C  272  1  0.53340500  0.99646700  0.88593200  1
  C  273  1  0.53373500  0.99686800  0.85832800  1
  C  274  1  0.51003100  0.99733600  0.84385900  1
  C  275  1  0.48593500  0.99833800  0.85769300  1
  C  276  1  0.48550100  0.99807700  0.88528800  1
  C  277  1  0.50675500  0.90111000  0.99652000  1
  C  278  1  0.53066700  0.88733900  0.99921800  1
  C  279  1  0.53093500  0.85975600  0.99831000  1
  C  280  1  0.50739600  0.84534700  0.99499300  1
  C  281  1  0.48356800  0.85936500  0.99198700  1
  C  282  1  0.48317900  0.88695800  0.99292000  1
  C  283  1  0.50658600  0.99833500  0.09268400  1
  C  284  1  0.48302500  0.99425500  0.10672700  1
  C  285  1  0.48340800  0.99270600  0.13428800  1
  C  286  1  0.50721500  0.99555300  0.14837000  1
  C  287  1  0.53074400  0.99934700  0.13407600  1
  C  288  1  0.53047900  0.00088500  0.10652300  1
  C  289  1  0.50922500  0.09427000  0.99561800  1
  C  290  1  0.48558600  0.10873200  0.99643400  1
  C  291  1  0.53348700  0.10768300  0.99500300  1
  C  292  1  0.53404700  0.13528000  0.99522100  1
  C  293  1  0.51046700  0.14994900  0.99556100  1
  C  294  1  0.48625000  0.13632400  0.99654200  1
  C  329  1  0.94682700  0.50919900  0.06668200  1
  C  330  1  0.92774600  0.50930000  0.04743600  1
  C  331  1  0.94025400  0.50895000  0.02298800  1
  C  333  1  0.97138600  0.50881000  0.05438500  1
  C  334  1  0.99596000  0.50854300  0.06762000  1
  C  335  1  0.02093400  0.50784000  0.05529900  1
  C  337  1  0.05210700  0.50689000  0.02443700  1
  C  338  1  0.06453900  0.50669000  0.04890500  1
  C  339  1  0.04528500  0.50736800  0.06796900  1
  C  340  1  0.06466200  0.50658200  0.99958300  1
  C  341  1  0.05159500  0.50676700  0.97489900  1
  C  343  1  0.02045900  0.50700100  0.94349800  1
  C  344  1  0.04500400  0.50725800  0.93119100  1
  C  345  1  0.06408000  0.50725400  0.95043000  1
  C  346  1  0.99589500  0.50709700  0.93024400  1
  C  347  1  0.97093000  0.50748200  0.94258800  1
  C  349  1  0.93978200  0.50841900  0.97345700  1
  C  350  1  0.92733200  0.50846600  0.94899800  1
  C  351  1  0.94657100  0.50795200  0.92992900  1
  C  352  1  0.92722400  0.50893400  0.99830200  1
  C  353  1  0.89936300  0.50934500  0.99837900  1
  C  354  1  0.88574200  0.53349100  0.99776200  1
  C  355  1  0.85813500  0.53381300  0.99796800  1
  C  356  1  0.84367100  0.51010300  0.99824700  1
  C  357  1  0.85750200  0.48601000  0.99928900  1
  C  358  1  0.88509900  0.48558600  0.99925400  1
  C  359  1  0.99621200  0.50722500  0.90237800  1
  C  360  1  0.99886000  0.53113700  0.88860100  1
  C  361  1  0.99801800  0.53136900  0.86101800  1
  C  362  1  0.99480500  0.50779400  0.84665500  1
  C  363  1  0.99181400  0.48397000  0.86067800  1
  C  364  1  0.99269000  0.48361700  0.88826500  1
  C  365  1  0.09254100  0.50659800  0.99937300  1
  C  366  1  0.10650700  0.48301300  0.99515800  1
  C  367  1  0.13405600  0.48334600  0.99339400  1
  C  368  1  0.14820800  0.50712000  0.99615700  1
  C  369  1  0.13398800  0.53067300  0.00009500  1
  C  370  1  0.10644500  0.53046100  0.00182800  1
  C  371  1  0.99559900  0.50909500  0.09547200  1
  C  372  1  0.99647900  0.48544600  0.10991700  1
  C  373  1  0.99500700  0.53334600  0.10890400  1
  C  374  1  0.99532700  0.53388800  0.13650000  1
  C  375  1  0.99574400  0.51029800  0.15115700  1
  C  376  1  0.99665800  0.48609100  0.13751100  1
  C  411  1  0.06178500  0.94466100  0.51662500  1
  C  412  1  0.04146800  0.92670700  0.51655600  1
  C  413  1  0.01803600  0.94032200  0.51212300  1
  C  415  1  0.05113800  0.96961300  0.51238500  1
  C  416  1  0.06587700  0.99317800  0.50989700  1
  C  417  1  0.05505100  0.01873300  0.50739600  1
  C  419  1  0.02626900  0.05185700  0.50625600  1
  C  420  1  0.05134500  0.06240700  0.50264200  1
  C  421  1  0.06913000  0.04199200  0.50357900  1
  C  422  1  0.00237100  0.06615700  0.50734200  1
  C  423  1  0.97711400  0.05443300  0.50964700  1
  C  425  1  0.94397100  0.02516500  0.51003100  1
  C  426  1  0.93326000  0.05023300  0.51328700  1
  C  427  1  0.95359800  0.06816400  0.51321800  1
  C  428  1  0.92927500  0.00152500  0.50805200  1
  C  429  1  0.94017700  0.97589700  0.50679600  1
  C  431  1  0.96898800  0.94277100  0.50751300  1
  C  432  1  0.94398900  0.93205400  0.50391000  1
  C  433  1  0.92618800  0.95246800  0.50372700  1
  C  434  1  0.99284800  0.92851800  0.50958100  1
  C  435  1  0.99142500  0.90057200  0.50851600  1
  C  436  1  0.98124200  0.88593000  0.52981600  1
  C  437  1  0.97918500  0.85840400  0.52817200  1
  C  438  1  0.98805500  0.84493600  0.50559000  1
  C  439  1  0.99812700  0.85961300  0.48428300  1
  C  440  1  0.99966700  0.88715100  0.48565100  1
  C  441  1  0.90144200  0.00340000  0.50775500  1
  C  442  1  0.88731400  0.00368500  0.53160500  1
  C  443  1  0.85973700  0.00248800  0.53138500  1
  C  444  1  0.84564900  0.00109100  0.50745200  1
  C  445  1  0.86002700  0.00083800  0.48364200  1
  C  446  1  0.88761400  0.00213800  0.48374200  1
  C  447  1  0.00384500  0.09406600  0.50562300  1
  C  448  1  0.99544700  0.10704300  0.48254400  1
  C  449  1  0.99679500  0.13456300  0.48069100  1
  C  450  1  0.00700800  0.14954800  0.50167500  1
  C  451  1  0.01596100  0.13661300  0.52451100  1
  C  452  1  0.01400500  0.10912500  0.52664900  1
  C  453  1  0.09368300  0.99122200  0.51015600  1
  C  454  1  0.10777900  0.98979200  0.48632100  1
  C  455  1  0.10751500  0.99281600  0.53413400  1
  C  456  1  0.13511900  0.99310300  0.53420000  1
  C  457  1  0.14945500  0.99155500  0.51044500  1
  C  458  1  0.13538600  0.99010000  0.48649700  1
  C  493  1  0.99632000  0.50480600  0.27658700  1
  C  495  1  0.97796100  0.47907400  0.24139400  1
  C  496  1  0.98668300  0.49794000  0.22277700  1
  C  498  1  0.00463500  0.52401600  0.25826700  1
  C  499  1  0.01919000  0.54613200  0.26479100  1
  C  500  1  0.96543300  0.45573900  0.23511000  1
  C  507  1  0.99942600  0.50668600  0.30407600  1
  C  508  1  0.98345700  0.49611600  0.19503600  1
  C  511  1  0.99342100  0.50524600  0.72077000  1
  C  513  1  0.01551700  0.48084800  0.75517000  1
  C  514  1  0.00148700  0.49493100  0.77472600  1
  C  516  1  0.97897800  0.51889700  0.74030800  1
  C  517  1  0.96015300  0.53787500  0.73544300  1
  C  518  1  0.03370400  0.46123900  0.76003900  1
  C  525  1  0.99135800  0.50903400  0.69306100  1
  C  526  1  0.00427800  0.49200900  0.80248600  1
  C  529  1  0.27491500  0.99536500  0.50436300  1
  C  531  1  0.24005400  0.97640600  0.47858600  1
  C  532  1  0.22131700  0.98451600  0.49760800  1
  C  534  1  0.25644400  0.00325100  0.52361300  1
  C  535  1  0.26269500  0.01788900  0.54578200  1
  C  536  1  0.23391900  0.96394400  0.45519100  1
  C  543  1  0.30235900  0.99885900  0.50635600  1
  C  544  1  0.19368900  0.98032600  0.49601200  1
  C  547  1  0.71975000  0.99393200  0.50474100  1
  C  549  1  0.75312200  0.01717100  0.47996400  1
  C  550  1  0.77332500  0.00438100  0.49434000  1
  C  552  1  0.73992700  0.98049700  0.51849400  1
  C  553  1  0.73588100  0.96184100  0.53782800  1
  C  554  1  0.75716800  0.03507200  0.45989500  1
  C  561  1  0.69215100  0.99102400  0.50887100  1
  C  562  1  0.80094500  0.00879000  0.49166500  1
  C  565  1  0.50477200  0.27534400  0.99542800  1
  C  567  1  0.47924300  0.24001800  0.97706600  1
  C  568  1  0.49808500  0.22148600  0.98601300  1
  C  570  1  0.52396100  0.25711200  0.00397700  1
  C  571  1  0.54593400  0.26376000  0.01869500  1
  C  572  1  0.45599200  0.23363200  0.96444300  1
  C  579  1  0.50652500  0.30283000  0.99851900  1
  C  580  1  0.49631500  0.19372800  0.98295000  1
  C  583  1  0.50597700  0.71942600  0.99299900  1
  C  585  1  0.48119800  0.75348000  0.01520800  1
  C  586  1  0.49485900  0.77324200  0.00103200  1
  C  588  1  0.51909500  0.73915300  0.97832000  1
  C  589  1  0.53812300  0.73455900  0.95949100  1
  C  590  1  0.46170500  0.75810700  0.03358700  1
  C  597  1  0.51025500  0.69178000  0.99096900  1
  C  598  1  0.49165600  0.80098000  0.00391000  1
  C  601  1  0.50346500  0.99606200  0.71843700  1
  C  603  1  0.47803400  0.97830400  0.75417100  1
  C  604  1  0.49708500  0.98731200  0.77247400  1
  C  606  1  0.52282700  0.00467800  0.73646100  1
  C  607  1  0.54487300  0.01917900  0.72952400  1
  C  608  1  0.45476400  0.96590300  0.76087200  1
  C  615  1  0.50505700  0.99883900  0.69088000  1
  C  616  1  0.49554600  0.98447300  0.80027500  1
  C  619  1  0.50552900  0.99274700  0.27424500  1
  C  621  1  0.48067500  0.01487800  0.24020300  1
  C  622  1  0.49465200  0.00103200  0.22043900  1
  C  624  1  0.51903800  0.97843200  0.25451400  1
  C  625  1  0.53818900  0.95972300  0.25914000  1
  C  626  1  0.46095200  0.03302300  0.23563800  1
  C  633  1  0.50963000  0.99070800  0.30190500  1
  C  634  1  0.49150800  0.00407800  0.19272800  1
  C  637  1  0.99708800  0.27355700  0.49043900  1
  C  639  1  0.97504200  0.23810400  0.51275800  1
  C  640  1  0.98970000  0.21967200  0.49788300  1
  C  642  1  0.01129200  0.25512300  0.47512600  1
  C  643  1  0.03021000  0.26197300  0.45672500  1
  C  644  1  0.95743800  0.23123700  0.53243000  1
  C  651  1  0.99905900  0.30115000  0.48797300  1
  C  652  1  0.98718800  0.19208600  0.49982200  1
  C  655  1  0.99614700  0.72073700  0.48675100  1
  C  657  1  0.02222000  0.75542300  0.50647000  1
  C  658  1  0.00400400  0.77447800  0.49750900  1
  C  660  1  0.97803900  0.74006800  0.47788700  1
  C  661  1  0.95535300  0.73476700  0.46391900  1
  C  662  1  0.04393500  0.76110400  0.52196800  1
  C  669  1  0.99407600  0.69298600  0.48261700  1
  C  670  1  0.00699300  0.80201000  0.50039000  1
  C  673  1  0.27407400  0.50536400  0.99270600  1
  C  675  1  0.24012200  0.48039200  0.01483300  1
  C  676  1  0.22030500  0.49440700  0.00110000  1
  C  678  1  0.25429400  0.51888100  0.97847100  1
  C  679  1  0.25887300  0.53815600  0.95984300  1
  C  680  1  0.23563200  0.46060800  0.03293000  1
  C  687  1  0.30172200  0.50952600  0.99063300  1
  C  688  1  0.19260400  0.49127000  0.00427500  1
  C  691  1  0.71827800  0.50353200  0.99589100  1
  C  693  1  0.75415400  0.47816000  0.97833600  1
  C  694  1  0.77237900  0.49720500  0.98751100  1
  C  696  1  0.73622500  0.52291500  0.00462800  1
  C  697  1  0.72919000  0.54490000  0.01913700  1
  C  698  1  0.76096300  0.45491000  0.96595400  1
  C  705  1  0.69070500  0.50507300  0.99853200  1
  C  706  1  0.80020600  0.49566800  0.98491900  1
  C  709  1  0.16905700  0.71747600  0.60112500  1
  C  710  1  0.16945700  0.69698700  0.58336900  1
  C  711  1  0.16862100  0.67337500  0.59740300  1
  C  713  1  0.16818300  0.70684200  0.62641500  1
  C  714  1  0.16744700  0.72175400  0.65002100  1
  C  715  1  0.16701500  0.71085600  0.67567800  1
  C  717  1  0.16663000  0.68181900  0.70861800  1
  C  718  1  0.16647900  0.70697300  0.71959900  1
  C  719  1  0.16674800  0.72489600  0.69926800  1
  C  720  1  0.16621400  0.65776100  0.72264600  1
  C  721  1  0.16604000  0.63226500  0.71121800  1
  C  723  1  0.16585000  0.59881800  0.68223600  1
  C  724  1  0.16437400  0.58823900  0.70753100  1
  C  725  1  0.16474600  0.60869100  0.72527600  1
  C  726  1  0.16581000  0.58387400  0.65863400  1
  C  727  1  0.16675600  0.59477400  0.63299800  1
  C  729  1  0.16787800  0.62380000  0.60004600  1
  C  730  1  0.16711900  0.59862000  0.58911300  1
  C  731  1  0.16667600  0.58071200  0.60943500  1
  C  732  1  0.16832100  0.64786300  0.58597100  1
  C  733  1  0.16694900  0.64622100  0.55815200  1
  C  734  1  0.18931200  0.63947700  0.54313900  1
  C  735  1  0.18752200  0.63758800  0.51563300  1
  C  736  1  0.16359200  0.64319400  0.50278900  1
  C  737  1  0.14120100  0.64965000  0.51784100  1
  C  738  1  0.14279500  0.65096000  0.54533600  1
  C  739  1  0.16362000  0.55605900  0.66074200  1
  C  740  1  0.18538300  0.54065500  0.66853700  1
  C  741  1  0.18292600  0.51323100  0.67095800  1
  C  742  1  0.15890400  0.50077300  0.66492200  1
  C  743  1  0.13716900  0.51609800  0.65710100  1
  C  744  1  0.13942100  0.54356000  0.65529100  1
  C  745  1  0.16569400  0.65926000  0.75047100  1
  C  746  1  0.14173900  0.65642900  0.76414800  1
  C  747  1  0.14158200  0.65543100  0.79172900  1
  C  748  1  0.16522000  0.65770800  0.80620500  1
  C  749  1  0.18910800  0.66047700  0.79226900  1
  C  750  1  0.18940300  0.66134300  0.76468600  1
  C  751  1  0.16729700  0.74965400  0.64802800  1
  C  752  1  0.14348800  0.76374700  0.65012300  1
  C  753  1  0.19114600  0.76366600  0.64601600  1
  C  754  1  0.19113400  0.79129900  0.64630100  1
  C  755  1  0.16739000  0.80563900  0.64828200  1
  C  756  1  0.14358500  0.79138900  0.65035100  1
  C  791  1  0.59870600  0.16885900  0.71902500  1
  C  792  1  0.58109400  0.16919700  0.69845100  1
  C  793  1  0.59534800  0.17009500  0.67499400  1
  C  795  1  0.62410600  0.16995700  0.70861600  1
  C  796  1  0.64763100  0.16950100  0.72367600  1
  C  797  1  0.67345200  0.16914100  0.71314500  1
  C  799  1  0.70683000  0.16764700  0.68463700  1
  C  800  1  0.71744100  0.16782300  0.70993700  1
  C  801  1  0.69684600  0.16888300  0.72752700  1
  C  802  1  0.72119600  0.16664900  0.66079500  1
  C  803  1  0.70990500  0.16664700  0.63523600  1
  C  805  1  0.68112100  0.16670300  0.60167500  1
  C  806  1  0.70646800  0.16676900  0.59114300  1
  C  807  1  0.72410200  0.16687200  0.61170500  1
  C  808  1  0.65759800  0.16666400  0.58668400  1
  C  809  1  0.63181500  0.16755900  0.59718100  1
  C  811  1  0.59847800  0.16922600  0.62560700  1
  C  812  1  0.58787500  0.16832000  0.60030600  1
  C  813  1  0.60846100  0.16747200  0.58274600  1
  C  814  1  0.58408600  0.16975300  0.64943700  1
  C  815  1  0.55632300  0.16786300  0.64743700  1
  C  816  1  0.54098400  0.19010000  0.64102900  1
  C  817  1  0.51355400  0.18781900  0.63859800  1
  C  818  1  0.50111300  0.16348000  0.64327100  1
  C  819  1  0.51649500  0.14122100  0.64938400  1
  C  820  1  0.54393100  0.14332100  0.65122000  1
  C  821  1  0.65983000  0.16592700  0.55891200  1
  C  822  1  0.66279400  0.18947600  0.54459300  1
  C  823  1  0.66234000  0.18902500  0.51700400  1
  C  824  1  0.65910100  0.16513800  0.50315900  1
  C  825  1  0.65605000  0.14165100  0.51773900  1
  C  826  1  0.65656800  0.14197100  0.54533200  1
  C  827  1  0.74905400  0.16590400  0.66250900  1
  C  828  1  0.76267800  0.14210500  0.65831300  1
  C  829  1  0.79026100  0.14191400  0.65696300  1
  C  830  1  0.80487900  0.16536000  0.66017600  1
  C  831  1  0.79099600  0.18907500  0.66444200  1
  C  832  1  0.76341700  0.18940700  0.66567200  1
  C  833  1  0.64518900  0.16748600  0.75142000  1
  C  834  1  0.64953200  0.14305600  0.76386700  1
  C  835  1  0.63832700  0.18958900  0.76676300  1
  C  836  1  0.63608700  0.18731300  0.79421100  1
  C  837  1  0.64140400  0.16312700  0.80669800  1
  C  838  1  0.64786500  0.14096500  0.79131600  1
  C  873  1  0.71881700  0.59870000  0.16887500  1
  C  874  1  0.69820100  0.58113100  0.16918700  1
  C  875  1  0.67477800  0.59543800  0.17014300  1
  C  877  1  0.70846100  0.62411400  0.17010400  1
  C  878  1  0.72356600  0.64760800  0.16976700  1
  C  879  1  0.71306900  0.67344000  0.16960500  1
  C  881  1  0.68458800  0.70684600  0.16845400  1
  C  882  1  0.70990100  0.71743300  0.16857600  1
  C  883  1  0.72747800  0.69681600  0.16942200  1
  C  884  1  0.66075600  0.72123500  0.16759500  1
  C  885  1  0.63516900  0.71001500  0.16749300  1
  C  887  1  0.60154600  0.68131000  0.16725800  1
  C  888  1  0.59106600  0.70667900  0.16737200  1
  C  889  1  0.61167000  0.72426600  0.16766600  1
  C  890  1  0.58650700  0.65782000  0.16702300  1
  C  891  1  0.59697700  0.63202300  0.16779800  1
  C  893  1  0.62537400  0.59866300  0.16929600  1
  C  894  1  0.60006200  0.58808100  0.16835200  1
  C  895  1  0.58252000  0.60868300  0.16759900  1
  C  896  1  0.64919000  0.58425500  0.16977300  1
  C  897  1  0.64714800  0.55652100  0.16774900  1
  C  898  1  0.64090300  0.54109600  0.18996800  1
  C  899  1  0.63854100  0.51367400  0.18759300  1
  C  900  1  0.64308000  0.50136500  0.16316600  1
  C  901  1  0.64900700  0.51683300  0.14092000  1
  C  902  1  0.65080100  0.54425700  0.14312500  1
  C  903  1  0.55874200  0.66009400  0.16617500  1
  C  904  1  0.54435000  0.66308600  0.18967400  1
  C  905  1  0.51676300  0.66262300  0.18913600  1
  C  906  1  0.50298200  0.65930600  0.16522000  1
  C  907  1  0.51764500  0.65619300  0.14179100  1
  C  908  1  0.54523600  0.65680800  0.14218000  1
  C  909  1  0.66253200  0.74907000  0.16675400  1
  C  910  1  0.65848400  0.76255000  0.14285200  1
  C  911  1  0.65743700  0.79013300  0.14245300  1
  C  912  1  0.66077600  0.80488100  0.16579900  1
  C  913  1  0.66479600  0.79115300  0.18964000  1
  C  914  1  0.66574900  0.76356400  0.19017100  1
  C  915  1  0.75129600  0.64513600  0.16760700  1
  C  916  1  0.76363700  0.64954500  0.14313500  1
  C  917  1  0.76673600  0.63821500  0.18962300  1
  C  918  1  0.79417500  0.63600600  0.18722400  1
  C  919  1  0.80655900  0.64137100  0.16299500  1
  C  920  1  0.79107600  0.64788500  0.14091800  1
  C  955  1  0.66650800  0.22260200  0.10409900  1
  C  956  1  0.66655900  0.20332400  0.08505210  1
  C  957  1  0.66613800  0.17889500  0.09760110  1
  C  959  1  0.66608900  0.21034400  0.12867600  1
  C  960  1  0.66584500  0.22362300  0.15322500  1
  C  961  1  0.66510100  0.21133900  0.17821300  1
  C  963  1  0.66406900  0.18052000  0.20942100  1
  C  964  1  0.66394100  0.20500700  0.22182000  1
  C  965  1  0.66466000  0.22404500  0.20254400  1
  C  966  1  0.66370500  0.15568200  0.22200900  1
  C  967  1  0.66374500  0.13097300  0.20898500  1
  C  969  1  0.66380400  0.09950510  0.17790300  1
  C  970  1  0.66406100  0.08724710  0.20247300  1
  C  971  1  0.66416100  0.10652600  0.22151200  1
  C  972  1  0.66383300  0.08619410  0.15336700  1
  C  973  1  0.66429300  0.09851710  0.12838500  1
  C  975  1  0.66541300  0.12935800  0.09720410  1
  C  976  1  0.66538700  0.10488500  0.08477910  1
  C  977  1  0.66474900  0.08583610  0.10403800  1
  C  978  1  0.66604000  0.15418600  0.08461210  1
  C  979  1  0.66645600  0.15424300  0.05675410  1
  C  980  1  0.69060700  0.15366900  0.04313410  1
  C  981  1  0.69093700  0.15407000  0.01553010  1
  C  982  1  0.66723300  0.15453800  0.00106112  1
  C  983  1  0.64313700  0.15554000  0.01489510  1
  C  984  1  0.64270300  0.15527900  0.04249010  1
  C  985  1  0.66395700  0.05831210  0.15372200  1
  C  986  1  0.68786900  0.04454110  0.15642000  1
  C  987  1  0.68813700  0.01695810  0.15551200  1
  C  988  1  0.66459800  0.00254912  0.15219500  1
  C  989  1  0.64077000  0.01656710  0.14918900  1
  C  990  1  0.64038100  0.04416010  0.15012200  1
  C  991  1  0.66378800  0.15553700  0.24988600  1
  C  992  1  0.64022700  0.15145700  0.26392900  1
  C  993  1  0.64061000  0.14990800  0.29149000  1
  C  994  1  0.66441700  0.15275500  0.30557200  1
  C  995  1  0.68794600  0.15654900  0.29127800  1
  C  996  1  0.68768100  0.15808700  0.26372500  1
  C  997  1  0.66642700  0.25147200  0.15282000  1
  C  998  1  0.64278800  0.26593400  0.15363600  1
  C  999  1  0.69068900  0.26488500  0.15220500  1
  C  1000  1  0.69124900  0.29248200  0.15242300  1
  C  1001  1  0.66766900  0.30715100  0.15276300  1
  C  1002  1  0.64345200  0.29352600  0.15374400  1
  C  1037  1  0.10402900  0.66640100  0.22388400  1
  C  1038  1  0.08494810  0.66650200  0.20463800  1
  C  1039  1  0.09745610  0.66615200  0.18019000  1
  C  1041  1  0.12858800  0.66601200  0.21158700  1
  C  1042  1  0.15316200  0.66574500  0.22482200  1
  C  1043  1  0.17813600  0.66504200  0.21250100  1
  C  1045  1  0.20930900  0.66409200  0.18163900  1
  C  1046  1  0.22174100  0.66389200  0.20610700  1
  C  1047  1  0.20248700  0.66457000  0.22517100  1
  C  1048  1  0.22186400  0.66378400  0.15678500  1
  C  1049  1  0.20879700  0.66396900  0.13210100  1
  C  1051  1  0.17766100  0.66420300  0.10070000  1
  C  1052  1  0.20220600  0.66446000  0.08839310  1
  C  1053  1  0.22128200  0.66445600  0.10763200  1
  C  1054  1  0.15309700  0.66429900  0.08744610  1
  C  1055  1  0.12813200  0.66468400  0.09979010  1
  C  1057  1  0.09698410  0.66562100  0.13065900  1
  C  1058  1  0.08453410  0.66566800  0.10620000  1
  C  1059  1  0.10377300  0.66515400  0.08713110  1
  C  1060  1  0.08442610  0.66613600  0.15550400  1
  C  1061  1  0.05656510  0.66654700  0.15558100  1
  C  1062  1  0.04294410  0.69069300  0.15496400  1
  C  1063  1  0.01533710  0.69101500  0.15517000  1
  C  1064  1  0.00087312  0.66730500  0.15544900  1
  C  1065  1  0.01470410  0.64321200  0.15649100  1
  C  1066  1  0.04230110  0.64278800  0.15645600  1
  C  1067  1  0.15341400  0.66442700  0.05958010  1
  C  1068  1  0.15606200  0.68833900  0.04580310  1
  C  1069  1  0.15522000  0.68857100  0.01822010  1
  C  1070  1  0.15200700  0.66499600  0.00385712  1
  C  1071  1  0.14901600  0.64117200  0.01788010  1
  C  1072  1  0.14989200  0.64081900  0.04546710  1
  C  1073  1  0.24974300  0.66380000  0.15657500  1
  C  1074  1  0.26370900  0.64021500  0.15236000  1
  C  1075  1  0.29125800  0.64054800  0.15059600  1
  C  1076  1  0.30541000  0.66432200  0.15335900  1
  C  1077  1  0.29119000  0.68787500  0.15729700  1
  C  1078  1  0.26364700  0.68766300  0.15903000  1
  C  1079  1  0.15280100  0.66629700  0.25267400  1
  C  1080  1  0.15368100  0.64264800  0.26711900  1
  C  1081  1  0.15220900  0.69054800  0.26610600  1
  C  1082  1  0.15252900  0.69109000  0.29370200  1
  C  1083  1  0.15294600  0.66750000  0.30835900  1
  C  1084  1  0.15386000  0.64329300  0.29471300  1
  C  1119  1  0.21898700  0.10186300  0.67382700  1
  C  1120  1  0.19867000  0.08390910  0.67375800  1
  C  1121  1  0.17523800  0.09752410  0.66932500  1
  C  1123  1  0.20834000  0.12681500  0.66958700  1
  C  1124  1  0.22307900  0.15038000  0.66709900  1
  C  1125  1  0.21225300  0.17593500  0.66459800  1
  C  1127  1  0.18347100  0.20905900  0.66345800  1
  C  1128  1  0.20854700  0.21960900  0.65984400  1
  C  1129  1  0.22633200  0.19919400  0.66078100  1
  C  1130  1  0.15957300  0.22335900  0.66454400  1
  C  1131  1  0.13431600  0.21163500  0.66684900  1
  C  1133  1  0.10117300  0.18236700  0.66723300  1
  C  1134  1  0.09046210  0.20743500  0.67048900  1
  C  1135  1  0.11080000  0.22536600  0.67042000  1
  C  1136  1  0.08647710  0.15872700  0.66525400  1
  C  1137  1  0.09737910  0.13309900  0.66399800  1
  C  1139  1  0.12619000  0.09997310  0.66471500  1
  C  1140  1  0.10119100  0.08925610  0.66111200  1
  C  1141  1  0.08339010  0.10967000  0.66092900  1
  C  1142  1  0.15005000  0.08572010  0.66678300  1
  C  1143  1  0.14862700  0.05777410  0.66571800  1
  C  1144  1  0.13844400  0.04313210  0.68701800  1
  C  1145  1  0.13638700  0.01560610  0.68537400  1
  C  1146  1  0.14525700  0.00213812  0.66279200  1
  C  1147  1  0.15532900  0.01681510  0.64148500  1
  C  1148  1  0.15686900  0.04435310  0.64285300  1
  C  1149  1  0.05864410  0.16060200  0.66495700  1
  C  1150  1  0.04451610  0.16088700  0.68880700  1
  C  1151  1  0.01693910  0.15969000  0.68858700  1
  C  1152  1  0.00285112  0.15829300  0.66465400  1
  C  1153  1  0.01722910  0.15804000  0.64084400  1
  C  1154  1  0.04481610  0.15934000  0.64094400  1
  C  1155  1  0.16104700  0.25126800  0.66282500  1
  C  1156  1  0.15264900  0.26424500  0.63974600  1
  C  1157  1  0.15399700  0.29176500  0.63789300  1
  C  1158  1  0.16421000  0.30675000  0.65887700  1
  C  1159  1  0.17316300  0.29381500  0.68171300  1
  C  1160  1  0.17120700  0.26632700  0.68385100  1
  C  1161  1  0.25088500  0.14842400  0.66735800  1
  C  1162  1  0.26498100  0.14699400  0.64352300  1
  C  1163  1  0.26471700  0.15001800  0.69133600  1
  C  1164  1  0.29232100  0.15030500  0.69140200  1
  C  1165  1  0.30665700  0.14875700  0.66764700  1
  C  1166  1  0.29258800  0.14730200  0.64369900  1
  C  1201  1  0.15352200  0.66200800  0.43378900  1
  C  1203  1  0.13516300  0.63627600  0.39859600  1
  C  1204  1  0.14388500  0.65514200  0.37997900  1
  C  1206  1  0.16183700  0.68121800  0.41546900  1
  C  1207  1  0.17639200  0.70333400  0.42199300  1
  C  1208  1  0.12263500  0.61294100  0.39231200  1
  C  1215  1  0.15662800  0.66388800  0.46127800  1
  C  1216  1  0.14065900  0.65331800  0.35223800  1
  C  1219  1  0.15062300  0.66244800  0.87797200  1
  C  1221  1  0.17271900  0.63805000  0.91237200  1
  C  1222  1  0.15868900  0.65213300  0.93192800  1
  C  1224  1  0.13618000  0.67609900  0.89751000  1
  C  1225  1  0.11735500  0.69507700  0.89264500  1
  C  1226  1  0.19090600  0.61844100  0.91724100  1
  C  1233  1  0.14856000  0.66623600  0.85026300  1
  C  1234  1  0.16148000  0.64921100  0.95968800  1
  C  1237  1  0.43211700  0.15256700  0.66156500  1
  C  1239  1  0.39725600  0.13360800  0.63578800  1
  C  1240  1  0.37851900  0.14171800  0.65481000  1
  C  1242  1  0.41364600  0.16045300  0.68081500  1
  C  1243  1  0.41989700  0.17509100  0.70298400  1
  C  1244  1  0.39112100  0.12114600  0.61239300  1
  C  1251  1  0.45956100  0.15606100  0.66355800  1
  C  1252  1  0.35089100  0.13752800  0.65321400  1
  C  1255  1  0.87695200  0.15113400  0.66194300  1
  C  1257  1  0.91032400  0.17437300  0.63716600  1
  C  1258  1  0.93052700  0.16158300  0.65154200  1
  C  1260  1  0.89712900  0.13769900  0.67569600  1
  C  1261  1  0.89308300  0.11904300  0.69503000  1
  C  1262  1  0.91437000  0.19227400  0.61709700  1
  C  1269  1  0.84935300  0.14822600  0.66607300  1
  C  1270  1  0.95814700  0.16599200  0.64886700  1
  C  1273  1  0.66197400  0.43254600  0.15263000  1
  C  1275  1  0.63644500  0.39722000  0.13426800  1
  C  1276  1  0.65528700  0.37868800  0.14321500  1
  C  1278  1  0.68116300  0.41431400  0.16117900  1
  C  1279  1  0.70313600  0.42096200  0.17589700  1
  C  1280  1  0.61319400  0.39083400  0.12164500  1
  C  1287  1  0.66372700  0.46003200  0.15572100  1
  C  1288  1  0.65351700  0.35093000  0.14015200  1
  C  1291  1  0.66317900  0.87662800  0.15020100  1
  C  1293  1  0.63840000  0.91068200  0.17241000  1
  C  1294  1  0.65206100  0.93044400  0.15823400  1
  C  1296  1  0.67629700  0.89635500  0.13552200  1
  C  1297  1  0.69532500  0.89176100  0.11669300  1
  C  1298  1  0.61890700  0.91530900  0.19078900  1
  C  1305  1  0.66745700  0.84898200  0.14817100  1
  C  1306  1  0.64885800  0.95818200  0.16111200  1
  C  1309  1  0.66066700  0.15326400  0.87563900  1
  C  1311  1  0.63523600  0.13550600  0.91137300  1
  C  1312  1  0.65428700  0.14451400  0.92967600  1
  C  1314  1  0.68002900  0.16188000  0.89366300  1
  C  1315  1  0.70207500  0.17638100  0.88672600  1
  C  1316  1  0.61196600  0.12310500  0.91807400  1
  C  1323  1  0.66225900  0.15604100  0.84808200  1
  C  1324  1  0.65274800  0.14167500  0.95747700  1
  C  1327  1  0.66273100  0.14994900  0.43144700  1
  C  1329  1  0.63787700  0.17208000  0.39740500  1
  C  1330  1  0.65185400  0.15823400  0.37764100  1
  C  1332  1  0.67624000  0.13563400  0.41171600  1
  C  1333  1  0.69539100  0.11692500  0.41634200  1
  C  1334  1  0.61815400  0.19022500  0.39284000  1
  C  1341  1  0.66683200  0.14791000  0.45910700  1
  C  1342  1  0.64871000  0.16128000  0.34993000  1
  C  1345  1  0.15429000  0.43075900  0.64764100  1
  C  1347  1  0.13224400  0.39530600  0.66996000  1
  C  1348  1  0.14690200  0.37687400  0.65508500  1
  C  1350  1  0.16849400  0.41232500  0.63232800  1
  C  1351  1  0.18741200  0.41917500  0.61392700  1
  C  1352  1  0.11464000  0.38843900  0.68963200  1
  C  1359  1  0.15626100  0.45835200  0.64517500  1
  C  1360  1  0.14439000  0.34928800  0.65702400  1
  C  1363  1  0.15334900  0.87793900  0.64395300  1
  C  1365  1  0.17942200  0.91262500  0.66367200  1
  C  1366  1  0.16120600  0.93168000  0.65471100  1
  C  1368  1  0.13524100  0.89727000  0.63508900  1
  C  1369  1  0.11255500  0.89196900  0.62112100  1
  C  1370  1  0.20113700  0.91830600  0.67917000  1
  C  1377  1  0.15127800  0.85018800  0.63981900  1
  C  1378  1  0.16419500  0.95921200  0.65759200  1
  C  1381  1  0.43127600  0.66256600  0.14990800  1
  C  1383  1  0.39732400  0.63759400  0.17203500  1
  C  1384  1  0.37750700  0.65160900  0.15830200  1
  C  1386  1  0.41149600  0.67608300  0.13567300  1
  C  1387  1  0.41607500  0.69535800  0.11704500  1
  C  1388  1  0.39283400  0.61781000  0.19013200  1
  C  1395  1  0.45892400  0.66666667  0.14783500  1
  C  1396  1  0.34980600  0.64847200  0.16147700  1
  C  1399  1  0.87548000  0.66073400  0.15309300  1
  C  1401  1  0.91135600  0.63536200  0.13553800  1
  C  1402  1  0.92958100  0.65440700  0.14471300  1
  C  1404  1  0.89342700  0.68011700  0.16183000  1
  C  1405  1  0.88639200  0.70210200  0.17633900  1
  C  1406  1  0.91816500  0.61211200  0.12315600  1
  C  1413  1  0.84790700  0.66227500  0.15573400  1
  C  1414  1  0.95740800  0.65287000  0.14212100  1
  N  4  1  0.01087700  0.52320400  0.46585700  1
  N  8  1  0.00974200  0.52796700  0.52511600  1
  N  14  1  0.00968700  0.46802400  0.52837800  1
  N  20  1  0.01046100  0.46324700  0.46914600  1
  N  75  1  0.99940500  0.31704500  0.50944500  1
  N  77  1  0.00479700  0.48515700  0.31896300  1
  N  79  1  0.01117300  0.67532100  0.49343400  1
  N  81  1  0.00864800  0.49797900  0.67578500  1
  N  86  1  0.46375800  0.01382700  0.52500600  1
  N  90  1  0.52327300  0.01130600  0.53037800  1
  N  96  1  0.52707100  0.00936200  0.47089500  1
  N  102  1  0.46762300  0.01152700  0.46552300  1
  N  157  1  0.49943700  0.00853900  0.31916400  1
  N  159  1  0.31733800  0.00416500  0.48487400  1
  N  161  1  0.48337500  0.00394700  0.67610500  1
  N  163  1  0.67443100  0.00900300  0.49976900  1
  N  168  1  0.52484300  0.46382300  0.01397300  1
  N  172  1  0.53030600  0.52328700  0.01193900  1
  N  178  1  0.47077500  0.52720300  0.01008300  1
  N  184  1  0.46531100  0.46780800  0.01173100  1
  N  239  1  0.31899100  0.49953700  0.00857000  1
  N  241  1  0.48490600  0.31760700  0.00381900  1
  N  243  1  0.67596500  0.48338900  0.00372600  1
  N  245  1  0.50076700  0.67447200  0.00914400  1
  N  250  1  0.50868700  0.02701700  0.96646100  1
  N  254  1  0.50752100  0.02813500  0.02615800  1
  N  260  1  0.50630300  0.96843600  0.02571700  1
  N  266  1  0.50754900  0.96732000  0.96606000  1
  N  321  1  0.50862400  0.81855200  0.99278300  1
  N  323  1  0.51099000  0.99858300  0.81704800  1
  N  325  1  0.51167900  0.17673900  0.99688200  1
  N  327  1  0.50837800  0.99289100  0.17511000  1
  N  332  1  0.96632800  0.50867500  0.02826800  1
  N  336  1  0.02605100  0.50753500  0.02929100  1
  N  342  1  0.02551900  0.50661900  0.96961900  1
  N  348  1  0.96583600  0.50782400  0.96859700  1
  N  403  1  0.99278700  0.50892400  0.81986200  1
  N  405  1  0.81685000  0.51105600  0.99924400  1
  N  407  1  0.99722800  0.51151400  0.17794400  1
  N  409  1  0.17493400  0.50823900  0.99332300  1
  N  414  1  0.02486700  0.96599500  0.51021500  1
  N  418  1  0.02950200  0.02565800  0.50902300  1
  N  424  1  0.97028500  0.02872600  0.50826800  1
  N  430  1  0.96569700  0.96906300  0.50915400  1
  N  485  1  0.81893500  0.99762500  0.50816800  1
  N  487  1  0.98603500  0.81823700  0.50399600  1
  N  489  1  0.17623400  0.99393400  0.51114500  1
  N  491  1  0.00862800  0.17614000  0.49966700  1
  N  494  1  0.98344500  0.48343600  0.26713800  1
  N  497  1  0.99958100  0.51922900  0.23253000  1
  N  512  1  0.01065800  0.48684700  0.72964200  1
  N  515  1  0.98389900  0.51297200  0.76582400  1
  N  530  1  0.26568700  0.98241900  0.48293500  1
  N  533  1  0.23081600  0.99757300  0.51891400  1
  N  548  1  0.72782800  0.01125500  0.48605900  1
  N  551  1  0.76519900  0.98662000  0.51258900  1
  N  566  1  0.48350500  0.26579500  0.98246000  1
  N  569  1  0.51926200  0.23134100  0.99901900  1
  N  584  1  0.48758600  0.72802700  0.01038400  1
  N  587  1  0.51285600  0.76458800  0.98327800  1
  N  602  1  0.48217400  0.98336800  0.72830200  1
  N  605  1  0.51828400  0.00005400  0.76232600  1
  N  620  1  0.48695900  0.00993100  0.26563800  1
  N  623  1  0.51286400  0.98348200  0.22907500  1
  N  638  1  0.97981000  0.26402100  0.50842500  1
  N  641  1  0.00702200  0.22920500  0.47994000  1
  N  656  1  0.01703500  0.72987400  0.50073000  1
  N  659  1  0.98291000  0.76567500  0.48373100  1
  N  674  1  0.26553600  0.48672500  0.00984300  1
  N  677  1  0.22887100  0.51268100  0.98357700  1
  N  692  1  0.72824700  0.48226900  0.98323300  1
  N  695  1  0.76212400  0.51838200  0.00019600  1
  N  712  1  0.16807900  0.68040600  0.62305900  1
  N  716  1  0.16694400  0.68516900  0.68231800  1
  N  722  1  0.16688900  0.62522600  0.68558000  1
  N  728  1  0.16766300  0.62044900  0.62634800  1
  N  783  1  0.15660700  0.47424700  0.66666667  1
  N  785  1  0.16199900  0.64235900  0.47616500  1
  N  787  1  0.16837500  0.83252300  0.65063600  1
  N  789  1  0.16585000  0.65518100  0.83298700  1
  N  794  1  0.62096000  0.17102900  0.68220800  1
  N  798  1  0.68047500  0.16850800  0.68758000  1
  N  804  1  0.68427300  0.16656400  0.62809700  1
  N  810  1  0.62482500  0.16872900  0.62272500  1
  N  865  1  0.65663900  0.16574100  0.47636600  1
  N  867  1  0.47454000  0.16136700  0.64207600  1
  N  869  1  0.64057700  0.16114900  0.83330700  1
  N  871  1  0.83163300  0.16620500  0.65697100  1
  N  876  1  0.68204500  0.62102500  0.17117500  1
  N  880  1  0.68750800  0.68048900  0.16914100  1
  N  886  1  0.62797700  0.68440500  0.16728500  1
  N  892  1  0.62251300  0.62501000  0.16893300  1
  N  947  1  0.47619300  0.65673900  0.16577200  1
  N  949  1  0.64210800  0.47480900  0.16102100  1
  N  951  1  0.83316700  0.64059100  0.16092800  1
  N  953  1  0.65796900  0.83167400  0.16634600  1
  N  958  1  0.66588900  0.18421900  0.12366300  1
  N  962  1  0.66472300  0.18533700  0.18336000  1
  N  968  1  0.66350500  0.12563800  0.18291900  1
  N  974  1  0.66475100  0.12452200  0.12326200  1
  N  1029  1  0.66582600  0.97575400  0.14998500  1
  N  1031  1  0.66819200  0.15578500  0.97425000  1
  N  1033  1  0.66888100  0.33394100  0.15408400  1
  N  1035  1  0.66558000  0.15009300  0.33231200  1
  N  1040  1  0.12353000  0.66587700  0.18547000  1
  N  1044  1  0.18325300  0.66473700  0.18649300  1
  N  1050  1  0.18272100  0.66382100  0.12682100  1
  N  1056  1  0.12303800  0.66502600  0.12579900  1
  N  1111  1  0.14998900  0.66612600  0.97706400  1
  N  1113  1  0.97405200  0.66825800  0.15644600  1
  N  1115  1  0.15443000  0.66871600  0.33514600  1
  N  1117  1  0.33213600  0.66544100  0.15052500  1
  N  1122  1  0.18206900  0.12319700  0.66741700  1
  N  1126  1  0.18670400  0.18286000  0.66622500  1
  N  1132  1  0.12748700  0.18592800  0.66547000  1
  N  1138  1  0.12289900  0.12626500  0.66635600  1
  N  1193  1  0.97613700  0.15482700  0.66537000  1
  N  1195  1  0.14323700  0.97543900  0.66119800  1
  N  1197  1  0.33343600  0.15113600  0.66834700  1
  N  1199  1  0.16583000  0.33333333  0.65686900  1
  N  1202  1  0.14064700  0.64063800  0.42434000  1
  N  1205  1  0.15678300  0.67643100  0.38973200  1
  N  1220  1  0.16786000  0.64404900  0.88684400  1
  N  1223  1  0.14110100  0.67017400  0.92302600  1
  N  1238  1  0.42288900  0.13962100  0.64013700  1
  N  1241  1  0.38801800  0.15477500  0.67611600  1
  N  1256  1  0.88503000  0.16845700  0.64326100  1
  N  1259  1  0.92240100  0.14382200  0.66979100  1
  N  1274  1  0.64070700  0.42299700  0.13966200  1
  N  1277  1  0.67646400  0.38854300  0.15622100  1
  N  1292  1  0.64478800  0.88522900  0.16758600  1
  N  1295  1  0.67005800  0.92179000  0.14048000  1
  N  1310  1  0.63937600  0.14057000  0.88550400  1
  N  1313  1  0.67548600  0.15725600  0.91952800  1
  N  1328  1  0.64416100  0.16713300  0.42284000  1
  N  1331  1  0.67006600  0.14068400  0.38627700  1
  N  1346  1  0.13701200  0.42122300  0.66562700  1
  N  1349  1  0.16422400  0.38640700  0.63714200  1
  N  1364  1  0.17423700  0.88707600  0.65793200  1
  N  1367  1  0.14011200  0.92287700  0.64093300  1
  N  1382  1  0.42273800  0.64392700  0.16704500  1
  N  1385  1  0.38607300  0.66988300  0.14077900  1
  N  1400  1  0.88544900  0.63947100  0.14043500  1
  N  1403  1  0.91932600  0.67558400  0.15739800  1
  O  501  1  0.01454000  0.56660800  0.25312500  1
  O  502  1  0.04203300  0.54425700  0.27290100  1
  O  504  1  0.94462600  0.45121900  0.24621000  1
  O  505  1  0.97840500  0.43611000  0.22910100  1
  O  509  1  0.99596800  0.53050400  0.31546900  1
  O  510  1  0.96449200  0.48008800  0.18543200  1
  O  519  1  0.96540600  0.56000700  0.74315600  1
  O  520  1  0.93655500  0.53231400  0.73623900  1
  O  522  1  0.05568900  0.46407500  0.75079600  1
  O  523  1  0.02660700  0.43807100  0.76182500  1
  O  527  1  0.97295200  0.52581400  0.68366600  1
  O  528  1  0.02069500  0.47330400  0.81192800  1
  O  537  1  0.25126400  0.01271700  0.56626000  1
  O  538  1  0.27044300  0.04085100  0.54387600  1
  O  540  1  0.24631000  0.94416200  0.44952300  1
  O  541  1  0.22601500  0.97664000  0.43604900  1
  O  545  1  0.31367700  0.99544300  0.53021900  1
  O  546  1  0.18479300  0.96026300  0.48094600  1
  O  555  1  0.74481200  0.96657500  0.55961000  1
  O  556  1  0.73558200  0.93821800  0.53216900  1
  O  558  1  0.74609900  0.05631900  0.46158300  1
  O  559  1  0.76062300  0.02743700  0.43708700  1
  O  563  1  0.68344400  0.97116900  0.52430700  1
  O  564  1  0.80946300  0.02687300  0.47409400  1
  O  573  1  0.56648200  0.25213500  0.01426600  1
  O  574  1  0.54384100  0.27196400  0.04148700  1
  O  576  1  0.45173200  0.24442400  0.94341900  1
  O  577  1  0.43620800  0.22803400  0.97735900  1
  O  581  1  0.53031400  0.31431400  0.99513900  1
  O  582  1  0.48038000  0.18399000  0.96397300  1
  O  591  1  0.56041600  0.74115500  0.96552400  1
  O  592  1  0.53298800  0.73704600  0.93591500  1
  O  594  1  0.46474100  0.74873000  0.05548800  1
  O  595  1  0.43847600  0.75987600  0.02668500  1
  O  599  1  0.52584500  0.68255400  0.97147000  1
  O  600  1  0.47267700  0.81018100  0.02014500  1
  O  609  1  0.56550900  0.01426500  0.74078200  1
  O  610  1  0.54278400  0.04200700  0.72144000  1
  O  612  1  0.44929800  0.94552400  0.74939400  1
  O  613  1  0.43550100  0.97874100  0.76823700  1
  O  617  1  0.52881200  0.99546300  0.67932600  1
  O  618  1  0.47978500  0.96548500  0.81026700  1
  O  627  1  0.55993100  0.96380800  0.24979600  1
  O  628  1  0.53226100  0.93620800  0.26055700  1
  O  630  1  0.46378200  0.05495500  0.24500700  1
  O  631  1  0.43780000  0.02584900  0.23398400  1
  O  635  1  0.52575900  0.97169800  0.31122900  1
  O  636  1  0.47267000  0.02051500  0.18359500  1
  O  645  1  0.03132100  0.24931500  0.43634000  1
  O  646  1  0.05126600  0.27213100  0.46337500  1
  O  648  1  0.93698600  0.24372400  0.53402600  1
  O  649  1  0.96512500  0.22136800  0.55326500  1
  O  653  1  0.00037100  0.31152000  0.46348500  1
  O  654  1  0.96270800  0.18181900  0.50184800  1
  O  663  1  0.95529400  0.74228700  0.44110500  1
  O  664  1  0.93368100  0.73555100  0.47477200  1
  O  666  1  0.06412800  0.74862000  0.51830300  1
  O  667  1  0.04144500  0.76963000  0.54460100  1
  O  671  1  0.97586200  0.68393500  0.46545000  1
  O  672  1  0.03154200  0.81215000  0.49849800  1
  O  681  1  0.25018100  0.55999700  0.96470800  1
  O  682  1  0.25934400  0.53230800  0.93627600  1
  O  684  1  0.24509800  0.46335300  0.05483200  1
  O  685  1  0.23391900  0.43748200  0.02568200  1
  O  689  1  0.31099700  0.52552300  0.97149000  1
  O  690  1  0.18355900  0.47242600  0.02075400  1
  O  699  1  0.74063000  0.56554700  0.01467300  1
  O  700  1  0.72087400  0.54284300  0.04189000  1
  O  702  1  0.74961800  0.44944900  0.94549800  1
  O  703  1  0.76827100  0.43564300  0.97881700  1
  O  707  1  0.67911700  0.52881600  0.99519600  1
  O  708  1  0.81036900  0.47995400  0.96598200  1
  O  1209  1  0.17174200  0.72381000  0.41032700  1
  O  1210  1  0.19923500  0.70145900  0.43010300  1
  O  1212  1  0.10182800  0.60842100  0.40341200  1
  O  1213  1  0.13560700  0.59331200  0.38630300  1
  O  1217  1  0.15317000  0.68770600  0.47267100  1
  O  1218  1  0.12169400  0.63729000  0.34263400  1
  O  1227  1  0.12260800  0.71720900  0.90035800  1
  O  1228  1  0.09375710  0.68951600  0.89344100  1
  O  1230  1  0.21289100  0.62127700  0.90799800  1
  O  1231  1  0.18380900  0.59527300  0.91902700  1
  O  1235  1  0.13015400  0.68301600  0.84086800  1
  O  1236  1  0.17789700  0.63050600  0.96913000  1
  O  1245  1  0.40846600  0.16991900  0.72346200  1
  O  1246  1  0.42764500  0.19805300  0.70107800  1
  O  1248  1  0.40351200  0.10136400  0.60672500  1
  O  1249  1  0.38321700  0.13384200  0.59325100  1
  O  1253  1  0.47087900  0.15264500  0.68742100  1
  O  1254  1  0.34199500  0.11746500  0.63814800  1
  O  1263  1  0.90201400  0.12377700  0.71681200  1
  O  1264  1  0.89278400  0.09542010  0.68937100  1
  O  1266  1  0.90330100  0.21352100  0.61878500  1
  O  1267  1  0.91782500  0.18463900  0.59428900  1
  O  1271  1  0.84064600  0.12837100  0.68150900  1
  O  1272  1  0.96666500  0.18407500  0.63129600  1
  O  1281  1  0.72368400  0.40933700  0.17146800  1
  O  1282  1  0.70104300  0.42916600  0.19868900  1
  O  1284  1  0.60893400  0.40162600  0.10062100  1
  O  1285  1  0.59341000  0.38523600  0.13456100  1
  O  1289  1  0.68751600  0.47151600  0.15234100  1
  O  1290  1  0.63758200  0.34119200  0.12117500  1
  O  1299  1  0.71761800  0.89835700  0.12272600  1
  O  1300  1  0.69019000  0.89424800  0.09311710  1
  O  1302  1  0.62194300  0.90593200  0.21269000  1
  O  1303  1  0.59567800  0.91707800  0.18388700  1
  O  1307  1  0.68304700  0.83975600  0.12867200  1
  O  1308  1  0.62987900  0.96738300  0.17734700  1
  O  1317  1  0.72271100  0.17146700  0.89798400  1
  O  1318  1  0.69998600  0.19920900  0.87864200  1
  O  1320  1  0.60650000  0.10272600  0.90659600  1
  O  1321  1  0.59270300  0.13594300  0.92543900  1
  O  1325  1  0.68601400  0.15266500  0.83652800  1
  O  1326  1  0.63698700  0.12268700  0.96746900  1
  O  1335  1  0.71713300  0.12101000  0.40699800  1
  O  1336  1  0.68946300  0.09341010  0.41775900  1
  O  1338  1  0.62098400  0.21215700  0.40220900  1
  O  1339  1  0.59500200  0.18305100  0.39118600  1
  O  1343  1  0.68296100  0.12890000  0.46843100  1
  O  1344  1  0.62987200  0.17771700  0.34079700  1
  O  1353  1  0.18852300  0.40651700  0.59354200  1
  O  1354  1  0.20846800  0.42933300  0.62057700  1
  O  1356  1  0.09418810  0.40092600  0.69122800  1
  O  1357  1  0.12232700  0.37857000  0.71046700  1
  O  1361  1  0.15757300  0.46872200  0.62068700  1
  O  1362  1  0.11991000  0.33902100  0.65905000  1
  O  1371  1  0.11249600  0.89948900  0.59830700  1
  O  1372  1  0.09088310  0.89275300  0.63197400  1
  O  1374  1  0.22133000  0.90582200  0.67550500  1
  O  1375  1  0.19864700  0.92683200  0.70180300  1
  O  1379  1  0.13306400  0.84113700  0.62265200  1
  O  1380  1  0.18874400  0.96935200  0.65570000  1
  O  1389  1  0.40738300  0.71719900  0.12191000  1
  O  1390  1  0.41654600  0.68951000  0.09347810  1
  O  1392  1  0.40230000  0.62055500  0.21203400  1
  O  1393  1  0.39112100  0.59468400  0.18288400  1
  O  1397  1  0.46819900  0.68272500  0.12869200  1
  O  1398  1  0.34076100  0.62962800  0.17795600  1
  O  1407  1  0.89783200  0.72274900  0.17187500  1
  O  1408  1  0.87807600  0.70004500  0.19909200  1
  O  1410  1  0.90682000  0.60665100  0.10270000  1
  O  1411  1  0.92547300  0.59284500  0.13601900  1
  O  1415  1  0.83631900  0.68601800  0.15239800  1
  O  1416  1  0.96757100  0.63715600  0.12318400  1
