# generated using pymatgen
data_SiH30C48(NO2)2
_symmetry_space_group_name_H-M   'P 1'
_cell_length_a   56.22720000
_cell_length_b   64.48535000
_cell_length_c   64.48530000
_cell_angle_alpha   60.00007695
_cell_angle_beta   90.00000000
_cell_angle_gamma   90.00000000
_symmetry_Int_Tables_number   1
_chemical_formula_structural   SiH30C48(NO2)2
_chemical_formula_sum   'Si24 H720 C1152 N48 O96'
_cell_volume   202487.96300186
_cell_formula_units_Z   24
loop_
 _symmetry_equiv_pos_site_id
 _symmetry_equiv_pos_as_xyz
  1  'x, y, z'
loop_
 _atom_site_type_symbol
 _atom_site_label
 _atom_site_symmetry_multiplicity
 _atom_site_fract_x
 _atom_site_fract_y
 _atom_site_fract_z
 _atom_site_occupancy
  Si  7  1  0.89356300  0.15907600  0.44084300  1
  Si  48  1  0.89335500  0.44139200  0.44493100  1
  Si  89  1  0.89351800  0.44547000  0.15845800  1
  Si  130  1  0.39353200  0.87160500  0.58882100  1
  Si  171  1  0.39341100  0.58915600  0.58478400  1
  Si  212  1  0.39352100  0.58515000  0.87122700  1
  Si  253  1  0.07131200  0.58716500  0.58748500  1
  Si  294  1  0.07148500  0.87074400  0.58671900  1
  Si  335  1  0.07152400  0.58797000  0.87017900  1
  Si  376  1  0.57131800  0.44341900  0.44217700  1
  Si  417  1  0.57150400  0.15989800  0.44296700  1
  Si  458  1  0.57148500  0.44261700  0.15952900  1
  Si  1027  1  0.89356300  0.00400200  0.03765000  1
  Si  1068  1  0.89335500  0.28631800  0.04173800  1
  Si  1109  1  0.89351800  0.29039600  0.75526500  1
  Si  1150  1  0.39353200  0.71653100  0.18562820  1
  Si  1191  1  0.39341100  0.43408200  0.18159100  1
  Si  1232  1  0.39352100  0.43007600  0.46803400  1
  Si  1273  1  0.07131200  0.43209100  0.18429200  1
  Si  1314  1  0.07148500  0.71567000  0.18352600  1
  Si  1355  1  0.07152400  0.43289600  0.46698600  1
  Si  1396  1  0.57131800  0.28834500  0.03898400  1
  Si  1437  1  0.57150400  0.00482400  0.03977400  1
  Si  1478  1  0.57148500  0.28754300  0.75633600  1
  H  26  1  0.87224000  0.21859000  0.36142200  1
  H  27  1  0.86357200  0.18975000  0.40157800  1
  H  28  1  0.94507700  0.20071600  0.37357200  1
  H  29  1  0.93660800  0.17184700  0.41398000  1
  H  30  1  0.93480300  0.17193700  0.45818100  1
  H  31  1  0.94130700  0.20305600  0.46714400  1
  H  32  1  0.86947000  0.22409100  0.45118800  1
  H  33  1  0.86280600  0.19329200  0.44208900  1
  H  34  1  0.86330800  0.14509900  0.48115900  1
  H  35  1  0.82388000  0.13009700  0.48933400  1
  H  36  1  0.82294200  0.12804100  0.42489700  1
  H  37  1  0.86263600  0.14252900  0.41682000  1
  H  38  1  0.91267600  0.12973300  0.42355800  1
  H  39  1  0.91094800  0.13105100  0.48857500  1
  H  40  1  0.93282900  0.09469400  0.50761100  1
  H  41  1  0.93484200  0.09367900  0.44263600  1
  H  67  1  0.87215800  0.36201000  0.46459400  1
  H  68  1  0.86345500  0.40215900  0.45327000  1
  H  69  1  0.94491200  0.37409800  0.47076200  1
  H  70  1  0.93640400  0.41449300  0.45923300  1
  H  71  1  0.93461800  0.45849500  0.41476700  1
  H  72  1  0.94107100  0.46750500  0.37467000  1
  H  73  1  0.86907800  0.45210400  0.36946100  1
  H  74  1  0.86247100  0.44295500  0.40938000  1
  H  75  1  0.86320000  0.48181600  0.41879800  1
  H  76  1  0.82377600  0.48998500  0.42564900  1
  H  77  1  0.82264400  0.42523500  0.49184600  1
  H  78  1  0.86232600  0.41715400  0.48541100  1
  H  79  1  0.91230600  0.42418800  0.49159400  1
  H  80  1  0.91095400  0.48907900  0.42513900  1
  H  81  1  0.93287600  0.50811100  0.44243300  1
  H  82  1  0.93452300  0.44325400  0.50854900  1
  H  108  1  0.87206500  0.46554800  0.21783100  1
  H  109  1  0.86345500  0.45422900  0.18899000  1
  H  110  1  0.94496100  0.47094700  0.20027800  1
  H  111  1  0.93654600  0.45941500  0.17140000  1
  H  112  1  0.93474100  0.41522400  0.17122400  1
  H  113  1  0.94126100  0.37515100  0.20233400  1
  H  114  1  0.86948900  0.37013400  0.22355200  1
  H  115  1  0.86281700  0.41002700  0.19276100  1
  H  116  1  0.86323900  0.41903600  0.14460400  1
  H  117  1  0.82382300  0.42585300  0.12958000  1
  H  118  1  0.82293400  0.49245900  0.12728200  1
  H  119  1  0.86262200  0.48606900  0.14176700  1
  H  120  1  0.91279000  0.49206400  0.12922700  1
  H  121  1  0.91083300  0.42583000  0.13035400  1
  H  122  1  0.93279000  0.44314500  0.09404600  1
  H  123  1  0.93502700  0.50903700  0.09321800  1
  H  149  1  0.37216800  0.81225300  0.66830800  1
  H  150  1  0.36350400  0.84109900  0.62816400  1
  H  151  1  0.44506000  0.82980500  0.65603700  1
  H  152  1  0.43659300  0.85866500  0.61564100  1
  H  153  1  0.43471800  0.85885000  0.57125800  1
  H  154  1  0.44118700  0.82769800  0.56233200  1
  H  155  1  0.36944700  0.80644100  0.57874500  1
  H  156  1  0.36282800  0.83725900  0.58781600  1
  H  157  1  0.36320300  0.88539400  0.54857800  1
  H  158  1  0.32378300  0.90040700  0.54039700  1
  H  159  1  0.32297500  0.90280300  0.60465400  1
  H  160  1  0.36266800  0.88832000  0.61272800  1
  H  161  1  0.41285500  0.90084700  0.60615900  1
  H  162  1  0.41075500  0.89971300  0.54105800  1
  H  163  1  0.43266900  0.93604700  0.52201400  1
  H  164  1  0.43505300  0.93688100  0.58707100  1
  H  190  1  0.37203700  0.66860300  0.56473000  1
  H  191  1  0.36339200  0.62845700  0.57601800  1
  H  192  1  0.44492100  0.65640500  0.55933200  1
  H  193  1  0.43647700  0.61600100  0.57085600  1
  H  194  1  0.43461300  0.57161600  0.61507400  1
  H  195  1  0.44110300  0.56267900  0.65515100  1
  H  196  1  0.36935700  0.57902800  0.66005500  1
  H  197  1  0.36271600  0.58811200  0.62016500  1
  H  198  1  0.36306300  0.54892500  0.61122400  1
  H  199  1  0.32362400  0.54078200  0.60438100  1
  H  200  1  0.32286800  0.60504200  0.53773000  1
  H  201  1  0.36256600  0.61308000  0.54415400  1
  H  202  1  0.41271800  0.60649600  0.53819700  1
  H  203  1  0.41063700  0.54139400  0.60443200  1
  H  204  1  0.43254300  0.52235200  0.58713400  1
  H  205  1  0.43490700  0.58741000  0.52124200  1
  H  231  1  0.37213500  0.56510700  0.81183000  1
  H  232  1  0.36349800  0.57640300  0.84068200  1
  H  233  1  0.44501900  0.55967300  0.82944100  1
  H  234  1  0.43657900  0.57120100  0.85832100  1
  H  235  1  0.43473800  0.61542100  0.85849700  1
  H  236  1  0.44125200  0.65549200  0.82735600  1
  H  237  1  0.36951800  0.66042300  0.80606000  1
  H  238  1  0.36285100  0.62054000  0.83687600  1
  H  239  1  0.36321200  0.61160500  0.88503100  1
  H  240  1  0.32379000  0.60478100  0.90004800  1
  H  241  1  0.32295000  0.53814800  0.90239600  1
  H  242  1  0.36263600  0.54454700  0.88792000  1
  H  243  1  0.41278800  0.53855800  0.90047600  1
  H  244  1  0.41076400  0.60479700  0.89934600  1
  H  245  1  0.43267500  0.58748000  0.93568800  1
  H  246  1  0.43498000  0.52159000  0.93651500  1
  H  272  1  0.09048100  0.57732500  0.66371900  1
  H  273  1  0.09766400  0.59073300  0.62276300  1
  H  274  1  0.02534500  0.54681300  0.66004200  1
  H  275  1  0.03236500  0.56007200  0.61890700  1
  H  276  1  0.02958700  0.61367500  0.58324300  1
  H  277  1  0.02345600  0.65419000  0.57301500  1
  H  278  1  0.09705800  0.66745900  0.56062800  1
  H  279  1  0.10346000  0.62719400  0.57098400  1
  H  280  1  0.09563300  0.60508200  0.54338900  1
  H  281  1  0.13442400  0.59827400  0.53347800  1
  H  282  1  0.14725100  0.54798200  0.60623600  1
  H  283  1  0.10840800  0.55391600  0.61615800  1
  H  284  1  0.06250700  0.53932200  0.59989400  1
  H  285  1  0.04178700  0.60848000  0.54511700  1
  H  286  1  0.01911500  0.59097100  0.52689000  1
  H  287  1  0.03968500  0.52202800  0.58148100  1
  H  313  1  0.09070100  0.80427100  0.57702800  1
  H  314  1  0.09783700  0.83184700  0.59041200  1
  H  315  1  0.02564200  0.83851900  0.54630700  1
  H  316  1  0.03261000  0.86641400  0.55955000  1
  H  317  1  0.02975600  0.84844500  0.61316800  1
  H  318  1  0.02358600  0.81818200  0.65368200  1
  H  319  1  0.09714700  0.81739600  0.66706700  1
  H  320  1  0.10359200  0.84728300  0.62680000  1
  H  321  1  0.09574700  0.89700700  0.60457400  1
  H  322  1  0.13451500  0.91378100  0.59774500  1
  H  323  1  0.14745000  0.89117200  0.54758100  1
  H  324  1  0.10862900  0.87525500  0.55354000  1
  H  325  1  0.06275600  0.90616000  0.53885400  1
  H  326  1  0.04186200  0.89181000  0.60795700  1
  H  327  1  0.01916300  0.92752500  0.59038900  1
  H  328  1  0.03990900  0.94185400  0.52149700  1
  H  354  1  0.09072400  0.66419800  0.80377600  1
  H  355  1  0.09787600  0.62322300  0.83130400  1
  H  356  1  0.02564600  0.66057200  0.83803800  1
  H  357  1  0.03263000  0.61942300  0.86588400  1
  H  358  1  0.02975000  0.58376100  0.84798100  1
  H  359  1  0.02351300  0.57353100  0.81771400  1
  H  360  1  0.09708400  0.56110200  0.81669200  1
  H  361  1  0.10359200  0.57144600  0.84660400  1
  H  362  1  0.09584300  0.54386700  0.89633500  1
  H  363  1  0.13459500  0.53393100  0.91314700  1
  H  364  1  0.14743700  0.60668100  0.89070600  1
  H  365  1  0.10862900  0.61663000  0.87475300  1
  H  366  1  0.06280900  0.60040800  0.90560800  1
  H  367  1  0.04197400  0.54561800  0.89128800  1
  H  368  1  0.01930900  0.52744500  0.92702400  1
  H  369  1  0.04000300  0.58203600  0.94132900  1
  H  395  1  0.59042400  0.45323600  0.36592800  1
  H  396  1  0.59760000  0.43976300  0.40690500  1
  H  397  1  0.52541500  0.48395900  0.36958400  1
  H  398  1  0.53242400  0.47063200  0.41073200  1
  H  399  1  0.52961500  0.41692000  0.44636600  1
  H  400  1  0.52347400  0.37640100  0.45664000  1
  H  401  1  0.59705100  0.36307900  0.46919300  1
  H  402  1  0.60346000  0.40335700  0.45879600  1
  H  403  1  0.59563000  0.42560200  0.48626400  1
  H  404  1  0.63440600  0.43245900  0.49615600  1
  H  405  1  0.64727400  0.48258800  0.42336200  1
  H  406  1  0.60843800  0.47660900  0.41345100  1
  H  407  1  0.56259800  0.49126300  0.42981600  1
  H  408  1  0.54170900  0.42212900  0.48449600  1
  H  409  1  0.51901000  0.43964800  0.50269000  1
  H  410  1  0.53976000  0.50857200  0.44820500  1
  H  436  1  0.59067700  0.22635300  0.45272100  1
  H  437  1  0.59783000  0.19881100  0.43929200  1
  H  438  1  0.52565300  0.19202600  0.48346400  1
  H  439  1  0.53264100  0.16416500  0.47018300  1
  H  440  1  0.52978400  0.18221700  0.41650700  1
  H  441  1  0.52361300  0.21245400  0.37599200  1
  H  442  1  0.59716800  0.21319000  0.36259200  1
  H  443  1  0.60361200  0.18332400  0.40286500  1
  H  444  1  0.59577200  0.13362600  0.42512400  1
  H  445  1  0.63454900  0.11687600  0.43193900  1
  H  446  1  0.64748900  0.13952400  0.48207200  1
  H  447  1  0.60865700  0.15541300  0.47613200  1
  H  448  1  0.56280000  0.12443300  0.49082100  1
  H  449  1  0.54185900  0.13886900  0.42170400  1
  H  450  1  0.51915100  0.10316200  0.43924700  1
  H  451  1  0.53995000  0.08874400  0.50815200  1
  H  477  1  0.59067000  0.36636400  0.22590600  1
  H  478  1  0.59781700  0.40734700  0.19841000  1
  H  479  1  0.52560300  0.37001600  0.19161900  1
  H  480  1  0.53258400  0.41117000  0.16380600  1
  H  481  1  0.52972700  0.44682000  0.18177100  1
  H  482  1  0.52352800  0.45710300  0.21200700  1
  H  483  1  0.59710200  0.46957900  0.21292500  1
  H  484  1  0.60357600  0.45917300  0.18305800  1
  H  485  1  0.59583400  0.48670400  0.13337100  1
  H  486  1  0.63460000  0.49661000  0.11658400  1
  H  487  1  0.64738400  0.42385300  0.13903000  1
  H  488  1  0.60856800  0.41393300  0.15496100  1
  H  489  1  0.56275600  0.43021900  0.12406700  1
  H  490  1  0.54192100  0.48495500  0.13846200  1
  H  491  1  0.51922700  0.50314100  0.10274500  1
  H  492  1  0.53992000  0.44860000  0.08836700  1
  H  499  1  0.89576200  0.35332500  0.26132800  1
  H  506  1  0.94492700  0.28346100  0.31452500  1
  H  507  1  0.94129700  0.24681100  0.35152000  1
  H  508  1  0.88798200  0.22386200  0.32130300  1
  H  509  1  0.92577100  0.33008400  0.21650200  1
  H  510  1  0.89138700  0.26081500  0.28436600  1
  H  511  1  0.93128400  0.29087100  0.25042900  1
  H  521  1  0.89567200  0.26193400  0.43017800  1
  H  528  1  0.94496400  0.31509100  0.44691900  1
  H  529  1  0.94129500  0.35208200  0.44659000  1
  H  530  1  0.88779500  0.32188000  0.49955800  1
  H  531  1  0.92584800  0.21710400  0.49816100  1
  H  532  1  0.89124900  0.28496200  0.49954400  1
  H  533  1  0.93134600  0.25101300  0.50348000  1
  H  543  1  0.89509400  0.43089700  0.35266800  1
  H  550  1  0.94455000  0.44723500  0.28301400  1
  H  551  1  0.94100100  0.44692200  0.24632900  1
  H  552  1  0.88789800  0.50032000  0.22320300  1
  H  553  1  0.92575900  0.49866600  0.32958200  1
  H  554  1  0.89122400  0.50028100  0.26016000  1
  H  555  1  0.93127400  0.50392500  0.29037600  1
  H  565  1  0.39583500  0.67723400  0.76832600  1
  H  572  1  0.44483600  0.74713100  0.71507200  1
  H  573  1  0.44121700  0.78380400  0.67809900  1
  H  574  1  0.38802000  0.80677900  0.70842100  1
  H  575  1  0.42570700  0.70054400  0.81315000  1
  H  576  1  0.39141700  0.76980300  0.74532200  1
  H  577  1  0.43119700  0.73975900  0.77921300  1
  H  587  1  0.39570500  0.76868200  0.59965000  1
  H  594  1  0.44468300  0.71540700  0.58301500  1
  H  595  1  0.44105000  0.67843000  0.58332600  1
  H  596  1  0.38785100  0.70873600  0.53004100  1
  H  597  1  0.42563200  0.81347400  0.53153400  1
  H  598  1  0.39125200  0.74565400  0.53010000  1
  H  599  1  0.43107900  0.77953700  0.52625600  1
  H  609  1  0.39559100  0.59993200  0.67691000  1
  H  616  1  0.44472200  0.58335800  0.74673500  1
  H  617  1  0.44112600  0.58367300  0.78340400  1
  H  618  1  0.38791300  0.53039400  0.80641700  1
  H  619  1  0.42560900  0.53186200  0.70017800  1
  H  620  1  0.39127700  0.53044400  0.76945900  1
  H  621  1  0.43111700  0.52659400  0.73938500  1
  H  631  1  0.08122200  0.58880500  0.77255000  1
  H  638  1  0.01804400  0.57157300  0.72075200  1
  H  639  1  0.02096500  0.57377400  0.68268600  1
  H  640  1  0.08516300  0.53456500  0.70446000  1
  H  641  1  0.03001900  0.53514100  0.81051100  1
  H  642  1  0.08217700  0.53234800  0.74245500  1
  H  643  1  0.02576700  0.52906900  0.77688200  1
  H  653  1  0.08136200  0.68396700  0.58827500  1
  H  660  1  0.01824400  0.75312300  0.57093700  1
  H  661  1  0.02114600  0.78894600  0.57319500  1
  H  662  1  0.08553300  0.80626400  0.53428700  1
  H  663  1  0.02999900  0.69973800  0.53473500  1
  H  664  1  0.08254300  0.77050500  0.53201900  1
  H  665  1  0.02588000  0.73945800  0.52865000  1
  H  675  1  0.08151200  0.77323000  0.68356000  1
  H  682  1  0.01832900  0.72134800  0.75261000  1
  H  683  1  0.02123300  0.68326600  0.78842200  1
  H  684  1  0.08549400  0.70490600  0.80588100  1
  H  685  1  0.03001700  0.81095000  0.69924900  1
  H  686  1  0.08251700  0.74295200  0.77011800  1
  H  687  1  0.02586600  0.77731400  0.73895900  1
  H  697  1  0.58135000  0.44197800  0.25709400  1
  H  704  1  0.51806000  0.45929000  0.30877300  1
  H  705  1  0.52094200  0.45702800  0.34685300  1
  H  706  1  0.58524500  0.49605500  0.32525900  1
  H  707  1  0.52998000  0.49546100  0.21916500  1
  H  708  1  0.58229600  0.49833800  0.28723700  1
  H  709  1  0.52574500  0.50160600  0.25274900  1
  H  719  1  0.58137000  0.34657300  0.44150800  1
  H  726  1  0.51820300  0.27744100  0.45878300  1
  H  727  1  0.52115200  0.24160700  0.45652800  1
  H  728  1  0.58548700  0.22430100  0.49551500  1
  H  729  1  0.52997500  0.33083800  0.49501400  1
  H  730  1  0.58246900  0.26004900  0.49778700  1
  H  731  1  0.52583400  0.29112200  0.50109600  1
  H  741  1  0.58156000  0.25737500  0.34604300  1
  H  748  1  0.51829900  0.30918400  0.27706700  1
  H  749  1  0.52116600  0.34727800  0.24125400  1
  H  750  1  0.58543900  0.32566700  0.22375800  1
  H  751  1  0.53000700  0.21962700  0.33045700  1
  H  752  1  0.58248000  0.28762500  0.25950500  1
  H  753  1  0.52583300  0.25324100  0.29073100  1
  H  763  1  0.78558400  0.15073000  0.46729300  1
  H  770  1  0.71369500  0.09688600  0.50002300  1
  H  771  1  0.67147900  0.10181900  0.49756400  1
  H  772  1  0.67566800  0.13639300  0.42208800  1
  H  773  1  0.79527000  0.09368200  0.45380700  1
  H  774  1  0.71767700  0.13090600  0.42468700  1
  H  775  1  0.75312100  0.08751200  0.45581200  1
  H  785  1  0.78541300  0.46804800  0.42683100  1
  H  792  1  0.71348400  0.50062300  0.44798100  1
  H  793  1  0.67126400  0.49812500  0.44553200  1
  H  794  1  0.67553800  0.42265100  0.48642600  1
  H  795  1  0.79506500  0.45410800  0.49752200  1
  H  796  1  0.71751700  0.42528400  0.48928600  1
  H  797  1  0.75292200  0.45616900  0.50166600  1
  H  807  1  0.78553800  0.42731100  0.15005700  1
  H  814  1  0.71352800  0.44857600  0.09621800  1
  H  815  1  0.67131000  0.44613200  0.10125000  1
  H  816  1  0.67576700  0.48680100  0.13605900  1
  H  817  1  0.79521100  0.49787400  0.09306200  1
  H  818  1  0.71774000  0.48966100  0.13048000  1
  H  819  1  0.75305900  0.50205500  0.08694200  1
  H  829  1  0.28552200  0.87988500  0.56245900  1
  H  836  1  0.21366900  0.93380500  0.52964200  1
  H  837  1  0.17144300  0.92888700  0.53208800  1
  H  838  1  0.17564200  0.89428000  0.60757100  1
  H  839  1  0.29524700  0.93705000  0.57576000  1
  H  840  1  0.21763600  0.89975900  0.60497400  1
  H  841  1  0.25309600  0.94322400  0.57377000  1
  H  851  1  0.28536900  0.56289100  0.60280300  1
  H  858  1  0.21352300  0.53011300  0.58156000  1
  H  859  1  0.17129800  0.53257200  0.58398500  1
  H  860  1  0.17551600  0.60805600  0.54325400  1
  H  861  1  0.29514500  0.57614100  0.53235900  1
  H  862  1  0.21753000  0.60545600  0.54041000  1
  H  863  1  0.25299800  0.57418800  0.52813700  1
  H  873  1  0.28548400  0.60326200  0.87961300  1
  H  880  1  0.21353700  0.58199000  0.93349100  1
  H  881  1  0.17133000  0.58442700  0.92846000  1
  H  882  1  0.17578800  0.54370000  0.89371900  1
  H  883  1  0.29525500  0.53272700  0.93662600  1
  H  884  1  0.21775400  0.54084600  0.89929700  1
  H  885  1  0.25311400  0.52850300  0.94280600  1
  H  895  1  0.92663600  0.05084800  0.47594500  1
  H  902  1  0.95971700  0.98129800  0.54497100  1
  H  903  1  0.98184700  0.94474000  0.56290800  1
  H  904  1  0.04180900  0.98191800  0.52125400  1
  H  905  1  0.97531500  0.07978900  0.50449700  1
  H  906  1  0.01948800  0.01833400  0.50298400  1
  H  907  1  0.99647800  0.04276200  0.52358600  1
  H  917  1  0.92645600  0.47663700  0.51794100  1
  H  924  1  0.95964100  0.54564700  0.51838700  1
  H  925  1  0.98175500  0.56356800  0.53703100  1
  H  926  1  0.04166600  0.52177900  0.54168600  1
  H  927  1  0.97526600  0.50494200  0.46056200  1
  H  928  1  0.01935700  0.50352400  0.52351700  1
  H  929  1  0.99643500  0.52406100  0.47846300  1
  H  939  1  0.92680000  0.51866000  0.05032900  1
  H  946  1  0.95984000  0.51912200  0.98079500  1
  H  947  1  0.98196300  0.53773600  0.94423200  1
  H  948  1  0.04194400  0.54219800  0.98139800  1
  H  949  1  0.97536600  0.46107000  0.07925200  1
  H  950  1  0.01963100  0.52405000  0.01782200  1
  H  951  1  0.99655700  0.47900500  0.04223800  1
  H  961  1  0.42675400  0.97976200  0.55381900  1
  H  968  1  0.45971300  0.04935100  0.48472000  1
  H  969  1  0.48183600  0.08591500  0.46678400  1
  H  970  1  0.54185500  0.04871600  0.50831000  1
  H  971  1  0.47525000  0.95088500  0.52504700  1
  H  972  1  0.51954400  0.01229200  0.52657400  1
  H  973  1  0.49642000  0.98791100  0.50594000  1
  H  983  1  0.42659900  0.55416000  0.51161500  1
  H  990  1  0.45956700  0.48507300  0.51109600  1
  H  991  1  0.48168500  0.46715800  0.49244400  1
  H  992  1  0.54169000  0.50871100  0.48808900  1
  H  993  1  0.47512200  0.52538900  0.56924300  1
  H  994  1  0.51938400  0.52695400  0.50627100  1
  H  995  1  0.49628300  0.50629600  0.55130500  1
  H  1005  1  0.42672900  0.51195600  0.97940500  1
  H  1012  1  0.45974700  0.51149200  0.04895800  1
  H  1013  1  0.48187700  0.49286800  0.08551600  1
  H  1014  1  0.54186200  0.48846300  0.04832200  1
  H  1015  1  0.47524500  0.56958900  0.95049700  1
  H  1016  1  0.51954200  0.50662200  0.01190200  1
  H  1017  1  0.49643600  0.55166500  0.98750900  1
  H  1046  1  0.87224000  0.06351600  0.95822900  1
  H  1047  1  0.86357200  0.03467600  0.99838500  1
  H  1048  1  0.94507700  0.04564200  0.97037900  1
  H  1049  1  0.93660800  0.01677300  0.01078700  1
  H  1050  1  0.93480300  0.01686300  0.05498800  1
  H  1051  1  0.94130700  0.04798200  0.06395100  1
  H  1052  1  0.86947000  0.06901700  0.04799500  1
  H  1053  1  0.86280600  0.03821800  0.03889600  1
  H  1054  1  0.86330800  0.99002514  0.07796586  1
  H  1055  1  0.82388000  0.97502310  0.08614090  1
  H  1056  1  0.82294200  0.97296710  0.02170413  1
  H  1057  1  0.86263600  0.98745510  0.01362690  1
  H  1058  1  0.91267600  0.97465910  0.02036513  1
  H  1059  1  0.91094800  0.97597710  0.08538190  1
  H  1060  1  0.93282900  0.93962010  0.10441790  1
  H  1061  1  0.93484200  0.93860510  0.03944310  1
  H  1087  1  0.87215800  0.20693600  0.06140100  1
  H  1088  1  0.86345500  0.24708500  0.05007700  1
  H  1089  1  0.94491200  0.21902400  0.06756900  1
  H  1090  1  0.93640400  0.25941900  0.05604000  1
  H  1091  1  0.93461800  0.30342100  0.01157400  1
  H  1092  1  0.94107100  0.31243100  0.97147700  1
  H  1093  1  0.86907800  0.29703000  0.96626800  1
  H  1094  1  0.86247100  0.28788100  0.00618700  1
  H  1095  1  0.86320000  0.32674200  0.01560500  1
  H  1096  1  0.82377600  0.33491100  0.02245600  1
  H  1097  1  0.82264400  0.27016100  0.08865300  1
  H  1098  1  0.86232600  0.26208000  0.08221800  1
  H  1099  1  0.91230600  0.26911400  0.08840100  1
  H  1100  1  0.91095400  0.33400500  0.02194600  1
  H  1101  1  0.93287600  0.35303700  0.03924000  1
  H  1102  1  0.93452300  0.28818000  0.10535600  1
  H  1128  1  0.87206500  0.31047400  0.81463800  1
  H  1129  1  0.86345500  0.29915500  0.78579700  1
  H  1130  1  0.94496100  0.31587300  0.79708500  1
  H  1131  1  0.93654600  0.30434100  0.76820700  1
  H  1132  1  0.93474100  0.26015000  0.76803100  1
  H  1133  1  0.94126100  0.22007700  0.79914100  1
  H  1134  1  0.86948900  0.21506000  0.82035900  1
  H  1135  1  0.86281700  0.25495300  0.78956800  1
  H  1136  1  0.86323900  0.26396200  0.74141100  1
  H  1137  1  0.82382300  0.27077900  0.72638723  1
  H  1138  1  0.82293400  0.33738500  0.72408900  1
  H  1139  1  0.86262200  0.33099500  0.73857400  1
  H  1140  1  0.91279000  0.33699000  0.72603400  1
  H  1141  1  0.91083300  0.27075600  0.72716123  1
  H  1142  1  0.93279000  0.28807100  0.69085320  1
  H  1143  1  0.93502700  0.35396300  0.69002500  1
  H  1169  1  0.37216800  0.65717900  0.26511520  1
  H  1170  1  0.36350400  0.68602500  0.22497120  1
  H  1171  1  0.44506000  0.67473100  0.25284420  1
  H  1172  1  0.43659300  0.70359100  0.21244820  1
  H  1173  1  0.43471800  0.70377600  0.16806500  1
  H  1174  1  0.44118700  0.67262400  0.15913900  1
  H  1175  1  0.36944700  0.65136700  0.17555200  1
  H  1176  1  0.36282800  0.68218500  0.18462300  1
  H  1177  1  0.36320300  0.73032000  0.14538500  1
  H  1178  1  0.32378300  0.74533300  0.13720400  1
  H  1179  1  0.32297500  0.74772900  0.20146120  1
  H  1180  1  0.36266800  0.73324600  0.20953520  1
  H  1181  1  0.41285500  0.74577300  0.20296620  1
  H  1182  1  0.41075500  0.74463900  0.13786500  1
  H  1183  1  0.43266900  0.78097300  0.11882100  1
  H  1184  1  0.43505300  0.78180700  0.18387820  1
  H  1210  1  0.37203700  0.51352900  0.16153700  1
  H  1211  1  0.36339200  0.47338300  0.17282500  1
  H  1212  1  0.44492100  0.50133100  0.15613900  1
  H  1213  1  0.43647700  0.46092700  0.16766300  1
  H  1214  1  0.43461300  0.41654200  0.21188100  1
  H  1215  1  0.44110300  0.40760500  0.25195800  1
  H  1216  1  0.36935700  0.42395400  0.25686200  1
  H  1217  1  0.36271600  0.43303800  0.21697200  1
  H  1218  1  0.36306300  0.39385100  0.20803100  1
  H  1219  1  0.32362400  0.38570800  0.20118800  1
  H  1220  1  0.32286800  0.44996800  0.13453700  1
  H  1221  1  0.36256600  0.45800600  0.14096100  1
  H  1222  1  0.41271800  0.45142200  0.13500400  1
  H  1223  1  0.41063700  0.38632000  0.20123900  1
  H  1224  1  0.43254300  0.36727800  0.18394100  1
  H  1225  1  0.43490700  0.43233600  0.11804900  1
  H  1251  1  0.37213500  0.41003300  0.40863700  1
  H  1252  1  0.36349800  0.42132900  0.43748900  1
  H  1253  1  0.44501900  0.40459900  0.42624800  1
  H  1254  1  0.43657900  0.41612700  0.45512800  1
  H  1255  1  0.43473800  0.46034700  0.45530420  1
  H  1256  1  0.44125200  0.50041800  0.42416320  1
  H  1257  1  0.36951800  0.50534900  0.40286720  1
  H  1258  1  0.36285100  0.46546600  0.43368300  1
  H  1259  1  0.36321200  0.45653100  0.48183820  1
  H  1260  1  0.32379000  0.44970700  0.49685520  1
  H  1261  1  0.32295000  0.38307400  0.49920300  1
  H  1262  1  0.36263600  0.38947300  0.48472700  1
  H  1263  1  0.41278800  0.38348400  0.49728300  1
  H  1264  1  0.41076400  0.44972300  0.49615320  1
  H  1265  1  0.43267500  0.43240600  0.53249520  1
  H  1266  1  0.43498000  0.36651600  0.53332200  1
  H  1292  1  0.09048100  0.42225100  0.26052600  1
  H  1293  1  0.09766400  0.43565900  0.21957000  1
  H  1294  1  0.02534500  0.39173900  0.25684900  1
  H  1295  1  0.03236500  0.40499800  0.21571400  1
  H  1296  1  0.02958700  0.45860100  0.18005000  1
  H  1297  1  0.02345600  0.49911600  0.16982200  1
  H  1298  1  0.09705800  0.51238500  0.15743500  1
  H  1299  1  0.10346000  0.47212000  0.16779100  1
  H  1300  1  0.09563300  0.45000800  0.14019600  1
  H  1301  1  0.13442400  0.44320000  0.13028500  1
  H  1302  1  0.14725100  0.39290800  0.20304300  1
  H  1303  1  0.10840800  0.39884200  0.21296500  1
  H  1304  1  0.06250700  0.38424800  0.19670100  1
  H  1305  1  0.04178700  0.45340600  0.14192400  1
  H  1306  1  0.01911500  0.43589700  0.12369700  1
  H  1307  1  0.03968500  0.36695400  0.17828800  1
  H  1333  1  0.09070100  0.64919700  0.17383500  1
  H  1334  1  0.09783700  0.67677300  0.18721900  1
  H  1335  1  0.02564200  0.68344500  0.14311400  1
  H  1336  1  0.03261000  0.71134000  0.15635700  1
  H  1337  1  0.02975600  0.69337100  0.20997520  1
  H  1338  1  0.02358600  0.66310800  0.25048920  1
  H  1339  1  0.09714700  0.66232200  0.26387420  1
  H  1340  1  0.10359200  0.69220900  0.22360720  1
  H  1341  1  0.09574700  0.74193300  0.20138120  1
  H  1342  1  0.13451500  0.75870700  0.19455220  1
  H  1343  1  0.14745000  0.73609800  0.14438800  1
  H  1344  1  0.10862900  0.72018100  0.15034700  1
  H  1345  1  0.06275600  0.75108600  0.13566100  1
  H  1346  1  0.04186200  0.73673600  0.20476420  1
  H  1347  1  0.01916300  0.77245100  0.18719620  1
  H  1348  1  0.03990900  0.78678000  0.11830420  1
  H  1374  1  0.09072400  0.50912400  0.40058320  1
  H  1375  1  0.09787600  0.46814900  0.42811100  1
  H  1376  1  0.02564600  0.50549800  0.43484520  1
  H  1377  1  0.03263000  0.46434900  0.46269120  1
  H  1378  1  0.02975000  0.42868700  0.44478800  1
  H  1379  1  0.02351300  0.41845700  0.41452100  1
  H  1380  1  0.09708400  0.40602800  0.41349900  1
  H  1381  1  0.10359200  0.41637200  0.44341100  1
  H  1382  1  0.09584300  0.38879300  0.49314200  1
  H  1383  1  0.13459500  0.37885700  0.50995400  1
  H  1384  1  0.14743700  0.45160700  0.48751320  1
  H  1385  1  0.10862900  0.46155600  0.47156020  1
  H  1386  1  0.06280900  0.44533400  0.50241520  1
  H  1387  1  0.04197400  0.39054400  0.48809500  1
  H  1388  1  0.01930900  0.37237100  0.52383100  1
  H  1389  1  0.04000300  0.42696200  0.53813620  1
  H  1415  1  0.59042400  0.29816200  0.96273500  1
  H  1416  1  0.59760000  0.28468900  0.00371200  1
  H  1417  1  0.52541500  0.32888500  0.96639100  1
  H  1418  1  0.53242400  0.31555800  0.00753900  1
  H  1419  1  0.52961500  0.26184600  0.04317300  1
  H  1420  1  0.52347400  0.22132700  0.05344700  1
  H  1421  1  0.59705100  0.20800500  0.06600000  1
  H  1422  1  0.60346000  0.24828300  0.05560300  1
  H  1423  1  0.59563000  0.27052800  0.08307100  1
  H  1424  1  0.63440600  0.27738500  0.09296300  1
  H  1425  1  0.64727400  0.32751400  0.02016900  1
  H  1426  1  0.60843800  0.32153500  0.01025800  1
  H  1427  1  0.56259800  0.33618900  0.02662300  1
  H  1428  1  0.54170900  0.26705500  0.08130300  1
  H  1429  1  0.51901000  0.28457400  0.09949700  1
  H  1430  1  0.53976000  0.35349800  0.04501200  1
  H  1456  1  0.59067700  0.07127900  0.04952800  1
  H  1457  1  0.59783000  0.04373700  0.03609900  1
  H  1458  1  0.52565300  0.03695200  0.08027100  1
  H  1459  1  0.53264100  0.00909100  0.06699000  1
  H  1460  1  0.52978400  0.02714300  0.01331400  1
  H  1461  1  0.52361300  0.05738000  0.97279900  1
  H  1462  1  0.59716800  0.05811600  0.95939900  1
  H  1463  1  0.60361200  0.02825000  0.99967200  1
  H  1464  1  0.59577200  0.97855210  0.02193090  1
  H  1465  1  0.63454900  0.96180210  0.02874613  1
  H  1466  1  0.64748900  0.98445010  0.07887890  1
  H  1467  1  0.60865700  0.00033900  0.07293900  1
  H  1468  1  0.56280000  0.96935910  0.08762790  1
  H  1469  1  0.54185900  0.98379510  0.01851090  1
  H  1470  1  0.51915100  0.94808810  0.03605410  1
  H  1471  1  0.53995000  0.93367010  0.10495890  1
  H  1497  1  0.59067000  0.21129000  0.82271300  1
  H  1498  1  0.59781700  0.25227300  0.79521700  1
  H  1499  1  0.52560300  0.21494200  0.78842600  1
  H  1500  1  0.53258400  0.25609600  0.76061300  1
  H  1501  1  0.52972700  0.29174600  0.77857800  1
  H  1502  1  0.52352800  0.30202900  0.80881400  1
  H  1503  1  0.59710200  0.31450500  0.80973200  1
  H  1504  1  0.60357600  0.30409900  0.77986500  1
  H  1505  1  0.59583400  0.33163000  0.73017800  1
  H  1506  1  0.63460000  0.34153600  0.71339100  1
  H  1507  1  0.64738400  0.26877900  0.73583700  1
  H  1508  1  0.60856800  0.25885900  0.75176800  1
  H  1509  1  0.56275600  0.27514500  0.72087423  1
  H  1510  1  0.54192100  0.32988100  0.73526900  1
  H  1511  1  0.51922700  0.34806700  0.69955200  1
  H  1512  1  0.53992000  0.29352600  0.68517420  1
  H  1519  1  0.89576200  0.19825100  0.85813500  1
  H  1526  1  0.94492700  0.12838700  0.91133200  1
  H  1527  1  0.94129700  0.09173700  0.94832700  1
  H  1528  1  0.88798200  0.06878800  0.91811020  1
  H  1529  1  0.92577100  0.17501000  0.81330920  1
  H  1530  1  0.89138700  0.10574100  0.88117320  1
  H  1531  1  0.93128400  0.13579700  0.84723620  1
  H  1541  1  0.89567200  0.10686000  0.02698500  1
  H  1548  1  0.94496400  0.16001700  0.04372600  1
  H  1549  1  0.94129500  0.19700800  0.04339700  1
  H  1550  1  0.88779500  0.16680600  0.09636500  1
  H  1551  1  0.92584800  0.06203000  0.09496800  1
  H  1552  1  0.89124900  0.12988800  0.09635100  1
  H  1553  1  0.93134600  0.09593900  0.10028700  1
  H  1563  1  0.89509400  0.27582300  0.94947500  1
  H  1570  1  0.94455000  0.29216100  0.87982100  1
  H  1571  1  0.94100100  0.29184800  0.84313600  1
  H  1572  1  0.88789800  0.34524600  0.82001000  1
  H  1573  1  0.92575900  0.34359200  0.92638900  1
  H  1574  1  0.89122400  0.34520700  0.85696700  1
  H  1575  1  0.93127400  0.34885100  0.88718300  1
  H  1585  1  0.39583500  0.52216000  0.36513300  1
  H  1592  1  0.44483600  0.59205700  0.31187920  1
  H  1593  1  0.44121700  0.62873000  0.27490620  1
  H  1594  1  0.38802000  0.65170500  0.30522820  1
  H  1595  1  0.42570700  0.54547000  0.40995720  1
  H  1596  1  0.39141700  0.61472900  0.34212920  1
  H  1597  1  0.43119700  0.58468500  0.37602020  1
  H  1607  1  0.39570500  0.61360800  0.19645700  1
  H  1614  1  0.44468300  0.56033300  0.17982200  1
  H  1615  1  0.44105000  0.52335600  0.18013300  1
  H  1616  1  0.38785100  0.55366200  0.12684800  1
  H  1617  1  0.42563200  0.65840000  0.12834100  1
  H  1618  1  0.39125200  0.59058000  0.12690700  1
  H  1619  1  0.43107900  0.62446300  0.12306300  1
  H  1629  1  0.39559100  0.44485800  0.27371700  1
  H  1636  1  0.44472200  0.42828400  0.34354200  1
  H  1637  1  0.44112600  0.42859900  0.38021100  1
  H  1638  1  0.38791300  0.37532000  0.40322400  1
  H  1639  1  0.42560900  0.37678800  0.29698500  1
  H  1640  1  0.39127700  0.37537000  0.36626600  1
  H  1641  1  0.43111700  0.37152000  0.33619200  1
  H  1651  1  0.08122200  0.43373100  0.36935700  1
  H  1658  1  0.01804400  0.41649900  0.31755900  1
  H  1659  1  0.02096500  0.41870000  0.27949300  1
  H  1660  1  0.08516300  0.37949100  0.30126700  1
  H  1661  1  0.03001900  0.38006700  0.40731800  1
  H  1662  1  0.08217700  0.37727400  0.33926200  1
  H  1663  1  0.02576700  0.37399500  0.37368900  1
  H  1673  1  0.08136200  0.52889300  0.18508200  1
  H  1680  1  0.01824400  0.59804900  0.16774400  1
  H  1681  1  0.02114600  0.63387200  0.17000200  1
  H  1682  1  0.08553300  0.65119000  0.13109400  1
  H  1683  1  0.02999900  0.54466400  0.13154200  1
  H  1684  1  0.08254300  0.61543100  0.12882600  1
  H  1685  1  0.02588000  0.58438400  0.12545700  1
  H  1695  1  0.08151200  0.61815600  0.28036700  1
  H  1702  1  0.01832900  0.56627400  0.34941720  1
  H  1703  1  0.02123300  0.52819200  0.38522920  1
  H  1704  1  0.08549400  0.54983200  0.40268820  1
  H  1705  1  0.03001700  0.65587600  0.29605620  1
  H  1706  1  0.08251700  0.58787800  0.36692520  1
  H  1707  1  0.02586600  0.62224000  0.33576620  1
  H  1717  1  0.58135000  0.28690400  0.85390100  1
  H  1724  1  0.51806000  0.30421600  0.90558000  1
  H  1725  1  0.52094200  0.30195400  0.94366000  1
  H  1726  1  0.58524500  0.34098100  0.92206600  1
  H  1727  1  0.52998000  0.34038700  0.81597200  1
  H  1728  1  0.58229600  0.34326400  0.88404400  1
  H  1729  1  0.52574500  0.34653200  0.84955600  1
  H  1739  1  0.58137000  0.19149900  0.03831500  1
  H  1746  1  0.51820300  0.12236700  0.05559000  1
  H  1747  1  0.52115200  0.08653300  0.05333500  1
  H  1748  1  0.58548700  0.06922700  0.09232200  1
  H  1749  1  0.52997500  0.17576400  0.09182100  1
  H  1750  1  0.58246900  0.10497500  0.09459400  1
  H  1751  1  0.52583400  0.13604800  0.09790300  1
  H  1761  1  0.58156000  0.10230100  0.94285000  1
  H  1768  1  0.51829900  0.15411000  0.87387400  1
  H  1769  1  0.52116600  0.19220400  0.83806100  1
  H  1770  1  0.58543900  0.17059300  0.82056523  1
  H  1771  1  0.53000700  0.06455300  0.92726423  1
  H  1772  1  0.58248000  0.13255100  0.85631220  1
  H  1773  1  0.52583300  0.09816700  0.88753820  1
  H  1783  1  0.78558400  0.99565614  0.06409986  1
  H  1790  1  0.71369500  0.94181210  0.09682990  1
  H  1791  1  0.67147900  0.94674510  0.09437090  1
  H  1792  1  0.67566800  0.98131910  0.01889490  1
  H  1793  1  0.79527000  0.93860810  0.05061410  1
  H  1794  1  0.71767700  0.97583210  0.02149413  1
  H  1795  1  0.75312100  0.93243810  0.05261910  1
  H  1805  1  0.78541300  0.31297400  0.02363800  1
  H  1812  1  0.71348400  0.34554900  0.04478800  1
  H  1813  1  0.67126400  0.34305100  0.04233900  1
  H  1814  1  0.67553800  0.26757700  0.08323300  1
  H  1815  1  0.79506500  0.29903400  0.09432900  1
  H  1816  1  0.71751700  0.27021000  0.08609300  1
  H  1817  1  0.75292200  0.30109500  0.09847300  1
  H  1827  1  0.78553800  0.27223700  0.74686400  1
  H  1834  1  0.71352800  0.29350200  0.69302520  1
  H  1835  1  0.67131000  0.29105800  0.69805720  1
  H  1836  1  0.67576700  0.33172700  0.73286600  1
  H  1837  1  0.79521100  0.34280000  0.68986900  1
  H  1838  1  0.71774000  0.33458700  0.72728700  1
  H  1839  1  0.75305900  0.34698100  0.68374900  1
  H  1849  1  0.28552200  0.72481100  0.15926600  1
  H  1856  1  0.21366900  0.77873100  0.12644920  1
  H  1857  1  0.17144300  0.77381300  0.12889520  1
  H  1858  1  0.17564200  0.73920600  0.20437820  1
  H  1859  1  0.29524700  0.78197600  0.17256720  1
  H  1860  1  0.21763600  0.74468500  0.20178120  1
  H  1861  1  0.25309600  0.78815000  0.17057720  1
  H  1871  1  0.28536900  0.40781700  0.19961000  1
  H  1878  1  0.21352300  0.37503900  0.17836700  1
  H  1879  1  0.17129800  0.37749800  0.18079200  1
  H  1880  1  0.17551600  0.45298200  0.14006100  1
  H  1881  1  0.29514500  0.42106700  0.12916600  1
  H  1882  1  0.21753000  0.45038200  0.13721700  1
  H  1883  1  0.25299800  0.41911400  0.12494400  1
  H  1893  1  0.28548400  0.44818800  0.47642020  1
  H  1900  1  0.21353700  0.42691600  0.53029820  1
  H  1901  1  0.17133000  0.42935300  0.52526720  1
  H  1902  1  0.17578800  0.38862600  0.49052600  1
  H  1903  1  0.29525500  0.37765300  0.53343320  1
  H  1904  1  0.21775400  0.38577200  0.49610400  1
  H  1905  1  0.25311400  0.37342900  0.53961320  1
  H  1915  1  0.92663600  0.89577400  0.07275220  1
  H  1922  1  0.95971700  0.82622400  0.14177820  1
  H  1923  1  0.98184700  0.78966600  0.15971520  1
  H  1924  1  0.04180900  0.82684400  0.11806120  1
  H  1925  1  0.97531500  0.92471510  0.10130390  1
  H  1926  1  0.01948800  0.86326000  0.09979120  1
  H  1927  1  0.99647800  0.88768800  0.12039300  1
  H  1937  1  0.92645600  0.32156300  0.11474800  1
  H  1944  1  0.95964100  0.39057300  0.11519400  1
  H  1945  1  0.98175500  0.40849400  0.13383800  1
  H  1946  1  0.04166600  0.36670500  0.13849300  1
  H  1947  1  0.97526600  0.34986800  0.05736900  1
  H  1948  1  0.01935700  0.34845000  0.12032400  1
  H  1949  1  0.99643500  0.36898700  0.07527000  1
  H  1959  1  0.92680000  0.36358600  0.64713600  1
  H  1966  1  0.95984000  0.36404800  0.57760220  1
  H  1967  1  0.98196300  0.38266200  0.54103920  1
  H  1968  1  0.04194400  0.38712400  0.57820520  1
  H  1969  1  0.97536600  0.30599600  0.67605920  1
  H  1970  1  0.01963100  0.36897600  0.61462920  1
  H  1971  1  0.99655700  0.32393100  0.63904520  1
  H  1981  1  0.42675400  0.82468800  0.15062620  1
  H  1988  1  0.45971300  0.89427700  0.08152720  1
  H  1989  1  0.48183600  0.93084110  0.06359113  1
  H  1990  1  0.54185500  0.89364200  0.10511723  1
  H  1991  1  0.47525000  0.79581100  0.12185420  1
  H  1992  1  0.51954400  0.85721800  0.12338120  1
  H  1993  1  0.49642000  0.83283700  0.10274720  1
  H  2003  1  0.42659900  0.39908600  0.10842200  1
  H  2010  1  0.45956700  0.32999900  0.10790300  1
  H  2011  1  0.48168500  0.31208400  0.08925100  1
  H  2012  1  0.54169000  0.35363700  0.08489600  1
  H  2013  1  0.47512200  0.37031500  0.16605000  1
  H  2014  1  0.51938400  0.37188000  0.10307800  1
  H  2015  1  0.49628300  0.35122200  0.14811200  1
  H  2025  1  0.42672900  0.35688200  0.57621220  1
  H  2032  1  0.45974700  0.35641800  0.64576500  1
  H  2033  1  0.48187700  0.33779400  0.68232300  1
  H  2034  1  0.54186200  0.33333333  0.64518487  1
  H  2035  1  0.47524500  0.41451500  0.54730420  1
  H  2036  1  0.51954200  0.35154800  0.60870920  1
  H  2037  1  0.49643600  0.39659100  0.58431620  1
  C  1  1  0.93642700  0.09088500  0.47688300  1
  C  2  1  0.92937300  0.10236700  0.48967900  1
  C  3  1  0.91643700  0.12389000  0.47835100  1
  C  4  1  0.91095200  0.13509100  0.45364200  1
  C  5  1  0.91736300  0.12312400  0.44109300  1
  C  6  1  0.93018100  0.10155900  0.45243800  1
  C  8  1  0.86649500  0.14700800  0.44725400  1
  C  9  1  0.85478400  0.14012600  0.43218600  1
  C  10  1  0.83142400  0.13110000  0.43715500  1
  C  11  1  0.81930100  0.12794300  0.45775300  1
  C  12  1  0.83186500  0.13261400  0.47397900  1
  C  13  1  0.85518800  0.14162800  0.46901000  1
  C  14  1  0.89771900  0.17826900  0.45068000  1
  C  15  1  0.89890900  0.17637900  0.41167300  1
  C  16  1  0.88072100  0.19080700  0.39582300  1
  C  17  1  0.88582100  0.20796500  0.37193600  1
  C  18  1  0.90941200  0.21190000  0.36316100  1
  C  19  1  0.92771000  0.19792100  0.37905300  1
  C  20  1  0.92258400  0.18068900  0.40293900  1
  C  21  1  0.92051300  0.18204000  0.45759300  1
  C  22  1  0.92445200  0.20046700  0.46288500  1
  C  23  1  0.90593400  0.21631600  0.46053900  1
  C  24  1  0.88325800  0.21281900  0.45333400  1
  C  25  1  0.87931100  0.19435700  0.44819600  1
  C  42  1  0.93629300  0.47744100  0.47703700  1
  C  43  1  0.92933500  0.49020100  0.45272900  1
  C  44  1  0.91638200  0.47887200  0.44254600  1
  C  45  1  0.91074400  0.45420100  0.45610300  1
  C  46  1  0.91707900  0.44169300  0.48064200  1
  C  47  1  0.92993000  0.45303100  0.49084900  1
  C  49  1  0.86629300  0.44777000  0.45063500  1
  C  50  1  0.85451900  0.43258600  0.47251200  1
  C  51  1  0.83116600  0.43755700  0.47658800  1
  C  52  1  0.81910500  0.45826000  0.45924300  1
  C  53  1  0.83171900  0.47456400  0.43842100  1
  C  54  1  0.85504100  0.46960000  0.43436400  1
  C  55  1  0.89747700  0.45125500  0.41589400  1
  C  56  1  0.89873200  0.41223700  0.45675700  1
  C  57  1  0.88059000  0.39639500  0.45805500  1
  C  58  1  0.88570300  0.37250500  0.46481100  1
  C  59  1  0.90928600  0.36372000  0.46976500  1
  C  60  1  0.92755100  0.37959900  0.46795400  1
  C  61  1  0.92239600  0.40347200  0.46132500  1
  C  62  1  0.92029100  0.45803300  0.40522500  1
  C  63  1  0.92420100  0.46334200  0.38149700  1
  C  64  1  0.90561800  0.46118100  0.36794700  1
  C  65  1  0.88291500  0.45412200  0.37862000  1
  C  66  1  0.87900200  0.44896300  0.40223200  1
  C  83  1  0.93650200  0.47763300  0.09033500  1
  C  84  1  0.92936400  0.45338200  0.10174900  1
  C  85  1  0.91638700  0.44319000  0.12324700  1
  C  86  1  0.91091900  0.45666600  0.13448600  1
  C  87  1  0.91744100  0.48115500  0.12258800  1
  C  88  1  0.93030600  0.49137400  0.10105300  1
  C  90  1  0.86645700  0.45110100  0.14637800  1
  C  91  1  0.85476100  0.47307600  0.13941700  1
  C  92  1  0.83140100  0.47711900  0.13039200  1
  C  93  1  0.81926000  0.45964800  0.12729300  1
  C  94  1  0.83181300  0.43871700  0.13205000  1
  C  95  1  0.85513100  0.43467700  0.14107900  1
  C  96  1  0.89769400  0.41644900  0.17766200  1
  C  97  1  0.89883100  0.45732900  0.17577000  1
  C  98  1  0.88061100  0.45887400  0.19009900  1
  C  99  1  0.88566800  0.46564800  0.20723200  1
  C  100  1  0.90926300  0.47035900  0.21129100  1
  C  101  1  0.92759400  0.46833100  0.19741300  1
  C  102  1  0.92249900  0.46168200  0.18017300  1
  C  103  1  0.92046900  0.40573300  0.18137900  1
  C  104  1  0.92441700  0.38201600  0.19980600  1
  C  105  1  0.90592600  0.36853100  0.21570200  1
  C  106  1  0.88326400  0.37925000  0.21225300  1
  C  107  1  0.87931200  0.40284900  0.19379400  1
  C  124  1  0.43645000  0.93976300  0.55278000  1
  C  125  1  0.42928300  0.92834000  0.53996200  1
  C  126  1  0.41633200  0.90682700  0.55129700  1
  C  127  1  0.41092700  0.89558300  0.57602900  1
  C  128  1  0.41747000  0.90748900  0.58860200  1
  C  129  1  0.43030800  0.92904100  0.57725400  1
  C  131  1  0.36646700  0.88367800  0.58238700  1
  C  132  1  0.35480500  0.89068600  0.59738100  1
  C  133  1  0.33143000  0.89967700  0.59242800  1
  C  134  1  0.31926300  0.90273800  0.57188700  1
  C  135  1  0.33178900  0.89794900  0.55572200  1
  C  136  1  0.35511400  0.88894000  0.56068900  1
  C  137  1  0.39768800  0.85239800  0.57900300  1
  C  138  1  0.39887800  0.85430400  0.61798600  1
  C  139  1  0.38067300  0.83998100  0.63388900  1
  C  140  1  0.38577200  0.82281700  0.65777400  1
  C  141  1  0.40937600  0.81877700  0.66652200  1
  C  142  1  0.42768400  0.83267100  0.65058900  1
  C  143  1  0.42255700  0.84991300  0.62670900  1
  C  144  1  0.42043900  0.84868900  0.57195500  1
  C  145  1  0.42436600  0.83021200  0.56673200  1
  C  146  1  0.40586400  0.81430500  0.56919500  1
  C  147  1  0.38322700  0.81775200  0.57651400  1
  C  148  1  0.37930400  0.83623000  0.58163300  1
  C  165  1  0.43631500  0.55311900  0.55265000  1
  C  166  1  0.42915700  0.54030000  0.57689500  1
  C  167  1  0.41620800  0.55163300  0.58707700  1
  C  168  1  0.41080100  0.57636300  0.57359200  1
  C  169  1  0.41733500  0.58893900  0.54910900  1
  C  170  1  0.43016700  0.57759200  0.53890200  1
  C  172  1  0.36634400  0.58273600  0.57913600  1
  C  173  1  0.35469500  0.59773700  0.55712700  1
  C  174  1  0.33132900  0.59278500  0.55306200  1
  C  175  1  0.31913700  0.57227200  0.57055600  1
  C  176  1  0.33164500  0.55609700  0.59151600  1
  C  177  1  0.35496700  0.56105300  0.59557800  1
  C  178  1  0.39757800  0.57932700  0.61381100  1
  C  179  1  0.39876800  0.61832200  0.57292100  1
  C  180  1  0.38055400  0.63419600  0.57139000  1
  C  181  1  0.38563500  0.65808800  0.56465600  1
  C  182  1  0.40923600  0.66685200  0.55993500  1
  C  183  1  0.42755300  0.65093300  0.56195300  1
  C  184  1  0.42243900  0.62705600  0.56856800  1
  C  185  1  0.42033700  0.57229700  0.62454900  1
  C  186  1  0.42427500  0.56706600  0.64825100  1
  C  187  1  0.40577700  0.56950200  0.66171500  1
  C  188  1  0.38313300  0.57681100  0.65096300  1
  C  189  1  0.37919700  0.58193800  0.62736500  1
  C  206  1  0.43641500  0.55299600  0.93939900  1
  C  207  1  0.42925300  0.57723900  0.92798800  1
  C  208  1  0.41631800  0.58743700  0.90646400  1
  C  209  1  0.41091100  0.57395900  0.89521300  1
  C  210  1  0.41741300  0.54946600  0.90712400  1
  C  211  1  0.43024700  0.53925100  0.92867700  1
  C  213  1  0.36645100  0.57952400  0.88329000  1
  C  214  1  0.35478000  0.55752800  0.89029200  1
  C  215  1  0.33141600  0.55348300  0.89930800  1
  C  216  1  0.31925300  0.57097000  0.90236100  1
  C  217  1  0.33178600  0.59191700  0.89758200  1
  C  218  1  0.35510000  0.59596700  0.88854500  1
  C  219  1  0.39770600  0.61417300  0.85202900  1
  C  220  1  0.39887100  0.57327800  0.85393000  1
  C  221  1  0.38065000  0.57172700  0.83960500  1
  C  222  1  0.38572900  0.56499100  0.82244500  1
  C  223  1  0.40933000  0.56027800  0.81839900  1
  C  224  1  0.42765000  0.56229600  0.83229400  1
  C  225  1  0.42254300  0.56893000  0.84954100  1
  C  226  1  0.42046900  0.62490200  0.84833000  1
  C  227  1  0.42441200  0.64861400  0.82989100  1
  C  228  1  0.40593300  0.66206900  0.81395700  1
  C  229  1  0.38328400  0.65132900  0.81738400  1
  C  230  1  0.37933400  0.62773500  0.83585700  1
  C  247  1  0.02689600  0.55479200  0.55255800  1
  C  248  1  0.02764300  0.57989800  0.54265800  1
  C  249  1  0.04098500  0.59021600  0.55361300  1
  C  250  1  0.05358200  0.57571700  0.57513700  1
  C  251  1  0.05313100  0.55058000  0.58475000  1
  C  252  1  0.03983400  0.54028200  0.57377300  1
  C  254  1  0.09828300  0.58115200  0.58105500  1
  C  255  1  0.11349600  0.56376100  0.59864500  1
  C  256  1  0.13640700  0.55971800  0.59267800  1
  C  257  1  0.14484100  0.57253500  0.56882900  1
  C  258  1  0.12913100  0.58883300  0.55099200  1
  C  259  1  0.10615500  0.59278200  0.55693700  1
  C  260  1  0.06703100  0.61632300  0.57701500  1
  C  261  1  0.06649200  0.57555600  0.61674000  1
  C  262  1  0.08262000  0.58084500  0.63034900  1
  C  263  1  0.07850300  0.57280500  0.65467900  1
  C  264  1  0.05763900  0.55993600  0.66611000  1
  C  265  1  0.04093700  0.55548500  0.65245000  1
  C  266  1  0.04533500  0.56310400  0.62817700  1
  C  267  1  0.04399100  0.62490200  0.57774000  1
  C  268  1  0.04024400  0.64888100  0.57160100  1
  C  269  1  0.05957400  0.66489300  0.56532600  1
  C  270  1  0.08259900  0.65643700  0.56470800  1
  C  271  1  0.08628200  0.63257700  0.57053000  1
  C  288  1  0.02703100  0.93802500  0.55422600  1
  C  289  1  0.02774200  0.92283500  0.57933700  1
  C  290  1  0.04109700  0.90156900  0.58969100  1
  C  291  1  0.05375100  0.89454000  0.57522600  1
  C  292  1  0.05334000  0.91005300  0.55008700  1
  C  293  1  0.04002800  0.93131800  0.53975000  1
  C  295  1  0.09845700  0.88318500  0.58072000  1
  C  296  1  0.11369400  0.88295700  0.56336100  1
  C  297  1  0.13659700  0.89298100  0.55931800  1
  C  298  1  0.14498500  0.90409200  0.57207600  1
  C  299  1  0.12925200  0.90565600  0.58834300  1
  C  300  1  0.10629000  0.89572900  0.59230600  1
  C  301  1  0.06718100  0.85209600  0.61588500  1
  C  302  1  0.06669500  0.85306700  0.57514200  1
  C  303  1  0.08281400  0.83414700  0.58049400  1
  C  304  1  0.07872700  0.81784200  0.57246800  1
  C  305  1  0.05789700  0.81928200  0.55955400  1
  C  306  1  0.04120600  0.83742500  0.55502800  1
  C  307  1  0.04557400  0.85409100  0.56263700  1
  C  308  1  0.04413700  0.84277300  0.62442600  1
  C  309  1  0.04036400  0.82494800  0.64840500  1
  C  310  1  0.05967400  0.81523300  0.66445000  1
  C  311  1  0.08270300  0.82431800  0.65602000  1
  C  312  1  0.08640800  0.84237500  0.63217300  1
  C  329  1  0.02714700  0.55312500  0.93750700  1
  C  330  1  0.02784400  0.54321500  0.92230800  1
  C  331  1  0.04119700  0.55413100  0.90104200  1
  C  332  1  0.05382100  0.57564400  0.89399600  1
  C  333  1  0.05341000  0.58527000  0.90950900  1
  C  334  1  0.04012100  0.57432200  0.93079000  1
  C  336  1  0.09850900  0.58153500  0.88259000  1
  C  337  1  0.11371500  0.59911700  0.88241700  1
  C  338  1  0.13661000  0.59313600  0.89246600  1
  C  339  1  0.14501700  0.56927600  0.90355100  1
  C  340  1  0.12931600  0.55145000  0.90505200  1
  C  341  1  0.10636800  0.55741300  0.89508600  1
  C  342  1  0.06719000  0.57747000  0.85152100  1
  C  343  1  0.06672000  0.61722400  0.85251700  1
  C  344  1  0.08284400  0.63082000  0.83361100  1
  C  345  1  0.07873600  0.65515200  0.81732600  1
  C  346  1  0.05790200  0.66660300  0.81879400  1
  C  347  1  0.04121500  0.65296200  0.83693200  1
  C  348  1  0.04559100  0.62867900  0.85356700  1
  C  349  1  0.04412100  0.57821500  0.84225800  1
  C  350  1  0.04030400  0.57204600  0.82445100  1
  C  351  1  0.05960100  0.56578600  0.81466000  1
  C  352  1  0.08265400  0.56516500  0.82368100  1
  C  353  1  0.08640100  0.57098400  0.84171300  1
  C  370  1  0.52687500  0.47582100  0.47706700  1
  C  371  1  0.52756100  0.45071800  0.48693500  1
  C  372  1  0.54091600  0.44039300  0.47599500  1
  C  373  1  0.55359800  0.45487800  0.45452400  1
  C  374  1  0.55317700  0.48001300  0.44493100  1
  C  375  1  0.53987000  0.49032000  0.45589100  1
  C  377  1  0.59829700  0.44944100  0.44857900  1
  C  378  1  0.61352100  0.46679800  0.43096800  1
  C  379  1  0.63643200  0.47085400  0.43692200  1
  C  380  1  0.64484400  0.45811300  0.46078300  1
  C  381  1  0.62912600  0.44185400  0.47863800  1
  C  382  1  0.60616000  0.43786600  0.47270000  1
  C  383  1  0.56704700  0.41425300  0.45268200  1
  C  384  1  0.56648000  0.45500300  0.41292800  1
  C  385  1  0.58257600  0.44968600  0.39931600  1
  C  386  1  0.57845500  0.45774600  0.37498400  1
  C  387  1  0.55763600  0.47070100  0.36354100  1
  C  388  1  0.54097100  0.47520800  0.37719200  1
  C  389  1  0.54536600  0.46754600  0.40147600  1
  C  390  1  0.54400900  0.40568000  0.45192800  1
  C  391  1  0.54025100  0.38168700  0.45811800  1
  C  392  1  0.55957600  0.36566400  0.46443600  1
  C  393  1  0.58259700  0.37411100  0.46508000  1
  C  394  1  0.58628400  0.39797800  0.45923300  1
  C  411  1  0.52704000  0.09262200  0.47541400  1
  C  412  1  0.52771400  0.10785000  0.45030900  1
  C  413  1  0.54107600  0.12911000  0.43997000  1
  C  414  1  0.55377600  0.13609900  0.45444200  1
  C  415  1  0.55336700  0.12056500  0.47957900  1
  C  416  1  0.54005200  0.09930300  0.48990000  1
  C  418  1  0.59847900  0.14746200  0.44896800  1
  C  419  1  0.61372200  0.14770800  0.46631400  1
  C  420  1  0.63663100  0.13769800  0.47034700  1
  C  421  1  0.64502000  0.12658000  0.45759600  1
  C  422  1  0.62928100  0.12499200  0.44134700  1
  C  423  1  0.60631900  0.13491900  0.43738300  1
  C  424  1  0.56720900  0.17855900  0.41380400  1
  C  425  1  0.56670200  0.17756700  0.45455000  1
  C  426  1  0.58281200  0.19648800  0.44922300  1
  C  427  1  0.57872000  0.21276300  0.45728400  1
  C  428  1  0.55788800  0.21129700  0.47020300  1
  C  429  1  0.54121500  0.19314000  0.47473300  1
  C  430  1  0.54559300  0.17649900  0.46709300  1
  C  431  1  0.54416900  0.18789100  0.40525400  1
  C  432  1  0.54039100  0.20568700  0.38126300  1
  C  433  1  0.55970000  0.21538300  0.36521800  1
  C  434  1  0.58272500  0.20628500  0.37364100  1
  C  435  1  0.58643100  0.18827300  0.39750800  1
  C  452  1  0.52706500  0.47749000  0.09222500  1
  C  453  1  0.52776600  0.48737600  0.10744300  1
  C  454  1  0.54111900  0.47644200  0.12871000  1
  C  455  1  0.55378200  0.45495800  0.13571100  1
  C  456  1  0.55334900  0.44534400  0.12018800  1
  C  457  1  0.54004300  0.45629900  0.09891900  1
  C  459  1  0.59846800  0.44903600  0.14711100  1
  C  460  1  0.61366200  0.43144500  0.14728800  1
  C  461  1  0.63656500  0.43740400  0.13726100  1
  C  462  1  0.64499200  0.46125900  0.12617500  1
  C  463  1  0.62930700  0.47909400  0.12467800  1
  C  464  1  0.60634900  0.47315100  0.13462100  1
  C  465  1  0.56716700  0.45309800  0.17820300  1
  C  466  1  0.56667000  0.41336500  0.17718200  1
  C  467  1  0.58278900  0.39975300  0.19608600  1
  C  468  1  0.57868400  0.37541600  0.21235300  1
  C  469  1  0.55786200  0.36396500  0.21086400  1
  C  470  1  0.54117400  0.37762000  0.19273300  1
  C  471  1  0.54555800  0.40190300  0.17610200  1
  C  472  1  0.54411000  0.45236200  0.18748400  1
  C  473  1  0.54032200  0.45852500  0.20530000  1
  C  474  1  0.55962400  0.46484600  0.21503000  1
  C  475  1  0.58266400  0.46546700  0.20598600  1
  C  476  1  0.58638900  0.45961700  0.18797300  1
  C  493  1  0.91023400  0.34541800  0.23574200  1
  C  494  1  0.92092100  0.32704700  0.23308500  1
  C  495  1  0.92400500  0.30397700  0.25297700  1
  C  496  1  0.91702400  0.29890200  0.27609700  1
  C  497  1  0.90653400  0.31723100  0.27914600  1
  C  498  1  0.90336000  0.34023900  0.25893600  1
  C  500  1  0.91898700  0.27528400  0.29577600  1
  C  501  1  0.93377600  0.27050400  0.31538000  1
  C  502  1  0.93167300  0.24883000  0.33715400  1
  C  503  1  0.91460300  0.23147600  0.33994500  1
  C  504  1  0.90074000  0.23584500  0.31982900  1
  C  505  1  0.90289600  0.25747400  0.29799400  1
  C  515  1  0.91023000  0.23635000  0.46362500  1
  C  516  1  0.92096000  0.23368500  0.48463800  1
  C  517  1  0.92403500  0.25356700  0.48783600  1
  C  518  1  0.91700000  0.27668200  0.46982600  1
  C  519  1  0.90647100  0.27973900  0.44846100  1
  C  520  1  0.90330400  0.25953800  0.44564500  1
  C  522  1  0.91896700  0.29635200  0.47377700  1
  C  523  1  0.93378300  0.31594400  0.45900100  1
  C  524  1  0.93165300  0.33771200  0.45890900  1
  C  525  1  0.91452000  0.34050900  0.47341700  1
  C  526  1  0.90063500  0.32039300  0.48912900  1
  C  527  1  0.90282600  0.29855500  0.48934300  1
  C  537  1  0.90987900  0.46425200  0.34482900  1
  C  538  1  0.92072800  0.48519300  0.32650200  1
  C  539  1  0.92383800  0.48834600  0.30344400  1
  C  540  1  0.91667700  0.47037400  0.29833200  1
  C  541  1  0.90599700  0.44909000  0.31661300  1
  C  542  1  0.90281400  0.44631300  0.33961200  1
  C  544  1  0.91871300  0.47427200  0.27473500  1
  C  545  1  0.93341500  0.45933800  0.27003800  1
  C  546  1  0.93135300  0.45925200  0.24835600  1
  C  547  1  0.91440900  0.47393700  0.23091400  1
  C  548  1  0.90061000  0.48976500  0.23521900  1
  C  549  1  0.90272900  0.48996300  0.25685900  1
  C  559  1  0.41023500  0.68517900  0.79391200  1
  C  560  1  0.42086400  0.70357400  0.79656700  1
  C  561  1  0.42394800  0.72664100  0.77666700  1
  C  562  1  0.41699500  0.73169600  0.75354600  1
  C  563  1  0.40655400  0.71334400  0.75050000  1
  C  564  1  0.40339700  0.69033600  0.77071500  1
  C  566  1  0.41894700  0.75531500  0.73385700  1
  C  567  1  0.43367800  0.76008300  0.71421900  1
  C  568  1  0.43159000  0.78177800  0.69246600  1
  C  569  1  0.41455900  0.79914800  0.68971200  1
  C  570  1  0.40073800  0.79477800  0.70985300  1
  C  571  1  0.40293600  0.77316200  0.73169900  1
  C  581  1  0.41013900  0.79425400  0.56613000  1
  C  582  1  0.42077100  0.79689900  0.54508500  1
  C  583  1  0.42382700  0.77699700  0.54191600  1
  C  584  1  0.41684800  0.75388200  0.55997700  1
  C  585  1  0.40640100  0.75084900  0.58136600  1
  C  586  1  0.40326900  0.77106700  0.58416100  1
  C  588  1  0.41879000  0.73419400  0.55604900  1
  C  589  1  0.43354800  0.71457000  0.57089300  1
  C  590  1  0.43144600  0.69280900  0.57097100  1
  C  591  1  0.41440600  0.69004800  0.55636500  1
  C  592  1  0.40057800  0.71018100  0.54059500  1
  C  593  1  0.40273200  0.73200600  0.54041300  1
  C  603  1  0.41006600  0.56643600  0.68482900  1
  C  604  1  0.42075200  0.54541200  0.70320800  1
  C  605  1  0.42383000  0.54224300  0.72627500  1
  C  606  1  0.41684300  0.56029100  0.73134400  1
  C  607  1  0.40635500  0.58166600  0.71300700  1
  C  608  1  0.40318700  0.58445500  0.69000000  1
  C  610  1  0.41883800  0.55637800  0.75495200  1
  C  611  1  0.43360700  0.57122800  0.75971000  1
  C  612  1  0.43152200  0.57131000  0.78139300  1
  C  613  1  0.41448800  0.55670900  0.79877100  1
  C  614  1  0.40066700  0.54091400  0.79443300  1
  C  615  1  0.40280700  0.54071900  0.77279500  1
  C  625  1  0.05633500  0.56228400  0.79477600  1
  C  626  1  0.03987200  0.54540700  0.79543300  1
  C  627  1  0.03740200  0.54180600  0.77573600  1
  C  628  1  0.05120600  0.55519400  0.75489800  1
  C  629  1  0.06725200  0.57278900  0.75362300  1
  C  630  1  0.06965600  0.57602900  0.77363400  1
  C  632  1  0.04933200  0.55093800  0.73545300  1
  C  633  1  0.03140100  0.56239600  0.71804400  1
  C  634  1  0.03315800  0.56369300  0.69564600  1
  C  635  1  0.05302400  0.55384800  0.69014600  1
  C  636  1  0.07025700  0.54127900  0.70812500  1
  C  637  1  0.06844300  0.53983100  0.73054200  1
  C  647  1  0.05638500  0.68829300  0.56181400  1
  C  648  1  0.03990900  0.70453700  0.54497700  1
  C  649  1  0.03752400  0.72784800  0.54136300  1
  C  650  1  0.05142300  0.73528600  0.55470600  1
  C  651  1  0.06747600  0.71893900  0.57226800  1
  C  652  1  0.06979500  0.69567700  0.57551800  1
  C  654  1  0.04962300  0.75899300  0.55044800  1
  C  655  1  0.03162300  0.76499500  0.56180800  1
  C  656  1  0.03336400  0.78609000  0.56311900  1
  C  657  1  0.05331000  0.80135000  0.55343300  1
  C  658  1  0.07061900  0.79589000  0.54097100  1
  C  659  1  0.06877200  0.77497900  0.53942300  1
  C  669  1  0.05646700  0.79533900  0.68784200  1
  C  670  1  0.03993800  0.79591400  0.70405600  1
  C  671  1  0.03754700  0.77622200  0.72737000  1
  C  672  1  0.05147500  0.75545600  0.73483200  1
  C  673  1  0.06757400  0.75425300  0.71851100  1
  C  674  1  0.06990900  0.77426700  0.69525200  1
  C  676  1  0.04965200  0.73600600  0.75853700  1
  C  677  1  0.03165000  0.71864900  0.76452300  1
  C  678  1  0.03339500  0.69623100  0.78560500  1
  C  679  1  0.05331900  0.69066700  0.80089600  1
  C  680  1  0.07059500  0.70860400  0.79548600  1
  C  681  1  0.06879000  0.73103300  0.77453800  1
  C  691  1  0.55638700  0.46840800  0.23488100  1
  C  692  1  0.53988100  0.48525400  0.23422300  1
  C  693  1  0.53742100  0.48889800  0.25389500  1
  C  694  1  0.55128500  0.47559200  0.27470700  1
  C  695  1  0.56737300  0.45802500  0.27598600  1
  C  696  1  0.56976700  0.45474300  0.25600000  1
  C  698  1  0.54938700  0.47986900  0.29414000  1
  C  699  1  0.53136900  0.46851500  0.31147400  1
  C  700  1  0.53310300  0.46718100  0.33389200  1
  C  701  1  0.55303100  0.47688600  0.33947400  1
  C  702  1  0.57030900  0.48942600  0.32153900  1
  C  703  1  0.56851800  0.49091200  0.29910400  1
  C  713  1  0.55638200  0.34226200  0.46795500  1
  C  714  1  0.53989700  0.32602900  0.48478700  1
  C  715  1  0.53749400  0.30272000  0.48839600  1
  C  716  1  0.55139500  0.29527200  0.47506400  1
  C  717  1  0.56746000  0.31161000  0.45750800  1
  C  718  1  0.56979300  0.33486900  0.45426000  1
  C  720  1  0.54956100  0.27157300  0.47930500  1
  C  721  1  0.53159800  0.26558900  0.46790200  1
  C  722  1  0.53337000  0.24450600  0.46657400  1
  C  723  1  0.55328900  0.22922100  0.47633400  1
  C  724  1  0.57055300  0.23464500  0.48886200  1
  C  725  1  0.56871900  0.25559700  0.49033900  1
  C  735  1  0.55649400  0.23525000  0.34181000  1
  C  736  1  0.53995000  0.23465800  0.32561600  1
  C  737  1  0.53753300  0.25434200  0.30230200  1
  C  738  1  0.55146800  0.27510800  0.29480900  1
  C  739  1  0.56759300  0.27632400  0.31110300  1
  C  740  1  0.56994500  0.25632400  0.33436900  1
  C  742  1  0.54961600  0.29455300  0.27110400  1
  C  743  1  0.53163600  0.31192400  0.26515500  1
  C  744  1  0.53335600  0.33433700  0.24406700  1
  C  745  1  0.55326600  0.33990200  0.22876800  1
  C  746  1  0.57054800  0.32197400  0.23416300  1
  C  747  1  0.56871900  0.29950900  0.25506700  1
  C  757  1  0.79454600  0.12247000  0.46092600  1
  C  758  1  0.78458100  0.10426100  0.45751100  1
  C  759  1  0.75983500  0.10055100  0.45878600  1
  C  760  1  0.74444000  0.11495700  0.46356600  1
  C  761  1  0.75405100  0.13340900  0.46692900  1
  C  762  1  0.77895900  0.13679200  0.46571600  1
  C  764  1  0.71949200  0.11258600  0.46263600  1
  C  765  1  0.70566400  0.10401800  0.48361900  1
  C  766  1  0.68084700  0.10720200  0.48209300  1
  C  767  1  0.66926000  0.11925600  0.45959200  1
  C  768  1  0.68315900  0.12672000  0.43871600  1
  C  769  1  0.70796200  0.12352500  0.44019000  1
  C  779  1  0.79435600  0.46145600  0.46154000  1
  C  780  1  0.78438500  0.45792700  0.48320200  1
  C  781  1  0.75964300  0.45923400  0.48562600  1
  C  782  1  0.74425500  0.46415300  0.46639500  1
  C  783  1  0.75387900  0.46763400  0.44453600  1
  C  784  1  0.77878700  0.46641300  0.44236900  1
  C  786  1  0.71930100  0.46324300  0.46968000  1
  C  787  1  0.70546100  0.48421500  0.45726900  1
  C  788  1  0.68064600  0.48266600  0.45562800  1
  C  789  1  0.66907800  0.46015500  0.46609500  1
  C  790  1  0.68299000  0.43929000  0.47952200  1
  C  791  1  0.70779600  0.44078300  0.48122300  1
  C  801  1  0.79450300  0.46195100  0.12181800  1
  C  802  1  0.78452800  0.48358900  0.10364300  1
  C  803  1  0.75978000  0.48603100  0.09995300  1
  C  804  1  0.74438500  0.46684300  0.11435500  1
  C  805  1  0.75400500  0.44501100  0.13277500  1
  C  806  1  0.77891500  0.44284100  0.13614000  1
  C  808  1  0.71943300  0.47015000  0.11202300  1
  C  809  1  0.70554800  0.45776000  0.10347200  1
  C  810  1  0.68073800  0.45612900  0.10670400  1
  C  811  1  0.66922600  0.46655800  0.11881000  1
  C  812  1  0.68318200  0.47993200  0.12627800  1
  C  813  1  0.70798100  0.48163000  0.12303200  1
  C  823  1  0.29450300  0.90820200  0.56873300  1
  C  824  1  0.28454900  0.92644100  0.57210600  1
  C  825  1  0.25980500  0.93016000  0.57083000  1
  C  826  1  0.24440100  0.91572200  0.56610500  1
  C  827  1  0.25400000  0.89723300  0.56279100  1
  C  828  1  0.27890600  0.89384600  0.56400100  1
  C  830  1  0.21945200  0.91810200  0.56702700  1
  C  831  1  0.20562800  0.92664500  0.54604300  1
  C  832  1  0.18080900  0.92348300  0.54756400  1
  C  833  1  0.16921900  0.91144000  0.57006000  1
  C  834  1  0.18312300  0.90395200  0.59093900  1
  C  835  1  0.20792000  0.90720700  0.58947200  1
  C  845  1  0.29437500  0.56914500  0.56822400  1
  C  846  1  0.28443900  0.57250600  0.54661000  1
  C  847  1  0.25969400  0.57125800  0.54414400  1
  C  848  1  0.24427500  0.56656000  0.56328800  1
  C  849  1  0.25385700  0.56324700  0.58509400  1
  C  850  1  0.27876300  0.56443200  0.58729600  1
  C  852  1  0.21933100  0.56750500  0.55995500  1
  C  853  1  0.20549500  0.54652100  0.57231100  1
  C  854  1  0.18067400  0.54804800  0.57394200  1
  C  855  1  0.16909200  0.57054900  0.56352700  1
  C  856  1  0.18300200  0.59143000  0.55017900  1
  C  857  1  0.20781000  0.58995600  0.54848600  1
  C  867  1  0.29449800  0.56864400  0.90785700  1
  C  868  1  0.28455400  0.54700200  0.92606000  1
  C  869  1  0.25981000  0.54453300  0.92978000  1
  C  870  1  0.24439000  0.56369800  0.91538700  1
  C  871  1  0.25397800  0.58553700  0.89694800  1
  C  872  1  0.27888600  0.58774300  0.89356500  1
  C  874  1  0.21944300  0.56036200  0.91774800  1
  C  875  1  0.20555300  0.57272300  0.92632900  1
  C  876  1  0.18074500  0.57436200  0.92308300  1
  C  877  1  0.16923300  0.56394200  0.91096500  1
  C  878  1  0.18319600  0.55056200  0.90350800  1
  C  879  1  0.20799500  0.54886600  0.90675500  1
  C  889  1  0.94889400  0.06877100  0.48846000  1
  C  890  1  0.96920100  0.06591800  0.50253700  1
  C  891  1  0.98178100  0.04421200  0.51357100  1
  C  892  1  0.97422200  0.02469400  0.51104000  1
  C  893  1  0.95380300  0.02717800  0.49703600  1
  C  894  1  0.94141800  0.04922300  0.48591900  1
  C  896  1  0.98752900  0.00317100  0.52225900  1
  C  897  1  0.97699700  0.98158800  0.53983600  1
  C  898  1  0.99009100  0.96016000  0.55052100  1
  C  899  1  0.01395900  0.95977500  0.54378500  1
  C  900  1  0.02448200  0.98148600  0.52631400  1
  C  901  1  0.01147300  0.00296000  0.51575400  1
  C  911  1  0.94877700  0.48902500  0.48756000  1
  C  912  1  0.96912300  0.50304400  0.47635700  1
  C  913  1  0.98170900  0.51409000  0.48701400  1
  C  914  1  0.97411600  0.51163900  0.50901900  1
  C  915  1  0.95366100  0.49769300  0.52051900  1
  C  916  1  0.94126900  0.48656100  0.50960900  1
  C  918  1  0.98742700  0.52287300  0.51930800  1
  C  919  1  0.97691000  0.54048800  0.52326300  1
  C  920  1  0.98999900  0.55117100  0.53401200  1
  C  921  1  0.01384400  0.54438300  0.54120300  1
  C  922  1  0.02435800  0.52688400  0.53699800  1
  C  923  1  0.01135500  0.51633400  0.52607100  1
  C  933  1  0.94899900  0.48817400  0.06823800  1
  C  934  1  0.96927300  0.47691300  0.06538200  1
  C  935  1  0.98187700  0.48758900  0.04369000  1
  C  936  1  0.97435500  0.50966000  0.02418300  1
  C  937  1  0.95396400  0.52121400  0.02666500  1
  C  938  1  0.94156500  0.51029100  0.04870200  1
  C  940  1  0.98766400  0.51995100  0.00266200  1
  C  941  1  0.97712500  0.52395500  0.98108300  1
  C  942  1  0.99021900  0.53468100  0.95965400  1
  C  943  1  0.01408500  0.54180800  0.95926300  1
  C  944  1  0.02461800  0.53756400  0.98097100  1
  C  945  1  0.01160800  0.52666200  0.00244600  1
  C  955  1  0.44892500  0.96187200  0.54119700  1
  C  956  1  0.46917800  0.96474200  0.52705000  1
  C  957  1  0.48176000  0.98644600  0.51600600  1
  C  958  1  0.47425200  0.00594500  0.51859200  1
  C  959  1  0.45388500  0.00344500  0.53266400  1
  C  960  1  0.44150100  0.98139900  0.54379700  1
  C  962  1  0.48755700  0.02746800  0.50735900  1
  C  963  1  0.47700600  0.04905600  0.48982000  1
  C  964  1  0.49010100  0.07048500  0.47912500  1
  C  965  1  0.51397700  0.07086800  0.48583800  1
  C  966  1  0.52452000  0.04914900  0.50327100  1
  C  967  1  0.51151600  0.02767200  0.51382700  1
  C  977  1  0.44878300  0.54153700  0.54211800  1
  C  978  1  0.46904000  0.52739500  0.55338400  1
  C  979  1  0.48161900  0.51635700  0.54271500  1
  C  980  1  0.47410100  0.51894700  0.52063000  1
  C  981  1  0.45372900  0.53301400  0.50907000  1
  C  982  1  0.44134700  0.54413700  0.51999500  1
  C  984  1  0.48740400  0.50772500  0.51032600  1
  C  985  1  0.47685400  0.49018700  0.50627500  1
  C  986  1  0.48994100  0.47951700  0.49551200  1
  C  987  1  0.51381700  0.48623300  0.48841400  1
  C  988  1  0.52435800  0.50366500  0.49270200  1
  C  989  1  0.51135700  0.51420700  0.50363800  1
  C  999  1  0.44890400  0.54246100  0.96150200  1
  C  1000  1  0.46917000  0.55373300  0.96436000  1
  C  1001  1  0.48176800  0.54306800  0.98605400  1
  C  1002  1  0.47426100  0.52098800  0.00555600  1
  C  1003  1  0.45388300  0.50942000  0.00307000  1
  C  1004  1  0.44148400  0.52033600  0.98103300  1
  C  1006  1  0.48757500  0.51069900  0.02707600  1
  C  1007  1  0.47703600  0.50667200  0.04866200  1
  C  1008  1  0.49013300  0.49593700  0.07008900  1
  C  1009  1  0.51400200  0.48882400  0.07047000  1
  C  1010  1  0.52453600  0.49309300  0.04875400  1
  C  1011  1  0.51152600  0.50401300  0.02727900  1
  C  1021  1  0.93642700  0.93581110  0.07368990  1
  C  1022  1  0.92937300  0.94729310  0.08648590  1
  C  1023  1  0.91643700  0.96881610  0.07515790  1
  C  1024  1  0.91095200  0.98001710  0.05044890  1
  C  1025  1  0.91736300  0.96805010  0.03789990  1
  C  1026  1  0.93018100  0.94648510  0.04924513  1
  C  1028  1  0.86649500  0.99193414  0.04406086  1
  C  1029  1  0.85478400  0.98505210  0.02899290  1
  C  1030  1  0.83142400  0.97602610  0.03396190  1
  C  1031  1  0.81930100  0.97286910  0.05455990  1
  C  1032  1  0.83186500  0.97754010  0.07078590  1
  C  1033  1  0.85518800  0.98655410  0.06581690  1
  C  1034  1  0.89771900  0.02319500  0.04748700  1
  C  1035  1  0.89890900  0.02130500  0.00848000  1
  C  1036  1  0.88072100  0.03573300  0.99263000  1
  C  1037  1  0.88582100  0.05289100  0.96874300  1
  C  1038  1  0.90941200  0.05682600  0.95996800  1
  C  1039  1  0.92771000  0.04284700  0.97586000  1
  C  1040  1  0.92258400  0.02561500  0.99974600  1
  C  1041  1  0.92051300  0.02696600  0.05440000  1
  C  1042  1  0.92445200  0.04539300  0.05969200  1
  C  1043  1  0.90593400  0.06124200  0.05734600  1
  C  1044  1  0.88325800  0.05774500  0.05014100  1
  C  1045  1  0.87931100  0.03928300  0.04500300  1
  C  1062  1  0.93629300  0.32236700  0.07384400  1
  C  1063  1  0.92933500  0.33512700  0.04953600  1
  C  1064  1  0.91638200  0.32379800  0.03935300  1
  C  1065  1  0.91074400  0.29912700  0.05291000  1
  C  1066  1  0.91707900  0.28661900  0.07744900  1
  C  1067  1  0.92993000  0.29795700  0.08765600  1
  C  1069  1  0.86629300  0.29269600  0.04744200  1
  C  1070  1  0.85451900  0.27751200  0.06931900  1
  C  1071  1  0.83116600  0.28248300  0.07339500  1
  C  1072  1  0.81910500  0.30318600  0.05605000  1
  C  1073  1  0.83171900  0.31949000  0.03522800  1
  C  1074  1  0.85504100  0.31452600  0.03117100  1
  C  1075  1  0.89747700  0.29618100  0.01270100  1
  C  1076  1  0.89873200  0.25716300  0.05356400  1
  C  1077  1  0.88059000  0.24132100  0.05486200  1
  C  1078  1  0.88570300  0.21743100  0.06161800  1
  C  1079  1  0.90928600  0.20864600  0.06657200  1
  C  1080  1  0.92755100  0.22452500  0.06476100  1
  C  1081  1  0.92239600  0.24839800  0.05813200  1
  C  1082  1  0.92029100  0.30295900  0.00203200  1
  C  1083  1  0.92420100  0.30826800  0.97830400  1
  C  1084  1  0.90561800  0.30610700  0.96475400  1
  C  1085  1  0.88291500  0.29904800  0.97542700  1
  C  1086  1  0.87900200  0.29388900  0.99903900  1
  C  1103  1  0.93650200  0.32255900  0.68714200  1
  C  1104  1  0.92936400  0.29830800  0.69855623  1
  C  1105  1  0.91638700  0.28811600  0.72005400  1
  C  1106  1  0.91091900  0.30159200  0.73129300  1
  C  1107  1  0.91744100  0.32608100  0.71939500  1
  C  1108  1  0.93030600  0.33630000  0.69786000  1
  C  1110  1  0.86645700  0.29602700  0.74318500  1
  C  1111  1  0.85476100  0.31800200  0.73622400  1
  C  1112  1  0.83140100  0.32204500  0.72719900  1
  C  1113  1  0.81926000  0.30457400  0.72410000  1
  C  1114  1  0.83181300  0.28364300  0.72885700  1
  C  1115  1  0.85513100  0.27960300  0.73788600  1
  C  1116  1  0.89769400  0.26137500  0.77446900  1
  C  1117  1  0.89883100  0.30225500  0.77257700  1
  C  1118  1  0.88061100  0.30380000  0.78690600  1
  C  1119  1  0.88566800  0.31057400  0.80403900  1
  C  1120  1  0.90926300  0.31528500  0.80809800  1
  C  1121  1  0.92759400  0.31325700  0.79422000  1
  C  1122  1  0.92249900  0.30660800  0.77698000  1
  C  1123  1  0.92046900  0.25065900  0.77818600  1
  C  1124  1  0.92441700  0.22694200  0.79661300  1
  C  1125  1  0.90592600  0.21345700  0.81250900  1
  C  1126  1  0.88326400  0.22417600  0.80906000  1
  C  1127  1  0.87931200  0.24777500  0.79060100  1
  C  1144  1  0.43645000  0.78468900  0.14958720  1
  C  1145  1  0.42928300  0.77326600  0.13676920  1
  C  1146  1  0.41633200  0.75175300  0.14810400  1
  C  1147  1  0.41092700  0.74050900  0.17283620  1
  C  1148  1  0.41747000  0.75241500  0.18540920  1
  C  1149  1  0.43030800  0.77396700  0.17406120  1
  C  1151  1  0.36646700  0.72860400  0.17919420  1
  C  1152  1  0.35480500  0.73561200  0.19418820  1
  C  1153  1  0.33143000  0.74460300  0.18923520  1
  C  1154  1  0.31926300  0.74766400  0.16869420  1
  C  1155  1  0.33178900  0.74287500  0.15252900  1
  C  1156  1  0.35511400  0.73386600  0.15749600  1
  C  1157  1  0.39768800  0.69732400  0.17581000  1
  C  1158  1  0.39887800  0.69923000  0.21479320  1
  C  1159  1  0.38067300  0.68490700  0.23069620  1
  C  1160  1  0.38577200  0.66774300  0.25458120  1
  C  1161  1  0.40937600  0.66370300  0.26332920  1
  C  1162  1  0.42768400  0.67759700  0.24739620  1
  C  1163  1  0.42255700  0.69483900  0.22351620  1
  C  1164  1  0.42043900  0.69361500  0.16876200  1
  C  1165  1  0.42436600  0.67513800  0.16353900  1
  C  1166  1  0.40586400  0.65923100  0.16600200  1
  C  1167  1  0.38322700  0.66267800  0.17332100  1
  C  1168  1  0.37930400  0.68115600  0.17844000  1
  C  1185  1  0.43631500  0.39804500  0.14945700  1
  C  1186  1  0.42915700  0.38522600  0.17370200  1
  C  1187  1  0.41620800  0.39655900  0.18388400  1
  C  1188  1  0.41080100  0.42128900  0.17039900  1
  C  1189  1  0.41733500  0.43386500  0.14591600  1
  C  1190  1  0.43016700  0.42251800  0.13570900  1
  C  1192  1  0.36634400  0.42766200  0.17594300  1
  C  1193  1  0.35469500  0.44266300  0.15393400  1
  C  1194  1  0.33132900  0.43771100  0.14986900  1
  C  1195  1  0.31913700  0.41719800  0.16736300  1
  C  1196  1  0.33164500  0.40102300  0.18832300  1
  C  1197  1  0.35496700  0.40597900  0.19238500  1
  C  1198  1  0.39757800  0.42425300  0.21061800  1
  C  1199  1  0.39876800  0.46324800  0.16972800  1
  C  1200  1  0.38055400  0.47912200  0.16819700  1
  C  1201  1  0.38563500  0.50301400  0.16146300  1
  C  1202  1  0.40923600  0.51177800  0.15674200  1
  C  1203  1  0.42755300  0.49585900  0.15876000  1
  C  1204  1  0.42243900  0.47198200  0.16537500  1
  C  1205  1  0.42033700  0.41722300  0.22135600  1
  C  1206  1  0.42427500  0.41199200  0.24505800  1
  C  1207  1  0.40577700  0.41442800  0.25852200  1
  C  1208  1  0.38313300  0.42173700  0.24777000  1
  C  1209  1  0.37919700  0.42686400  0.22417200  1
  C  1226  1  0.43641500  0.39792200  0.53620620  1
  C  1227  1  0.42925300  0.42216500  0.52479520  1
  C  1228  1  0.41631800  0.43236300  0.50327120  1
  C  1229  1  0.41091100  0.41888500  0.49202020  1
  C  1230  1  0.41741300  0.39439200  0.50393100  1
  C  1231  1  0.43024700  0.38417700  0.52548420  1
  C  1233  1  0.36645100  0.42445000  0.48009720  1
  C  1234  1  0.35478000  0.40245400  0.48709900  1
  C  1235  1  0.33141600  0.39840900  0.49611500  1
  C  1236  1  0.31925300  0.41589600  0.49916820  1
  C  1237  1  0.33178600  0.43684300  0.49438920  1
  C  1238  1  0.35510000  0.44089300  0.48535220  1
  C  1239  1  0.39770600  0.45909900  0.44883620  1
  C  1240  1  0.39887100  0.41820400  0.45073700  1
  C  1241  1  0.38065000  0.41665300  0.43641200  1
  C  1242  1  0.38572900  0.40991700  0.41925200  1
  C  1243  1  0.40933000  0.40520400  0.41520600  1
  C  1244  1  0.42765000  0.40722200  0.42910100  1
  C  1245  1  0.42254300  0.41385600  0.44634800  1
  C  1246  1  0.42046900  0.46982800  0.44513720  1
  C  1247  1  0.42441200  0.49354000  0.42669820  1
  C  1248  1  0.40593300  0.50699500  0.41076420  1
  C  1249  1  0.38328400  0.49625500  0.41419120  1
  C  1250  1  0.37933400  0.47266100  0.43266420  1
  C  1267  1  0.02689600  0.39971800  0.14936500  1
  C  1268  1  0.02764300  0.42482400  0.13946500  1
  C  1269  1  0.04098500  0.43514200  0.15042000  1
  C  1270  1  0.05358200  0.42064300  0.17194400  1
  C  1271  1  0.05313100  0.39550600  0.18155700  1
  C  1272  1  0.03983400  0.38520800  0.17058000  1
  C  1274  1  0.09828300  0.42607800  0.17786200  1
  C  1275  1  0.11349600  0.40868700  0.19545200  1
  C  1276  1  0.13640700  0.40464400  0.18948500  1
  C  1277  1  0.14484100  0.41746100  0.16563600  1
  C  1278  1  0.12913100  0.43375900  0.14779900  1
  C  1279  1  0.10615500  0.43770800  0.15374400  1
  C  1280  1  0.06703100  0.46124900  0.17382200  1
  C  1281  1  0.06649200  0.42048200  0.21354700  1
  C  1282  1  0.08262000  0.42577100  0.22715600  1
  C  1283  1  0.07850300  0.41773100  0.25148600  1
  C  1284  1  0.05763900  0.40486200  0.26291700  1
  C  1285  1  0.04093700  0.40041100  0.24925700  1
  C  1286  1  0.04533500  0.40803000  0.22498400  1
  C  1287  1  0.04399100  0.46982800  0.17454700  1
  C  1288  1  0.04024400  0.49380700  0.16840800  1
  C  1289  1  0.05957400  0.50981900  0.16213300  1
  C  1290  1  0.08259900  0.50136300  0.16151500  1
  C  1291  1  0.08628200  0.47750300  0.16733700  1
  C  1308  1  0.02703100  0.78295100  0.15103320  1
  C  1309  1  0.02774200  0.76776100  0.17614420  1
  C  1310  1  0.04109700  0.74649500  0.18649820  1
  C  1311  1  0.05375100  0.73946600  0.17203320  1
  C  1312  1  0.05334000  0.75497900  0.14689420  1
  C  1313  1  0.04002800  0.77624400  0.13655720  1
  C  1315  1  0.09845700  0.72811100  0.17752720  1
  C  1316  1  0.11369400  0.72788300  0.16016800  1
  C  1317  1  0.13659700  0.73790700  0.15612500  1
  C  1318  1  0.14498500  0.74901800  0.16888320  1
  C  1319  1  0.12925200  0.75058200  0.18515020  1
  C  1320  1  0.10629000  0.74065500  0.18911320  1
  C  1321  1  0.06718100  0.69702200  0.21269220  1
  C  1322  1  0.06669500  0.69799300  0.17194900  1
  C  1323  1  0.08281400  0.67907300  0.17730100  1
  C  1324  1  0.07872700  0.66276800  0.16927500  1
  C  1325  1  0.05789700  0.66420800  0.15636100  1
  C  1326  1  0.04120600  0.68235100  0.15183500  1
  C  1327  1  0.04557400  0.69901700  0.15944400  1
  C  1328  1  0.04413700  0.68769900  0.22123320  1
  C  1329  1  0.04036400  0.66987400  0.24521220  1
  C  1330  1  0.05967400  0.66015900  0.26125720  1
  C  1331  1  0.08270300  0.66924400  0.25282720  1
  C  1332  1  0.08640800  0.68730100  0.22898020  1
  C  1349  1  0.02714700  0.39805100  0.53431420  1
  C  1350  1  0.02784400  0.38814100  0.51911520  1
  C  1351  1  0.04119700  0.39905700  0.49784900  1
  C  1352  1  0.05382100  0.42057000  0.49080320  1
  C  1353  1  0.05341000  0.43019600  0.50631620  1
  C  1354  1  0.04012100  0.41924800  0.52759720  1
  C  1356  1  0.09850900  0.42646100  0.47939720  1
  C  1357  1  0.11371500  0.44404300  0.47922420  1
  C  1358  1  0.13661000  0.43806200  0.48927320  1
  C  1359  1  0.14501700  0.41420200  0.50035820  1
  C  1360  1  0.12931600  0.39637600  0.50185900  1
  C  1361  1  0.10636800  0.40233900  0.49189300  1
  C  1362  1  0.06719000  0.42239600  0.44832800  1
  C  1363  1  0.06672000  0.46215000  0.44932420  1
  C  1364  1  0.08284400  0.47574600  0.43041820  1
  C  1365  1  0.07873600  0.50007800  0.41413320  1
  C  1366  1  0.05790200  0.51152900  0.41560120  1
  C  1367  1  0.04121500  0.49788800  0.43373920  1
  C  1368  1  0.04559100  0.47360500  0.45037420  1
  C  1369  1  0.04412100  0.42314100  0.43906500  1
  C  1370  1  0.04030400  0.41697200  0.42125800  1
  C  1371  1  0.05960100  0.41071200  0.41146700  1
  C  1372  1  0.08265400  0.41009100  0.42048800  1
  C  1373  1  0.08640100  0.41591000  0.43852000  1
  C  1390  1  0.52687500  0.32074700  0.07387400  1
  C  1391  1  0.52756100  0.29564400  0.08374200  1
  C  1392  1  0.54091600  0.28531900  0.07280200  1
  C  1393  1  0.55359800  0.29980400  0.05133100  1
  C  1394  1  0.55317700  0.32493900  0.04173800  1
  C  1395  1  0.53987000  0.33524600  0.05269800  1
  C  1397  1  0.59829700  0.29436700  0.04538600  1
  C  1398  1  0.61352100  0.31172400  0.02777500  1
  C  1399  1  0.63643200  0.31578000  0.03372900  1
  C  1400  1  0.64484400  0.30303900  0.05759000  1
  C  1401  1  0.62912600  0.28678000  0.07544500  1
  C  1402  1  0.60616000  0.28279200  0.06950700  1
  C  1403  1  0.56704700  0.25917900  0.04948900  1
  C  1404  1  0.56648000  0.29992900  0.00973500  1
  C  1405  1  0.58257600  0.29461200  0.99612300  1
  C  1406  1  0.57845500  0.30267200  0.97179100  1
  C  1407  1  0.55763600  0.31562700  0.96034800  1
  C  1408  1  0.54097100  0.32013400  0.97399900  1
  C  1409  1  0.54536600  0.31247200  0.99828300  1
  C  1410  1  0.54400900  0.25060600  0.04873500  1
  C  1411  1  0.54025100  0.22661300  0.05492500  1
  C  1412  1  0.55957600  0.21059000  0.06124300  1
  C  1413  1  0.58259700  0.21903700  0.06188700  1
  C  1414  1  0.58628400  0.24290400  0.05604000  1
  C  1431  1  0.52704000  0.93754810  0.07222090  1
  C  1432  1  0.52771400  0.95277610  0.04711613  1
  C  1433  1  0.54107600  0.97403610  0.03677690  1
  C  1434  1  0.55377600  0.98102510  0.05124890  1
  C  1435  1  0.55336700  0.96549110  0.07638590  1
  C  1436  1  0.54005200  0.94422910  0.08670690  1
  C  1438  1  0.59847900  0.99238814  0.04577486  1
  C  1439  1  0.61372200  0.99263414  0.06312086  1
  C  1440  1  0.63663100  0.98262410  0.06715390  1
  C  1441  1  0.64502000  0.97150610  0.05440290  1
  C  1442  1  0.62928100  0.96991810  0.03815390  1
  C  1443  1  0.60631900  0.97984510  0.03418990  1
  C  1444  1  0.56720900  0.02348500  0.01061100  1
  C  1445  1  0.56670200  0.02249300  0.05135700  1
  C  1446  1  0.58281200  0.04141400  0.04603000  1
  C  1447  1  0.57872000  0.05768900  0.05409100  1
  C  1448  1  0.55788800  0.05622300  0.06701000  1
  C  1449  1  0.54121500  0.03806600  0.07154000  1
  C  1450  1  0.54559300  0.02142500  0.06390000  1
  C  1451  1  0.54416900  0.03281700  0.00206100  1
  C  1452  1  0.54039100  0.05061300  0.97807000  1
  C  1453  1  0.55970000  0.06030900  0.96202500  1
  C  1454  1  0.58272500  0.05121100  0.97044800  1
  C  1455  1  0.58643100  0.03319900  0.99431500  1
  C  1472  1  0.52706500  0.32241600  0.68903200  1
  C  1473  1  0.52776600  0.33230200  0.70425000  1
  C  1474  1  0.54111900  0.32136800  0.72551700  1
  C  1475  1  0.55378200  0.29988400  0.73251800  1
  C  1476  1  0.55334900  0.29027000  0.71699500  1
  C  1477  1  0.54004300  0.30122500  0.69572623  1
  C  1479  1  0.59846800  0.29396200  0.74391800  1
  C  1480  1  0.61366200  0.27637100  0.74409500  1
  C  1481  1  0.63656500  0.28233000  0.73406800  1
  C  1482  1  0.64499200  0.30618500  0.72298200  1
  C  1483  1  0.62930700  0.32402000  0.72148500  1
  C  1484  1  0.60634900  0.31807700  0.73142800  1
  C  1485  1  0.56716700  0.29802400  0.77501000  1
  C  1486  1  0.56667000  0.25829100  0.77398900  1
  C  1487  1  0.58278900  0.24467900  0.79289300  1
  C  1488  1  0.57868400  0.22034200  0.80916000  1
  C  1489  1  0.55786200  0.20889100  0.80767100  1
  C  1490  1  0.54117400  0.22254600  0.78954000  1
  C  1491  1  0.54555800  0.24682900  0.77290900  1
  C  1492  1  0.54411000  0.29728800  0.78429100  1
  C  1493  1  0.54032200  0.30345100  0.80210700  1
  C  1494  1  0.55962400  0.30977200  0.81183700  1
  C  1495  1  0.58266400  0.31039300  0.80279300  1
  C  1496  1  0.58638900  0.30454300  0.78478000  1
  C  1513  1  0.91023400  0.19034400  0.83254900  1
  C  1514  1  0.92092100  0.17197300  0.82989200  1
  C  1515  1  0.92400500  0.14890300  0.84978423  1
  C  1516  1  0.91702400  0.14382800  0.87290400  1
  C  1517  1  0.90653400  0.16215700  0.87595300  1
  C  1518  1  0.90336000  0.18516500  0.85574300  1
  C  1520  1  0.91898700  0.12021000  0.89258300  1
  C  1521  1  0.93377600  0.11543000  0.91218700  1
  C  1522  1  0.93167300  0.09375600  0.93396100  1
  C  1523  1  0.91460300  0.07640200  0.93675200  1
  C  1524  1  0.90074000  0.08077100  0.91663623  1
  C  1525  1  0.90289600  0.10240000  0.89480123  1
  C  1535  1  0.91023000  0.08127600  0.06043200  1
  C  1536  1  0.92096000  0.07861100  0.08144500  1
  C  1537  1  0.92403500  0.09849300  0.08464300  1
  C  1538  1  0.91700000  0.12160800  0.06663300  1
  C  1539  1  0.90647100  0.12466500  0.04526800  1
  C  1540  1  0.90330400  0.10446400  0.04245200  1
  C  1542  1  0.91896700  0.14127800  0.07058400  1
  C  1543  1  0.93378300  0.16087000  0.05580800  1
  C  1544  1  0.93165300  0.18263800  0.05571600  1
  C  1545  1  0.91452000  0.18543500  0.07022400  1
  C  1546  1  0.90063500  0.16531900  0.08593600  1
  C  1547  1  0.90282600  0.14348100  0.08615000  1
  C  1557  1  0.90987900  0.30917800  0.94163600  1
  C  1558  1  0.92072800  0.33011900  0.92330900  1
  C  1559  1  0.92383800  0.33333333  0.90018967  1
  C  1560  1  0.91667700  0.31530000  0.89513900  1
  C  1561  1  0.90599700  0.29401600  0.91342000  1
  C  1562  1  0.90281400  0.29123900  0.93641900  1
  C  1564  1  0.91871300  0.31919800  0.87154200  1
  C  1565  1  0.93341500  0.30426400  0.86684500  1
  C  1566  1  0.93135300  0.30417800  0.84516300  1
  C  1567  1  0.91440900  0.31886300  0.82772100  1
  C  1568  1  0.90061000  0.33469100  0.83202600  1
  C  1569  1  0.90272900  0.33488900  0.85366600  1
  C  1579  1  0.41023500  0.53010500  0.39071920  1
  C  1580  1  0.42086400  0.54850000  0.39337420  1
  C  1581  1  0.42394800  0.57156700  0.37347420  1
  C  1582  1  0.41699500  0.57662200  0.35035320  1
  C  1583  1  0.40655400  0.55827000  0.34730720  1
  C  1584  1  0.40339700  0.53526200  0.36752220  1
  C  1586  1  0.41894700  0.60024100  0.33066420  1
  C  1587  1  0.43367800  0.60500900  0.31102620  1
  C  1588  1  0.43159000  0.62670400  0.28927320  1
  C  1589  1  0.41455900  0.64407400  0.28651920  1
  C  1590  1  0.40073800  0.63970400  0.30666020  1
  C  1591  1  0.40293600  0.61808800  0.32850620  1
  C  1601  1  0.41013900  0.63918000  0.16293700  1
  C  1602  1  0.42077100  0.64182500  0.14189200  1
  C  1603  1  0.42382700  0.62192300  0.13872300  1
  C  1604  1  0.41684800  0.59880800  0.15678400  1
  C  1605  1  0.40640100  0.59577500  0.17817300  1
  C  1606  1  0.40326900  0.61599300  0.18096800  1
  C  1608  1  0.41879000  0.57912000  0.15285600  1
  C  1609  1  0.43354800  0.55949600  0.16770000  1
  C  1610  1  0.43144600  0.53773500  0.16777800  1
  C  1611  1  0.41440600  0.53497400  0.15317200  1
  C  1612  1  0.40057800  0.55510700  0.13740200  1
  C  1613  1  0.40273200  0.57693200  0.13722000  1
  C  1623  1  0.41006600  0.41136200  0.28163600  1
  C  1624  1  0.42075200  0.39033800  0.30001500  1
  C  1625  1  0.42383000  0.38716900  0.32308200  1
  C  1626  1  0.41684300  0.40521700  0.32815100  1
  C  1627  1  0.40635500  0.42659200  0.30981400  1
  C  1628  1  0.40318700  0.42938100  0.28680700  1
  C  1630  1  0.41883800  0.40130400  0.35175900  1
  C  1631  1  0.43360700  0.41615400  0.35651700  1
  C  1632  1  0.43152200  0.41623600  0.37820000  1
  C  1633  1  0.41448800  0.40163500  0.39557800  1
  C  1634  1  0.40066700  0.38584000  0.39124000  1
  C  1635  1  0.40280700  0.38564500  0.36960200  1
  C  1645  1  0.05633500  0.40721000  0.39158300  1
  C  1646  1  0.03987200  0.39033300  0.39224000  1
  C  1647  1  0.03740200  0.38673200  0.37254300  1
  C  1648  1  0.05120600  0.40012000  0.35170500  1
  C  1649  1  0.06725200  0.41771500  0.35043000  1
  C  1650  1  0.06965600  0.42095500  0.37044100  1
  C  1652  1  0.04933200  0.39586400  0.33226000  1
  C  1653  1  0.03140100  0.40732200  0.31485100  1
  C  1654  1  0.03315800  0.40861900  0.29245300  1
  C  1655  1  0.05302400  0.39877400  0.28695300  1
  C  1656  1  0.07025700  0.38620500  0.30493200  1
  C  1657  1  0.06844300  0.38475700  0.32734900  1
  C  1667  1  0.05638500  0.53321900  0.15862100  1
  C  1668  1  0.03990900  0.54946300  0.14178400  1
  C  1669  1  0.03752400  0.57277400  0.13817000  1
  C  1670  1  0.05142300  0.58021200  0.15151300  1
  C  1671  1  0.06747600  0.56386500  0.16907500  1
  C  1672  1  0.06979500  0.54060300  0.17232500  1
  C  1674  1  0.04962300  0.60391900  0.14725500  1
  C  1675  1  0.03162300  0.60992100  0.15861500  1
  C  1676  1  0.03336400  0.63101600  0.15992600  1
  C  1677  1  0.05331000  0.64627600  0.15024000  1
  C  1678  1  0.07061900  0.64081600  0.13777800  1
  C  1679  1  0.06877200  0.61990500  0.13623000  1
  C  1689  1  0.05646700  0.64026500  0.28464920  1
  C  1690  1  0.03993800  0.64084000  0.30086320  1
  C  1691  1  0.03754700  0.62114800  0.32417720  1
  C  1692  1  0.05147500  0.60038200  0.33163920  1
  C  1693  1  0.06757400  0.59917900  0.31531820  1
  C  1694  1  0.06990900  0.61919300  0.29205920  1
  C  1696  1  0.04965200  0.58093200  0.35534420  1
  C  1697  1  0.03165000  0.56357500  0.36133020  1
  C  1698  1  0.03339500  0.54115700  0.38241220  1
  C  1699  1  0.05331900  0.53559300  0.39770320  1
  C  1700  1  0.07059500  0.55353000  0.39229320  1
  C  1701  1  0.06879000  0.57595900  0.37134520  1
  C  1711  1  0.55638700  0.31333400  0.83168800  1
  C  1712  1  0.53988100  0.33018000  0.83103000  1
  C  1713  1  0.53742100  0.33382400  0.85070200  1
  C  1714  1  0.55128500  0.32051800  0.87151400  1
  C  1715  1  0.56737300  0.30295100  0.87279300  1
  C  1716  1  0.56976700  0.29966900  0.85280700  1
  C  1718  1  0.54938700  0.32479500  0.89094700  1
  C  1719  1  0.53136900  0.31344100  0.90828100  1
  C  1720  1  0.53310300  0.31210700  0.93069900  1
  C  1721  1  0.55303100  0.32181200  0.93628100  1
  C  1722  1  0.57030900  0.33435200  0.91834600  1
  C  1723  1  0.56851800  0.33583800  0.89591100  1
  C  1733  1  0.55638200  0.18718800  0.06476200  1
  C  1734  1  0.53989700  0.17095500  0.08159400  1
  C  1735  1  0.53749400  0.14764600  0.08520300  1
  C  1736  1  0.55139500  0.14019800  0.07187100  1
  C  1737  1  0.56746000  0.15653600  0.05431500  1
  C  1738  1  0.56979300  0.17979500  0.05106700  1
  C  1740  1  0.54956100  0.11649900  0.07611200  1
  C  1741  1  0.53159800  0.11051500  0.06470900  1
  C  1742  1  0.53337000  0.08943200  0.06338100  1
  C  1743  1  0.55328900  0.07414700  0.07314100  1
  C  1744  1  0.57055300  0.07957100  0.08566900  1
  C  1745  1  0.56871900  0.10052300  0.08714600  1
  C  1755  1  0.55649400  0.08017600  0.93861700  1
  C  1756  1  0.53995000  0.07958400  0.92242300  1
  C  1757  1  0.53753300  0.09926800  0.89910923  1
  C  1758  1  0.55146800  0.12003400  0.89161600  1
  C  1759  1  0.56759300  0.12125000  0.90791000  1
  C  1760  1  0.56994500  0.10125000  0.93117600  1
  C  1762  1  0.54961600  0.13947900  0.86791100  1
  C  1763  1  0.53163600  0.15685000  0.86196200  1
  C  1764  1  0.53335600  0.17926300  0.84087400  1
  C  1765  1  0.55326600  0.18482800  0.82557500  1
  C  1766  1  0.57054800  0.16690000  0.83097023  1
  C  1767  1  0.56871900  0.14443500  0.85187423  1
  C  1777  1  0.79454600  0.96739610  0.05773290  1
  C  1778  1  0.78458100  0.94918710  0.05431790  1
  C  1779  1  0.75983500  0.94547710  0.05559290  1
  C  1780  1  0.74444000  0.95988310  0.06037290  1
  C  1781  1  0.75405100  0.97833510  0.06373590  1
  C  1782  1  0.77895900  0.98171810  0.06252290  1
  C  1784  1  0.71949200  0.95751210  0.05944290  1
  C  1785  1  0.70566400  0.94894410  0.08042590  1
  C  1786  1  0.68084700  0.95212810  0.07889990  1
  C  1787  1  0.66926000  0.96418210  0.05639890  1
  C  1788  1  0.68315900  0.97164610  0.03552290  1
  C  1789  1  0.70796200  0.96845110  0.03699690  1
  C  1799  1  0.79435600  0.30638200  0.05834700  1
  C  1800  1  0.78438500  0.30285300  0.08000900  1
  C  1801  1  0.75964300  0.30416000  0.08243300  1
  C  1802  1  0.74425500  0.30907900  0.06320200  1
  C  1803  1  0.75387900  0.31256000  0.04134300  1
  C  1804  1  0.77878700  0.31133900  0.03917600  1
  C  1806  1  0.71930100  0.30816900  0.06648700  1
  C  1807  1  0.70546100  0.32914100  0.05407600  1
  C  1808  1  0.68064600  0.32759200  0.05243500  1
  C  1809  1  0.66907800  0.30508100  0.06290200  1
  C  1810  1  0.68299000  0.28421600  0.07632900  1
  C  1811  1  0.70779600  0.28570900  0.07803000  1
  C  1821  1  0.79450300  0.30687700  0.71862500  1
  C  1822  1  0.78452800  0.32851500  0.70045000  1
  C  1823  1  0.75978000  0.33095700  0.69676000  1
  C  1824  1  0.74438500  0.31176900  0.71116200  1
  C  1825  1  0.75400500  0.28993700  0.72958200  1
  C  1826  1  0.77891500  0.28776700  0.73294700  1
  C  1828  1  0.71943300  0.31507600  0.70883000  1
  C  1829  1  0.70554800  0.30268600  0.70027900  1
  C  1830  1  0.68073800  0.30105500  0.70351100  1
  C  1831  1  0.66922600  0.31148400  0.71561700  1
  C  1832  1  0.68318200  0.32485800  0.72308500  1
  C  1833  1  0.70798100  0.32655600  0.71983900  1
  C  1843  1  0.29450300  0.75312800  0.16554020  1
  C  1844  1  0.28454900  0.77136700  0.16891320  1
  C  1845  1  0.25980500  0.77508600  0.16763720  1
  C  1846  1  0.24440100  0.76064800  0.16291220  1
  C  1847  1  0.25400000  0.74215900  0.15959820  1
  C  1848  1  0.27890600  0.73877200  0.16080800  1
  C  1850  1  0.21945200  0.76302800  0.16383420  1
  C  1851  1  0.20562800  0.77157100  0.14285020  1
  C  1852  1  0.18080900  0.76840900  0.14437120  1
  C  1853  1  0.16921900  0.75636600  0.16686720  1
  C  1854  1  0.18312300  0.74887800  0.18774620  1
  C  1855  1  0.20792000  0.75213300  0.18627920  1
  C  1865  1  0.29437500  0.41407100  0.16503100  1
  C  1866  1  0.28443900  0.41743200  0.14341700  1
  C  1867  1  0.25969400  0.41618400  0.14095100  1
  C  1868  1  0.24427500  0.41148600  0.16009500  1
  C  1869  1  0.25385700  0.40817300  0.18190100  1
  C  1870  1  0.27876300  0.40935800  0.18410300  1
  C  1872  1  0.21933100  0.41243100  0.15676200  1
  C  1873  1  0.20549500  0.39144700  0.16911800  1
  C  1874  1  0.18067400  0.39297400  0.17074900  1
  C  1875  1  0.16909200  0.41547500  0.16033400  1
  C  1876  1  0.18300200  0.43635600  0.14698600  1
  C  1877  1  0.20781000  0.43488200  0.14529300  1
  C  1887  1  0.29449800  0.41357000  0.50466420  1
  C  1888  1  0.28455400  0.39192800  0.52286720  1
  C  1889  1  0.25981000  0.38945900  0.52658720  1
  C  1890  1  0.24439000  0.40862400  0.51219420  1
  C  1891  1  0.25397800  0.43046300  0.49375520  1
  C  1892  1  0.27888600  0.43266900  0.49037220  1
  C  1894  1  0.21944300  0.40528800  0.51455520  1
  C  1895  1  0.20555300  0.41764900  0.52313620  1
  C  1896  1  0.18074500  0.41928800  0.51989020  1
  C  1897  1  0.16923300  0.40886800  0.50777220  1
  C  1898  1  0.18319600  0.39548800  0.50031500  1
  C  1899  1  0.20799500  0.39379200  0.50356200  1
  C  1909  1  0.94889400  0.91369710  0.08526713  1
  C  1910  1  0.96920100  0.91084410  0.09934390  1
  C  1911  1  0.98178100  0.88913800  0.11037823  1
  C  1912  1  0.97422200  0.86962000  0.10784720  1
  C  1913  1  0.95380300  0.87210400  0.09384320  1
  C  1914  1  0.94141800  0.89414900  0.08272620  1
  C  1916  1  0.98752900  0.84809700  0.11906620  1
  C  1917  1  0.97699700  0.82651400  0.13664320  1
  C  1918  1  0.99009100  0.80508600  0.14732820  1
  C  1919  1  0.01395900  0.80470100  0.14059220  1
  C  1920  1  0.02448200  0.82641200  0.12312120  1
  C  1921  1  0.01147300  0.84788600  0.11256120  1
  C  1931  1  0.94877700  0.33395100  0.08436700  1
  C  1932  1  0.96912300  0.34797000  0.07316400  1
  C  1933  1  0.98170900  0.35901600  0.08382100  1
  C  1934  1  0.97411600  0.35656500  0.10582600  1
  C  1935  1  0.95366100  0.34261900  0.11732600  1
  C  1936  1  0.94126900  0.33148700  0.10641600  1
  C  1938  1  0.98742700  0.36779900  0.11611500  1
  C  1939  1  0.97691000  0.38541400  0.12007000  1
  C  1940  1  0.98999900  0.39609700  0.13081900  1
  C  1941  1  0.01384400  0.38930900  0.13801000  1
  C  1942  1  0.02435800  0.37181000  0.13380500  1
  C  1943  1  0.01135500  0.36126000  0.12287800  1
  C  1953  1  0.94899900  0.33310000  0.66504523  1
  C  1954  1  0.96927300  0.32183900  0.66218920  1
  C  1955  1  0.98187700  0.33251500  0.64049720  1
  C  1956  1  0.97435500  0.35458600  0.62099020  1
  C  1957  1  0.95396400  0.36614000  0.62347220  1
  C  1958  1  0.94156500  0.35521700  0.64550900  1
  C  1960  1  0.98766400  0.36487700  0.59946920  1
  C  1961  1  0.97712500  0.36888100  0.57789020  1
  C  1962  1  0.99021900  0.37960700  0.55646120  1
  C  1963  1  0.01408500  0.38673400  0.55607020  1
  C  1964  1  0.02461800  0.38249000  0.57777820  1
  C  1965  1  0.01160800  0.37158800  0.59925320  1
  C  1975  1  0.44892500  0.80679800  0.13800420  1
  C  1976  1  0.46917800  0.80966800  0.12385720  1
  C  1977  1  0.48176000  0.83137200  0.11281320  1
  C  1978  1  0.47425200  0.85087100  0.11539920  1
  C  1979  1  0.45388500  0.84837100  0.12947120  1
  C  1980  1  0.44150100  0.82632500  0.14060420  1
  C  1982  1  0.48755700  0.87239400  0.10416620  1
  C  1983  1  0.47700600  0.89398200  0.08662720  1
  C  1984  1  0.49010100  0.91541110  0.07593213  1
  C  1985  1  0.51397700  0.91579410  0.08264513  1
  C  1986  1  0.52452000  0.89407500  0.10007823  1
  C  1987  1  0.51151600  0.87259800  0.11063420  1
  C  1997  1  0.44878300  0.38646300  0.13892500  1
  C  1998  1  0.46904000  0.37232100  0.15019100  1
  C  1999  1  0.48161900  0.36128300  0.13952200  1
  C  2000  1  0.47410100  0.36387300  0.11743700  1
  C  2001  1  0.45372900  0.37794000  0.10587700  1
  C  2002  1  0.44134700  0.38906300  0.11680200  1
  C  2004  1  0.48740400  0.35265100  0.10713300  1
  C  2005  1  0.47685400  0.33511300  0.10308200  1
  C  2006  1  0.48994100  0.32444300  0.09231900  1
  C  2007  1  0.51381700  0.33115900  0.08522100  1
  C  2008  1  0.52435800  0.34859100  0.08950900  1
  C  2009  1  0.51135700  0.35913300  0.10044500  1
  C  2019  1  0.44890400  0.38738700  0.55830920  1
  C  2020  1  0.46917000  0.39865900  0.56116720  1
  C  2021  1  0.48176800  0.38799400  0.58286120  1
  C  2022  1  0.47426100  0.36591400  0.60236320  1
  C  2023  1  0.45388300  0.35434600  0.59987720  1
  C  2024  1  0.44148400  0.36526200  0.57784020  1
  C  2026  1  0.48757500  0.35562500  0.62388320  1
  C  2027  1  0.47703600  0.35159800  0.64546923  1
  C  2028  1  0.49013300  0.34086300  0.66689600  1
  C  2029  1  0.51400200  0.33375000  0.66727700  1
  C  2030  1  0.52453600  0.33801900  0.64556120  1
  C  2031  1  0.51152600  0.34893900  0.62408620  1
  N  512  1  0.89862300  0.31213300  0.30210000  1
  N  534  1  0.89851900  0.30269100  0.43064100  1
  N  556  1  0.89793000  0.43130900  0.31147500  1
  N  578  1  0.39866500  0.71841800  0.72754800  1
  N  600  1  0.39848800  0.72790300  0.59923900  1
  N  622  1  0.39843500  0.59952500  0.71809600  1
  N  644  1  0.08043400  0.58695500  0.73236900  1
  N  666  1  0.08074400  0.72600400  0.58640400  1
  N  688  1  0.08086800  0.73306400  0.72559700  1
  N  710  1  0.58059300  0.44391300  0.29722600  1
  N  732  1  0.58072200  0.30453900  0.44337500  1
  N  754  1  0.58089500  0.29751600  0.30398700  1
  N  776  1  0.73862500  0.14881800  0.47037900  1
  N  798  1  0.73845900  0.47119700  0.42563500  1
  N  820  1  0.73858200  0.42614100  0.14817300  1
  N  842  1  0.23856200  0.88180400  0.55938400  1
  N  864  1  0.23840400  0.55985600  0.60391400  1
  N  886  1  0.23852800  0.60438000  0.88155600  1
  N  908  1  0.94655100  0.00797300  0.49374100  1
  N  930  1  0.94637300  0.49447000  0.54298100  1
  N  952  1  0.94674700  0.54373100  0.00746800  1
  N  974  1  0.44668400  0.02263200  0.53600800  1
  N  996  1  0.44651900  0.53636400  0.48653900  1
  N  1018  1  0.44668200  0.48689200  0.02226500  1
  N  1532  1  0.89862300  0.15705900  0.89890700  1
  N  1554  1  0.89851900  0.14761700  0.02744800  1
  N  1576  1  0.89793000  0.27623500  0.90828200  1
  N  1598  1  0.39866500  0.56334400  0.32435500  1
  N  1620  1  0.39848800  0.57282900  0.19604600  1
  N  1642  1  0.39843500  0.44445100  0.31490300  1
  N  1664  1  0.08043400  0.43188100  0.32917600  1
  N  1686  1  0.08074400  0.57093000  0.18321100  1
  N  1708  1  0.08086800  0.57799000  0.32240420  1
  N  1730  1  0.58059300  0.28883900  0.89403300  1
  N  1752  1  0.58072200  0.14946500  0.04018200  1
  N  1774  1  0.58089500  0.14244200  0.90079400  1
  N  1796  1  0.73862500  0.99374414  0.06718586  1
  N  1818  1  0.73845900  0.31612300  0.02244200  1
  N  1840  1  0.73858200  0.27106700  0.74498000  1
  N  1862  1  0.23856200  0.72673000  0.15619100  1
  N  1884  1  0.23840400  0.40478200  0.20072100  1
  N  1906  1  0.23852800  0.44930600  0.47836320  1
  N  1928  1  0.94655100  0.85289900  0.09054820  1
  N  1950  1  0.94637300  0.33939600  0.13978800  1
  N  1972  1  0.94674700  0.38865700  0.60427523  1
  N  1994  1  0.44668400  0.86755800  0.13281500  1
  N  2016  1  0.44651900  0.38129000  0.08334600  1
  N  2038  1  0.44668200  0.33181800  0.61907220  1
  O  513  1  0.87654700  0.31499600  0.30242900  1
  O  514  1  0.90896500  0.32502000  0.30884000  1
  O  535  1  0.87643800  0.30299400  0.42748900  1
  O  536  1  0.90882600  0.30946500  0.41099000  1
  O  557  1  0.87583000  0.42830100  0.31425500  1
  O  558  1  0.90811100  0.41159400  0.32439700  1
  O  579  1  0.37659500  0.71552100  0.72721100  1
  O  580  1  0.40904400  0.70553700  0.72082100  1
  O  601  1  0.37641900  0.72759200  0.60245900  1
  O  602  1  0.40886100  0.72116300  0.61885200  1
  O  623  1  0.37636000  0.60271300  0.71522700  1
  O  624  1  0.40877500  0.61915300  0.70520500  1
  O  645  1  0.10244500  0.58425100  0.73613100  1
  O  646  1  0.07549000  0.60879700  0.72326100  1
  O  667  1  0.10273800  0.72489300  0.58366300  1
  O  668  1  0.07583000  0.71329000  0.60825800  1
  O  689  1  0.10285700  0.73693500  0.72451900  1
  O  690  1  0.07600600  0.72391900  0.71287700  1
  O  711  1  0.60259600  0.44665700  0.29342700  1
  O  712  1  0.57569100  0.42205700  0.30637900  1
  O  733  1  0.60271900  0.30563500  0.44612300  1
  O  734  1  0.57581700  0.31725600  0.42152100  1
  O  755  1  0.60288200  0.29364100  0.30504700  1
  O  756  1  0.57605700  0.30667900  0.31669500  1
  O  777  1  0.74047800  0.17014100  0.45369500  1
  O  778  1  0.74263200  0.14800700  0.48993800  1
  O  799  1  0.74029600  0.45458600  0.42088900  1
  O  800  1  0.74248900  0.49080300  0.40694700  1
  O  821  1  0.74045500  0.42146200  0.16950600  1
  O  822  1  0.74257800  0.40741500  0.14731700  1
  O  843  1  0.24041500  0.86049400  0.57609300  1
  O  844  1  0.24255900  0.88257500  0.53984000  1
  O  865  1  0.24026200  0.57656600  0.60851200  1
  O  866  1  0.24237500  0.54031200  0.62269200  1
  O  887  1  0.24038900  0.60904800  0.86022600  1
  O  888  1  0.24249800  0.62311900  0.88239500  1
  O  909  1  0.94739000  0.01363200  0.47206400  1
  O  910  1  0.92579600  0.00122100  0.50136600  1
  O  931  1  0.94715800  0.47280700  0.55903900  1
  O  932  1  0.92563200  0.50215000  0.54204600  1
  O  953  1  0.94761700  0.55973700  0.01314200  1
  O  954  1  0.92598800  0.54290000  0.00069900  1
  O  975  1  0.44759600  0.01695000  0.55768900  1
  O  976  1  0.42591500  0.02939100  0.52844800  1
  O  997  1  0.44742200  0.55804500  0.47054600  1
  O  998  1  0.42574900  0.52879900  0.48734700  1
  O  1019  1  0.44757300  0.47089300  0.01658300  1
  O  1020  1  0.42592000  0.48770400  0.02903500  1
  O  1533  1  0.87654700  0.15992200  0.89923600  1
  O  1534  1  0.90896500  0.16994600  0.90564700  1
  O  1555  1  0.87643800  0.14792000  0.02429600  1
  O  1556  1  0.90882600  0.15439100  0.00779700  1
  O  1577  1  0.87583000  0.27322700  0.91106200  1
  O  1578  1  0.90811100  0.25652000  0.92120400  1
  O  1599  1  0.37659500  0.56044700  0.32401800  1
  O  1600  1  0.40904400  0.55046300  0.31762800  1
  O  1621  1  0.37641900  0.57251800  0.19926600  1
  O  1622  1  0.40886100  0.56608900  0.21565900  1
  O  1643  1  0.37636000  0.44763900  0.31203400  1
  O  1644  1  0.40877500  0.46407900  0.30201200  1
  O  1665  1  0.10244500  0.42917700  0.33293800  1
  O  1666  1  0.07549000  0.45372300  0.32006800  1
  O  1687  1  0.10273800  0.56981900  0.18047000  1
  O  1688  1  0.07583000  0.55821600  0.20506500  1
  O  1709  1  0.10285700  0.58186100  0.32132620  1
  O  1710  1  0.07600600  0.56884500  0.30968400  1
  O  1731  1  0.60259600  0.29158300  0.89023400  1
  O  1732  1  0.57569100  0.26698300  0.90318600  1
  O  1753  1  0.60271900  0.15056100  0.04293000  1
  O  1754  1  0.57581700  0.16218200  0.01832800  1
  O  1775  1  0.60288200  0.13856700  0.90185400  1
  O  1776  1  0.57605700  0.15160500  0.91350200  1
  O  1797  1  0.74047800  0.01506700  0.05050200  1
  O  1798  1  0.74263200  0.99293314  0.08674486  1
  O  1819  1  0.74029600  0.29951200  0.01769600  1
  O  1820  1  0.74248900  0.33572900  0.00375400  1
  O  1841  1  0.74045500  0.26638800  0.76631300  1
  O  1842  1  0.74257800  0.25234100  0.74412423  1
  O  1863  1  0.24041500  0.70542000  0.17290000  1
  O  1864  1  0.24255900  0.72750100  0.13664700  1
  O  1885  1  0.24026200  0.42149200  0.20531900  1
  O  1886  1  0.24237500  0.38523800  0.21949900  1
  O  1907  1  0.24038900  0.45397400  0.45703320  1
  O  1908  1  0.24249800  0.46804500  0.47920220  1
  O  1929  1  0.94739000  0.85855800  0.06887120  1
  O  1930  1  0.92579600  0.84614700  0.09817320  1
  O  1951  1  0.94715800  0.31773300  0.15584600  1
  O  1952  1  0.92563200  0.34707600  0.13885300  1
  O  1973  1  0.94761700  0.40466300  0.60994900  1
  O  1974  1  0.92598800  0.38782600  0.59750620  1
  O  1995  1  0.44759600  0.86187600  0.15449600  1
  O  1996  1  0.42591500  0.87431700  0.12525523  1
  O  2017  1  0.44742200  0.40297100  0.06735300  1
  O  2018  1  0.42574900  0.37372500  0.08415400  1
  O  2039  1  0.44757300  0.31581900  0.61339020  1
  O  2040  1  0.42592000  0.33263000  0.62584220  1
