# generated using pymatgen
data_H44C47N4
_symmetry_space_group_name_H-M   'P 1'
_cell_length_a   32.16820000
_cell_length_b   56.36085000
_cell_length_c   56.36080000
_cell_angle_alpha   119.99991196
_cell_angle_beta   89.99990000
_cell_angle_gamma   90.00000000
_symmetry_Int_Tables_number   1
_chemical_formula_structural   H44C47N4
_chemical_formula_sum   'H528 C564 N48'
_cell_volume   88493.72174770
_cell_formula_units_Z   12
loop_
 _symmetry_equiv_pos_site_id
 _symmetry_equiv_pos_as_xyz
  1  'x, y, z'
loop_
 _atom_site_type_symbol
 _atom_site_label
 _atom_site_symmetry_multiplicity
 _atom_site_fract_x
 _atom_site_fract_y
 _atom_site_fract_z
 _atom_site_occupancy
  H  25  1  0.89263700  0.92367500  0.30649500  1
  H  26  1  0.82913100  0.94178500  0.30047200  1
  H  27  1  0.67522300  0.94201500  0.29730600  1
  H  28  1  0.60993500  0.92426600  0.30120600  1
  H  29  1  0.66958700  0.85550000  0.29576100  1
  H  30  1  0.82861600  0.85580900  0.30025200  1
  H  31  1  0.75471800  0.85344400  0.24264200  1
  H  32  1  0.75225300  0.76823700  0.21185600  1
  H  33  1  0.74712600  0.77565300  0.25688900  1
  H  34  1  0.74891000  0.91677800  0.34812900  1
  H  35  1  0.72846100  0.83620400  0.35636500  1
  H  36  1  0.72218800  0.88053900  0.39575600  1
  H  39  1  0.75111800  0.94376000  0.31340800  1
  H  40  1  0.75326400  0.92500000  0.27712900  1
  H  42  1  0.71403400  0.81152200  0.30415800  1
  H  43  1  0.76876000  0.81107400  0.30770500  1
  H  45  1  0.70339500  0.93246800  0.40975000  1
  H  46  1  0.73568700  0.94641900  0.39500000  1
  H  48  1  0.78111000  0.81885100  0.19323800  1
  H  49  1  0.72681100  0.81290000  0.19032600  1
  H  51  1  0.58213400  0.89131500  0.32203100  1
  H  52  1  0.59753400  0.85739300  0.30057000  1
  H  54  1  0.91906800  0.89061900  0.32662300  1
  H  55  1  0.90073500  0.85710600  0.30665600  1
  H  80  1  0.89263500  0.25830000  0.95193800  1
  H  81  1  0.82913900  0.23416100  0.93381200  1
  H  82  1  0.67522900  0.23072700  0.93355800  1
  H  83  1  0.60992900  0.25235900  0.95130500  1
  H  84  1  0.66955600  0.31568200  0.02008400  1
  H  85  1  0.82857200  0.31990900  0.01979100  1
  H  86  1  0.75473300  0.26465200  0.02214800  1
  H  87  1  0.75226700  0.31908000  0.10735400  1
  H  88  1  0.74707800  0.35669200  0.09993500  1
  H  89  1  0.74888300  0.30680200  0.95880900  1
  H  90  1  0.72825800  0.39559300  0.03937600  1
  H  91  1  0.72199400  0.39064500  0.99503900  1
  H  94  1  0.75112500  0.24510800  0.93182500  1
  H  95  1  0.75327200  0.22758400  0.95058100  1
  H  97  1  0.71390800  0.36805500  0.06405700  1
  H  98  1  0.76862500  0.37210200  0.06451700  1
  H  100  1  0.70333300  0.35271900  0.94309700  1
  H  101  1  0.73564200  0.32402700  0.92916400  1
  H  103  1  0.78117300  0.24986000  0.05675200  1
  H  104  1  0.72687100  0.25287400  0.06268900  1
  H  106  1  0.58211200  0.30613200  0.98426300  1
  H  107  1  0.59750000  0.31858400  0.01818600  1
  H  109  1  0.91907200  0.31147400  0.98500900  1
  H  110  1  0.90069200  0.32503000  0.01851400  1
  H  135  1  0.89263400  0.56905600  0.61733100  1
  H  136  1  0.82913100  0.57509100  0.64146900  1
  H  137  1  0.67522300  0.57828000  0.64487800  1
  H  138  1  0.60994100  0.57438200  0.62322600  1
  H  139  1  0.66960200  0.57982800  0.55991000  1
  H  140  1  0.82861500  0.57530800  0.55571300  1
  H  141  1  0.75472800  0.63294000  0.61096700  1
  H  142  1  0.75233200  0.66371600  0.55653700  1
  H  143  1  0.74719900  0.61868400  0.51892300  1
  H  144  1  0.74886700  0.52745600  0.56882300  1
  H  145  1  0.72844100  0.51921500  0.48001000  1
  H  146  1  0.72213200  0.47982700  0.48495600  1
  H  149  1  0.75111600  0.56216500  0.63051100  1
  H  150  1  0.75327200  0.59844400  0.64803900  1
  H  152  1  0.71404700  0.57143300  0.50753400  1
  H  153  1  0.76877000  0.56785700  0.50353200  1
  H  155  1  0.70333800  0.46583200  0.52288700  1
  H  156  1  0.73561900  0.48058700  0.55159400  1
  H  158  1  0.78115600  0.68234100  0.62577000  1
  H  159  1  0.72685700  0.68525400  0.62273400  1
  H  161  1  0.58215000  0.55355900  0.56945100  1
  H  162  1  0.59754700  0.57502000  0.55699100  1
  H  164  1  0.91906800  0.54893000  0.56415100  1
  H  165  1  0.90073000  0.56888800  0.55059800  1
  H  190  1  0.39266100  0.91035200  0.61063600  1
  H  191  1  0.32916700  0.89222800  0.61665900  1
  H  192  1  0.17525100  0.89198500  0.61986200  1
  H  193  1  0.10996600  0.90973300  0.61598100  1
  H  194  1  0.16958100  0.97850900  0.62142800  1
  H  195  1  0.32859500  0.97820900  0.61688700  1
  H  196  1  0.25478900  0.98056900  0.67451200  1
  H  197  1  0.25234900  0.06577800  0.70529000  1
  H  198  1  0.24714500  0.05835500  0.66025800  1
  H  199  1  0.24887600  0.91722700  0.56902300  1
  H  200  1  0.22824100  0.99779900  0.56080800  1
  H  201  1  0.22195200  0.95346200  0.52141900  1
  H  204  1  0.25112400  0.89024700  0.60373400  1
  H  205  1  0.25332800  0.90899600  0.64001200  1
  H  207  1  0.21394400  0.02248600  0.61302600  1
  H  208  1  0.26866000  0.02292700  0.60942300  1
  H  210  1  0.20329100  0.90153000  0.50739500  1
  H  211  1  0.23558100  0.88758500  0.52215100  1
  H  213  1  0.28125000  0.01518200  0.72390900  1
  H  214  1  0.22694500  0.02109900  0.72682900  1
  H  216  1  0.08215000  0.94265700  0.59515200  1
  H  217  1  0.09751900  0.97658800  0.61660200  1
  H  219  1  0.41911000  0.94343500  0.59054400  1
  H  220  1  0.40071900  0.97693400  0.61049600  1
  H  245  1  0.39265800  0.57577000  0.96526900  1
  H  246  1  0.32915100  0.59990700  0.98337500  1
  H  247  1  0.17522900  0.60332300  0.98358800  1
  H  248  1  0.10995700  0.58166900  0.96583900  1
  H  249  1  0.16960600  0.51833800  0.89708900  1
  H  250  1  0.32862900  0.51414300  0.89740600  1
  H  251  1  0.25477100  0.56939700  0.89503200  1
  H  252  1  0.25234900  0.51497100  0.80982600  1
  H  253  1  0.24719800  0.47735600  0.81724200  1
  H  254  1  0.24886100  0.52725000  0.95837200  1
  H  255  1  0.22842200  0.43844200  0.87779400  1
  H  256  1  0.22211100  0.44338600  0.92212700  1
  H  259  1  0.25112100  0.58894700  0.98534900  1
  H  260  1  0.25330300  0.60646900  0.96659300  1
  H  262  1  0.21403800  0.46597500  0.85310600  1
  H  263  1  0.26875600  0.46195600  0.85267400  1
  H  265  1  0.20332200  0.48130100  0.97404800  1
  H  266  1  0.23559300  0.51001400  0.98801000  1
  H  268  1  0.28119700  0.58420100  0.86043400  1
  H  269  1  0.22689800  0.58116900  0.85449300  1
  H  271  1  0.08216800  0.52790800  0.93291600  1
  H  272  1  0.09754700  0.51542900  0.89898700  1
  H  274  1  0.41910400  0.52258200  0.93220600  1
  H  275  1  0.40075000  0.50903800  0.89869900  1
  H  300  1  0.39264300  0.26492600  0.29989000  1
  H  301  1  0.32915100  0.25891700  0.27574700  1
  H  302  1  0.17522600  0.25573800  0.27230100  1
  H  303  1  0.10993500  0.25963200  0.29393600  1
  H  304  1  0.16954000  0.25418400  0.35726400  1
  H  305  1  0.32856100  0.25868400  0.36149700  1
  H  306  1  0.25475500  0.20107600  0.30623200  1
  H  307  1  0.25227400  0.17029100  0.36065400  1
  H  308  1  0.24706400  0.21532100  0.39826700  1
  H  309  1  0.24885800  0.30656500  0.34838900  1
  H  310  1  0.22822900  0.31478100  0.43717500  1
  H  311  1  0.22196200  0.35417200  0.43223100  1
  H  314  1  0.25112100  0.27186500  0.28669600  1
  H  315  1  0.25328800  0.23558500  0.26916400  1
  H  317  1  0.21389500  0.26256400  0.40963900  1
  H  318  1  0.26861300  0.26615100  0.41367800  1
  H  320  1  0.20330000  0.36819500  0.39431200  1
  H  321  1  0.23560600  0.35343500  0.36561600  1
  H  323  1  0.28121900  0.15168500  0.29144700  1
  H  324  1  0.22691100  0.14875300  0.29443300  1
  H  326  1  0.08212200  0.28045400  0.34770800  1
  H  327  1  0.09749700  0.25898600  0.36016600  1
  H  329  1  0.41907900  0.28501800  0.35307200  1
  H  330  1  0.40068800  0.26505600  0.36660900  1
  H  355  1  0.10939700  0.59552300  0.63293000  1
  H  356  1  0.17456700  0.60919200  0.62404400  1
  H  357  1  0.32788900  0.60635700  0.62253900  1
  H  358  1  0.39177500  0.59003400  0.62992400  1
  H  359  1  0.32808800  0.52937300  0.63812400  1
  H  360  1  0.16813200  0.53390900  0.64217800  1
  H  361  1  0.25288400  0.59209200  0.68432700  1
  H  362  1  0.27317400  0.56004700  0.73648500  1
  H  363  1  0.26192400  0.51498300  0.69946100  1
  H  364  1  0.24708000  0.52293600  0.57994800  1
  H  365  1  0.24488500  0.44965200  0.60117500  1
  H  366  1  0.24470500  0.43895600  0.55487000  1
  H  369  1  0.25003600  0.58857800  0.60374400  1
  H  370  1  0.25168100  0.61276100  0.63929600  1
  H  372  1  0.27605900  0.48661600  0.64785800  1
  H  373  1  0.22110700  0.48871100  0.65071600  1
  H  375  1  0.27939100  0.47563800  0.52931700  1
  H  376  1  0.22849300  0.48829400  0.53096100  1
  H  378  1  0.26888400  0.62356900  0.73058400  1
  H  379  1  0.30075400  0.60916700  0.74506900  1
  H  381  1  0.41227100  0.52724600  0.62445200  1
  H  382  1  0.39867000  0.54548100  0.65880300  1
  H  384  1  0.08537700  0.53357800  0.63017100  1
  H  385  1  0.09762500  0.55458800  0.66453700  1
  H  410  1  0.10943800  0.24267900  0.96285300  1
  H  411  1  0.17462900  0.25154800  0.98538100  1
  H  412  1  0.32794500  0.25299300  0.98397400  1
  H  413  1  0.39180300  0.24559400  0.96023800  1
  H  414  1  0.32805400  0.23748400  0.89143400  1
  H  415  1  0.16809500  0.23347200  0.89198600  1
  H  416  1  0.25286500  0.19128200  0.90794800  1
  H  417  1  0.27304900  0.13916200  0.82373000  1
  H  418  1  0.26179900  0.17620900  0.81572300  1
  H  419  1  0.24711100  0.29567900  0.94323600  1
  H  420  1  0.24485700  0.27451100  0.84874300  1
  H  421  1  0.24473000  0.32080600  0.88437000  1
  H  424  1  0.25010400  0.27183600  0.98505000  1
  H  425  1  0.25172100  0.23627600  0.97365100  1
  H  427  1  0.27599000  0.22781500  0.83899300  1
  H  428  1  0.22103800  0.22496600  0.83823300  1
  H  430  1  0.27944100  0.34632300  0.94659100  1
  H  431  1  0.22854900  0.34468200  0.95761100  1
  H  433  1  0.26882200  0.14501600  0.89313300  1
  H  434  1  0.30068200  0.13055400  0.86424300  1
  H  436  1  0.41223300  0.25111200  0.90292900  1
  H  437  1  0.39862700  0.21676200  0.88681500  1
  H  439  1  0.08535200  0.24546500  0.90368400  1
  H  440  1  0.09760900  0.21109900  0.89032400  1
  H  465  1  0.10939400  0.91283600  0.28005700  1
  H  466  1  0.17456100  0.89028000  0.26639300  1
  H  467  1  0.32787100  0.89161200  0.26922400  1
  H  468  1  0.39176000  0.91532000  0.28554400  1
  H  469  1  0.32808200  0.98417300  0.34622300  1
  H  470  1  0.16812000  0.98369000  0.34169000  1
  H  471  1  0.25284900  0.96766300  0.28350900  1
  H  472  1  0.27314600  0.05186200  0.31556300  1
  H  473  1  0.26192400  0.05990100  0.36062500  1
  H  474  1  0.24708600  0.93242600  0.35265700  1
  H  475  1  0.24497800  0.02693200  0.42595400  1
  H  476  1  0.24484500  0.99131600  0.43664000  1
  H  479  1  0.25003300  0.89058600  0.28700800  1
  H  480  1  0.25166500  0.90196900  0.26283500  1
  H  482  1  0.27607400  0.03665200  0.38898000  1
  H  483  1  0.22112200  0.03743100  0.38691000  1
  H  485  1  0.27950900  0.92914300  0.40000500  1
  H  486  1  0.22866700  0.91804800  0.38727700  1
  H  488  1  0.26889600  0.98245400  0.25203900  1
  H  489  1  0.30075100  0.01134900  0.26646400  1
  H  491  1  0.41226100  0.97262800  0.34834100  1
  H  492  1  0.39866100  0.98874800  0.33010900  1
  H  494  1  0.08536100  0.97201600  0.34200700  1
  H  495  1  0.09762500  0.98537300  0.32100000  1
  H  520  1  0.60943100  0.23839500  0.28424900  1
  H  521  1  0.67462300  0.22473800  0.29311600  1
  H  522  1  0.82792800  0.22760400  0.29458100  1
  H  523  1  0.89179100  0.24394400  0.28718400  1
  H  524  1  0.82803200  0.30463700  0.27907400  1
  H  525  1  0.66807900  0.30006700  0.27505800  1
  H  526  1  0.75285600  0.24191400  0.23286000  1
  H  527  1  0.77308100  0.27401900  0.18075100  1
  H  528  1  0.76183400  0.31906800  0.21779500  1
  H  529  1  0.74706800  0.31102600  0.33726100  1
  H  530  1  0.74481900  0.38434800  0.31609100  1
  H  531  1  0.74465600  0.39501600  0.36238500  1
  H  534  1  0.75009100  0.24537000  0.31341900  1
  H  535  1  0.75171200  0.22120700  0.27786000  1
  H  537  1  0.77599000  0.34739900  0.26939800  1
  H  538  1  0.72103900  0.34531600  0.26654500  1
  H  540  1  0.77936100  0.35828900  0.38790100  1
  H  541  1  0.72844500  0.34566300  0.38626400  1
  H  543  1  0.76888000  0.21047000  0.18658700  1
  H  544  1  0.80071700  0.22492000  0.17213300  1
  H  546  1  0.91222000  0.30677000  0.29270100  1
  H  547  1  0.89861000  0.28853200  0.25835100  1
  H  549  1  0.58533600  0.30035300  0.28705200  1
  H  550  1  0.59758100  0.27935500  0.25268200  1
  H  575  1  0.60941300  0.59139800  0.95441100  1
  H  576  1  0.67457900  0.58249000  0.93185200  1
  H  577  1  0.82788500  0.58096900  0.93318200  1
  H  578  1  0.89177100  0.58835700  0.95689300  1
  H  579  1  0.82807700  0.59653400  0.02574400  1
  H  580  1  0.66812600  0.60061600  0.02526600  1
  H  581  1  0.75289300  0.64274400  0.00922700  1
  H  582  1  0.77317800  0.69489900  0.09343100  1
  H  583  1  0.76192200  0.65787700  0.10147100  1
  H  584  1  0.74707100  0.53836000  0.97400500  1
  H  585  1  0.74482600  0.55959100  0.06851800  1
  H  586  1  0.74462700  0.51328600  0.03291200  1
  H  589  1  0.75004000  0.56216800  0.93215400  1
  H  590  1  0.75168700  0.59772400  0.94354100  1
  H  592  1  0.77605300  0.60626500  0.07822900  1
  H  593  1  0.72110400  0.60913700  0.07900500  1
  H  595  1  0.77931900  0.48773500  0.97063900  1
  H  596  1  0.72838300  0.48937800  0.95968200  1
  H  598  1  0.76890600  0.68900900  0.02401900  1
  H  599  1  0.80075500  0.70349300  0.05291600  1
  H  601  1  0.91227200  0.58288000  0.01421000  1
  H  602  1  0.89865200  0.61722800  0.03032000  1
  H  604  1  0.58537300  0.58863500  0.01359800  1
  H  605  1  0.59763700  0.62299700  0.02694400  1
  H  630  1  0.60944700  0.92126700  0.63721400  1
  H  631  1  0.67462900  0.94380400  0.65085900  1
  H  632  1  0.82794100  0.94241200  0.64799200  1
  H  633  1  0.89179800  0.91867500  0.63166100  1
  H  634  1  0.82805400  0.84987000  0.57096300  1
  H  635  1  0.66810700  0.85039900  0.57555700  1
  H  636  1  0.75288000  0.86638400  0.63369500  1
  H  637  1  0.77310700  0.78217100  0.60160500  1
  H  638  1  0.76185500  0.77415600  0.55655300  1
  H  639  1  0.74706900  0.90165300  0.56456600  1
  H  640  1  0.74475500  0.80715500  0.49126000  1
  H  641  1  0.74455700  0.84277200  0.48058100  1
  H  644  1  0.75008500  0.94348100  0.63022700  1
  H  645  1  0.75173900  0.93208400  0.65438800  1
  H  647  1  0.77599100  0.79742000  0.52820000  1
  H  648  1  0.72104300  0.79665200  0.53030800  1
  H  650  1  0.77928400  0.90505800  0.51733900  1
  H  651  1  0.72832400  0.91599000  0.52990200  1
  H  653  1  0.76885300  0.85156500  0.66515400  1
  H  654  1  0.80071000  0.82267100  0.65072600  1
  H  656  1  0.91224600  0.86136100  0.56884200  1
  H  657  1  0.89862400  0.84525600  0.58708500  1
  H  659  1  0.58536700  0.86209400  0.57526100  1
  H  660  1  0.59761200  0.84873800  0.59627100  1
  H  666  1  0.80040000  0.89374800  0.41850000  1
  H  668  1  0.70839700  0.93902900  0.49675400  1
  H  670  1  0.72517000  0.97741000  0.45975700  1
  H  671  1  0.72505400  0.98385000  0.49370100  1
  H  672  1  0.68259000  0.96648800  0.47167200  1
  H  674  1  0.80904100  0.86510600  0.46036200  1
  H  675  1  0.81220000  0.85635200  0.42565000  1
  H  676  1  0.76655800  0.84867500  0.43787500  1
  H  678  1  0.79635800  0.93535700  0.41429300  1
  H  680  1  0.69995800  0.88798000  0.48596500  1
  H  686  1  0.80031700  0.40017300  0.98189300  1
  H  688  1  0.70841400  0.43322700  0.93663700  1
  H  690  1  0.72517900  0.35785500  0.89820200  1
  H  691  1  0.72512500  0.38537900  0.89179300  1
  H  692  1  0.68261200  0.38070100  0.90911400  1
  H  694  1  0.80897900  0.47068600  0.01061300  1
  H  695  1  0.81207300  0.44470700  0.01934200  1
  H  696  1  0.76645000  0.46462500  0.02700700  1
  H  698  1  0.79629800  0.35438700  0.94025000  1
  H  700  1  0.69993800  0.47346700  0.98768600  1
  H  706  1  0.80034500  0.45709600  0.47543500  1
  H  708  1  0.70839600  0.37881500  0.44245200  1
  H  710  1  0.72513400  0.41582400  0.51783200  1
  H  711  1  0.72504500  0.38187600  0.49033000  1
  H  712  1  0.68256600  0.40389100  0.49498500  1
  H  714  1  0.80901300  0.41523800  0.40493500  1
  H  715  1  0.81214600  0.44995100  0.43089300  1
  H  716  1  0.76651300  0.43771200  0.41098400  1
  H  718  1  0.79630200  0.46129700  0.52125100  1
  H  720  1  0.69994800  0.38957400  0.40218200  1
  H  726  1  0.30025300  0.94032300  0.49875300  1
  H  728  1  0.20845800  0.89502200  0.42039100  1
  H  730  1  0.22517600  0.85660900  0.45735400  1
  H  731  1  0.22517300  0.85019000  0.42341600  1
  H  732  1  0.18262500  0.86749900  0.44538600  1
  H  734  1  0.30894800  0.96904400  0.45696600  1
  H  735  1  0.31199500  0.97777600  0.49167600  1
  H  736  1  0.26638400  0.98542300  0.47939500  1
  H  738  1  0.29625600  0.89866100  0.50287900  1
  H  740  1  0.19994900  0.94602700  0.43113400  1
  H  746  1  0.30032200  0.43386300  0.93533100  1
  H  748  1  0.20843300  0.40086400  0.98064400  1
  H  750  1  0.22513900  0.47624900  0.01901000  1
  H  751  1  0.22508000  0.44874900  0.02545800  1
  H  752  1  0.18258100  0.45339400  0.00810600  1
  H  754  1  0.30902000  0.36336200  0.90668400  1
  H  755  1  0.31212500  0.38932300  0.89793100  1
  H  756  1  0.26650300  0.36940500  0.89026900  1
  H  758  1  0.29628700  0.47967700  0.97696000  1
  H  760  1  0.19997700  0.36059000  0.92962700  1
  H  766  1  0.30026900  0.37684300  0.44176300  1
  H  768  1  0.20842700  0.45518000  0.47481100  1
  H  770  1  0.22517300  0.41822600  0.39943900  1
  H  771  1  0.22514500  0.45216300  0.42695900  1
  H  772  1  0.18261200  0.43018000  0.42229000  1
  H  774  1  0.30894800  0.41863800  0.51227200  1
  H  775  1  0.31201600  0.38392800  0.48629600  1
  H  776  1  0.26640000  0.39619800  0.50621800  1
  H  778  1  0.29626800  0.37270400  0.39597300  1
  H  780  1  0.19993100  0.44440600  0.51506600  1
  H  786  1  0.99593800  0.93506100  0.26919400  1
  H  788  1  0.99719600  0.88736800  0.32025700  1
  H  790  1  0.08847600  0.92226500  0.33239900  1
  H  791  1  0.05167300  0.91159000  0.34786700  1
  H  792  1  0.05085200  0.94572700  0.35545400  1
  H  794  1  0.91577700  0.88124400  0.24741400  1
  H  795  1  0.95438900  0.89136600  0.23211000  1
  H  796  1  0.91893600  0.91584600  0.25583800  1
  H  798  1  0.06381500  0.94995400  0.28396700  1
  H  800  1  0.95280300  0.85211700  0.27862900  1
  H  806  1  0.99590100  0.20960900  0.94060600  1
  H  808  1  0.99719800  0.30836500  0.98833100  1
  H  810  1  0.08851900  0.28559900  0.95347600  1
  H  811  1  0.05174100  0.31175600  0.96415700  1
  H  812  1  0.05093000  0.28522600  0.93001200  1
  H  814  1  0.91567900  0.24164300  0.99438400  1
  H  815  1  0.95427900  0.21621300  0.98427800  1
  H  816  1  0.91887400  0.21547300  0.95978100  1
  H  818  1  0.06383000  0.20950000  0.92577100  1
  H  820  1  0.95271400  0.30198500  0.02354300  1
  H  826  1  0.99592800  0.60637800  0.66601900  1
  H  828  1  0.99720300  0.55530900  0.56726400  1
  H  830  1  0.08849500  0.54318900  0.59002800  1
  H  831  1  0.05170000  0.52771500  0.56388200  1
  H  832  1  0.05088000  0.52012600  0.59043100  1
  H  834  1  0.91575600  0.62814000  0.63397300  1
  H  835  1  0.95436300  0.64345300  0.65940200  1
  H  836  1  0.91892000  0.61971800  0.66015200  1
  H  838  1  0.06381500  0.59161800  0.66614200  1
  H  840  1  0.95279100  0.59692700  0.57363400  1
  H  846  1  0.49589100  0.89902200  0.64802400  1
  H  848  1  0.49722700  0.94674100  0.59698600  1
  H  850  1  0.58854400  0.91188700  0.58491400  1
  H  851  1  0.55177800  0.92256500  0.56943000  1
  H  852  1  0.55096000  0.88842100  0.56181900  1
  H  854  1  0.41566500  0.95279400  0.66974300  1
  H  855  1  0.45425300  0.94269200  0.68507800  1
  H  856  1  0.41885800  0.91819200  0.66131600  1
  H  858  1  0.56383000  0.88418900  0.63331000  1
  H  860  1  0.45273300  0.98195600  0.63857300  1
  H  866  1  0.49593100  0.62447100  0.97663700  1
  H  868  1  0.49721800  0.52571500  0.92895100  1
  H  870  1  0.58850400  0.54848000  0.96383600  1
  H  871  1  0.55170700  0.52233700  0.95317000  1
  H  872  1  0.55089200  0.54888900  0.98730600  1
  H  874  1  0.41575200  0.59242100  0.92283400  1
  H  875  1  0.45435600  0.61785100  0.93294700  1
  H  876  1  0.41892000  0.61860000  0.95743500  1
  H  878  1  0.56382700  0.62459400  0.99151400  1
  H  880  1  0.45279800  0.53208700  0.89370400  1
  H  886  1  0.49588100  0.22757500  0.25118500  1
  H  888  1  0.49719300  0.27858500  0.34994100  1
  H  890  1  0.58851000  0.29068300  0.32717600  1
  H  891  1  0.55173800  0.30615200  0.35333600  1
  H  892  1  0.55092000  0.31377700  0.32681200  1
  H  894  1  0.41566200  0.20582500  0.28321600  1
  H  895  1  0.45425900  0.19050200  0.25778300  1
  H  896  1  0.41885500  0.21426300  0.25704900  1
  H  898  1  0.56381200  0.24230300  0.25107600  1
  H  900  1  0.45271100  0.23698800  0.34355100  1
  H  906  1  0.99935800  0.89169600  0.64325800  1
  H  908  1  0.00441800  0.94634700  0.59938900  1
  H  910  1  0.91400400  0.91050800  0.58077800  1
  H  911  1  0.95331800  0.92260900  0.56820700  1
  H  912  1  0.95312600  0.88786200  0.55852300  1
  H  914  1  0.07896700  0.94613500  0.67173000  1
  H  915  1  0.03853800  0.93400900  0.68395600  1
  H  916  1  0.07549400  0.91081200  0.66042900  1
  H  918  1  0.93327900  0.87701000  0.62561400  1
  H  920  1  0.04630400  0.97932200  0.64408100  1
  H  926  1  0.99935000  0.62696700  0.98386800  1
  H  928  1  0.00443300  0.52844500  0.92921900  1
  H  930  1  0.91401200  0.54566900  0.96505700  1
  H  931  1  0.95332400  0.52099700  0.95294800  1
  H  932  1  0.95314100  0.54605500  0.98769700  1
  H  934  1  0.07896700  0.60100400  0.92943200  1
  H  935  1  0.03852900  0.62535000  0.94155100  1
  H  936  1  0.07548200  0.62502900  0.96475400  1
  H  938  1  0.93326200  0.62399500  0.99854200  1
  H  940  1  0.04632600  0.54016400  0.89624600  1
  H  946  1  0.99935100  0.23235900  0.24861700  1
  H  948  1  0.00439000  0.27622200  0.34714000  1
  H  950  1  0.91398100  0.29483000  0.32990600  1
  H  951  1  0.95328900  0.30740100  0.35458000  1
  H  952  1  0.95309900  0.31708900  0.32952000  1
  H  954  1  0.07895100  0.20388600  0.27458700  1
  H  955  1  0.03852600  0.19166100  0.25023400  1
  H  956  1  0.07548500  0.21518900  0.25056600  1
  H  958  1  0.93327800  0.25000600  0.25157000  1
  H  960  1  0.04627000  0.23152500  0.33541800  1
  H  966  1  0.49936600  0.94229400  0.27392600  1
  H  968  1  0.50440500  0.88763000  0.31778300  1
  H  970  1  0.41398700  0.92347200  0.33638600  1
  H  971  1  0.45328300  0.91135400  0.34895000  1
  H  972  1  0.45310900  0.94610600  0.35865000  1
  H  974  1  0.57898500  0.88786100  0.24545900  1
  H  975  1  0.53855700  0.89998200  0.23322800  1
  H  976  1  0.57550000  0.92318500  0.25676100  1
  H  978  1  0.43327000  0.95696600  0.29156000  1
  H  980  1  0.54631600  0.85466500  0.27309500  1
  H  986  1  0.49936900  0.20703100  0.93325700  1
  H  988  1  0.50439000  0.30555200  0.98792200  1
  H  990  1  0.41398700  0.28831500  0.95207600  1
  H  991  1  0.45329300  0.31299300  0.96418300  1
  H  992  1  0.45310600  0.28793500  0.92943400  1
  H  994  1  0.57896300  0.23300400  0.98770300  1
  H  995  1  0.53854100  0.20864700  0.97557100  1
  H  996  1  0.57550000  0.20898400  0.95237800  1
  H  998  1  0.43329500  0.20998100  0.91856100  1
  H  1000  1  0.54627600  0.29383200  0.02089600  1
  H  1006  1  0.49936600  0.60166900  0.66852900  1
  H  1008  1  0.50441800  0.55779700  0.57000800  1
  H  1010  1  0.41400200  0.53918700  0.58724400  1
  H  1011  1  0.45330800  0.52662300  0.56256600  1
  H  1012  1  0.45313400  0.51693100  0.58762400  1
  H  1014  1  0.57897300  0.63014000  0.64256000  1
  H  1015  1  0.53854100  0.64236800  0.66690900  1
  H  1016  1  0.57549400  0.61884100  0.66658300  1
  H  1018  1  0.43327900  0.58402700  0.66556800  1
  H  1020  1  0.54631000  0.60248500  0.58172300  1
  H  1026  1  0.80341300  0.78540600  0.13669300  1
  H  1028  1  0.69095600  0.72006500  0.09646600  1
  H  1030  1  0.69548200  0.75462700  0.17225800  1
  H  1031  1  0.69281700  0.72077600  0.14439500  1
  H  1032  1  0.65808500  0.74622000  0.14646900  1
  H  1034  1  0.83479100  0.75826600  0.08529600  1
  H  1035  1  0.80272300  0.78584300  0.08978800  1
  H  1036  1  0.79586700  0.75309300  0.06101400  1
  H  1038  1  0.79416700  0.77146300  0.17417000  1
  H  1040  1  0.70968500  0.71325000  0.05207900  1
  H  1046  1  0.80344500  0.22673800  0.09019600  1
  H  1048  1  0.69097700  0.25189400  0.15553200  1
  H  1050  1  0.69555000  0.29310800  0.12096900  1
  H  1051  1  0.69286500  0.29908900  0.15481500  1
  H  1052  1  0.65813800  0.27572700  0.12936300  1
  H  1054  1  0.83479600  0.20248900  0.11736300  1
  H  1055  1  0.80274300  0.17940500  0.08977500  1
  H  1056  1  0.79585300  0.18338200  0.12252300  1
  H  1058  1  0.79420300  0.27817500  0.10413600  1
  H  1060  1  0.70965300  0.21429800  0.16234100  1
  H  1066  1  0.80341800  0.73890200  0.64887900  1
  H  1068  1  0.69095200  0.77908500  0.62372100  1
  H  1070  1  0.69553500  0.70329500  0.58250400  1
  H  1071  1  0.69285600  0.73115300  0.57650800  1
  H  1072  1  0.65811600  0.72907300  0.59987200  1
  H  1074  1  0.83475800  0.79030900  0.67314200  1
  H  1075  1  0.80267900  0.78581000  0.69621700  1
  H  1076  1  0.79581200  0.81457900  0.69223500  1
  H  1078  1  0.79421300  0.70141500  0.59745800  1
  H  1080  1  0.70963600  0.82348400  0.66130600  1
  H  1086  1  0.30346800  0.04863300  0.78048900  1
  H  1088  1  0.19095300  0.11393700  0.82063000  1
  H  1090  1  0.19557500  0.07936900  0.74485500  1
  H  1091  1  0.19286200  0.11321600  0.77271800  1
  H  1092  1  0.15814700  0.08775300  0.77061900  1
  H  1094  1  0.33477800  0.07580800  0.83191700  1
  H  1095  1  0.30273700  0.04821100  0.82739900  1
  H  1096  1  0.29581400  0.08095600  0.85617000  1
  H  1098  1  0.29423800  0.06257100  0.74298900  1
  H  1100  1  0.20961400  0.12077500  0.86504400  1
  H  1106  1  0.30347100  0.60730300  0.82698000  1
  H  1108  1  0.19097200  0.58218500  0.76166700  1
  H  1110  1  0.19554100  0.54096000  0.79623200  1
  H  1111  1  0.19284900  0.53497100  0.76238200  1
  H  1112  1  0.15812900  0.55834200  0.78783500  1
  H  1114  1  0.33481800  0.63156000  0.79983100  1
  H  1115  1  0.30276200  0.65464300  0.82741400  1
  H  1116  1  0.29587900  0.65066700  0.79466700  1
  H  1118  1  0.29423500  0.55588700  0.81304400  1
  H  1120  1  0.20968600  0.61975300  0.75484100  1
  H  1126  1  0.30347700  0.09512300  0.26832000  1
  H  1128  1  0.19098700  0.05492100  0.29343000  1
  H  1130  1  0.19554400  0.13069600  0.33466300  1
  H  1131  1  0.19284900  0.10282400  0.34063300  1
  H  1132  1  0.15813800  0.10492000  0.31726700  1
  H  1134  1  0.33483700  0.04370900  0.24406700  1
  H  1135  1  0.30280600  0.04821900  0.22098100  1
  H  1136  1  0.29590400  0.01944300  0.22494700  1
  H  1138  1  0.29420100  0.13260800  0.31976200  1
  H  1140  1  0.20968900  0.01052100  0.25584100  1
  C  1  1  0.74659100  0.87343900  0.32549100  1
  C  2  1  0.74161400  0.84995100  0.32828000  1
  C  3  1  0.74817500  0.81909700  0.27708200  1
  C  4  1  0.75064000  0.84205100  0.27315600  1
  C  5  1  0.75346400  0.83709600  0.24581800  1
  C  6  1  0.75460700  0.81029000  0.22277000  1
  C  7  1  0.75238400  0.78803000  0.22764000  1
  C  8  1  0.74925000  0.79234100  0.25428000  1
  C  9  1  0.73360900  0.85302000  0.35431600  1
  C  10  1  0.73052200  0.87911200  0.37760500  1
  C  11  1  0.73794500  0.90288700  0.37595100  1
  C  12  1  0.74553800  0.89960600  0.34974800  1
  C  13  1  0.79007300  0.88464400  0.29734900  1
  C  14  1  0.79047900  0.90965900  0.29701900  1
  C  15  1  0.71193500  0.90957100  0.29490100  1
  C  16  1  0.71052600  0.88437200  0.29482200  1
  C  17  1  0.67453000  0.92335300  0.29625700  1
  C  18  1  0.63602900  0.91282100  0.29832900  1
  C  19  1  0.63348300  0.88735900  0.29731500  1
  C  20  1  0.67093900  0.87334800  0.29520500  1
  C  21  1  0.82864200  0.87364900  0.29963800  1
  C  22  1  0.86686300  0.88721900  0.30248500  1
  C  23  1  0.86601000  0.91257700  0.30319200  1
  C  24  1  0.82857300  0.92329400  0.29979800  1
  C  37  1  0.74967800  0.87096400  0.29743500  1
  C  38  1  0.75174800  0.92311900  0.29550500  1
  C  41  1  0.74303000  0.82183200  0.30446000  1
  C  44  1  0.73423600  0.93062700  0.40082700  1
  C  47  1  0.75644300  0.80609100  0.19437100  1
  C  50  1  0.59300500  0.87700100  0.30129200  1
  C  53  1  0.90666900  0.87609800  0.30638600  1
  C  56  1  0.74651900  0.32750000  0.00214800  1
  C  57  1  0.74149700  0.35377300  0.02563300  1
  C  58  1  0.74813400  0.33343700  0.05649100  1
  C  59  1  0.75061700  0.30655800  0.03353700  1
  C  60  1  0.75347200  0.28417900  0.03849700  1
  C  61  1  0.75463000  0.28793800  0.06530100  1
  C  62  1  0.75241400  0.31507000  0.08756100  1
  C  63  1  0.74922300  0.33739600  0.08324900  1
  C  64  1  0.73344100  0.37673300  0.02256300  1
  C  65  1  0.73035900  0.37392800  0.99646800  1
  C  66  1  0.73784200  0.34850600  0.97269700  1
  C  67  1  0.74547200  0.32559100  0.97598200  1
  C  68  1  0.79004400  0.28817100  0.99094600  1
  C  69  1  0.79046900  0.26282400  0.96593500  1
  C  70  1  0.71192500  0.26077500  0.96600500  1
  C  71  1  0.71050100  0.28588400  0.99121400  1
  C  72  1  0.67452300  0.24833500  0.95222300  1
  C  73  1  0.63602000  0.26092700  0.96275400  1
  C  74  1  0.63346100  0.28537100  0.98822000  1
  C  75  1  0.67090800  0.29727100  0.00224700  1
  C  76  1  0.82860500  0.30147100  0.00193500  1
  C  77  1  0.86683700  0.29074500  0.98838800  1
  C  78  1  0.86600200  0.26609200  0.96303200  1
  C  79  1  0.82857000  0.25197800  0.95230300  1
  C  92  1  0.74964200  0.30192300  0.00462500  1
  C  93  1  0.75174800  0.24784200  0.95246500  1
  C  96  1  0.74292300  0.35807500  0.05375300  1
  C  99  1  0.73417000  0.34564300  0.94495600  1
  C  102  1  0.75649100  0.26374200  0.06950500  1
  C  105  1  0.59298000  0.29970100  0.99857400  1
  C  108  1  0.90663900  0.30576600  0.99952900  1
  C  111  1  0.74657200  0.55009000  0.54811900  1
  C  112  1  0.74158500  0.54730100  0.52184300  1
  C  113  1  0.74821300  0.59849400  0.54217900  1
  C  114  1  0.75065800  0.60242300  0.56906100  1
  C  115  1  0.75348700  0.62976200  0.59144200  1
  C  116  1  0.75464700  0.65280700  0.58768100  1
  C  117  1  0.75245600  0.64793500  0.56054900  1
  C  118  1  0.74929000  0.62129500  0.53822200  1
  C  119  1  0.73355500  0.52126800  0.49887900  1
  C  120  1  0.73048300  0.49797500  0.50167700  1
  C  121  1  0.73788800  0.49963500  0.52711000  1
  C  122  1  0.74551300  0.52583200  0.55002800  1
  C  123  1  0.79007400  0.57822200  0.58745600  1
  C  124  1  0.79048100  0.57855900  0.61280300  1
  C  125  1  0.71193900  0.58068600  0.61484000  1
  C  126  1  0.71052800  0.58077100  0.58972300  1
  C  127  1  0.67453000  0.57933700  0.62726700  1
  C  128  1  0.63602900  0.57728100  0.61467100  1
  C  129  1  0.63348600  0.57828800  0.59021900  1
  C  130  1  0.67094200  0.58041000  0.57832600  1
  C  131  1  0.82864100  0.57592400  0.57416800  1
  C  132  1  0.86686100  0.57307000  0.58488700  1
  C  133  1  0.86600800  0.57236000  0.60953500  1
  C  134  1  0.82857300  0.57576500  0.62365200  1
  C  147  1  0.74967900  0.57814700  0.57369700  1
  C  148  1  0.75175100  0.58007300  0.62778000  1
  C  151  1  0.74303900  0.57111800  0.51753900  1
  C  154  1  0.73417700  0.47476000  0.52997600  1
  C  157  1  0.75648700  0.68120700  0.61187900  1
  C  160  1  0.59301400  0.57430000  0.57587500  1
  C  163  1  0.90666600  0.56916400  0.56986100  1
  C  166  1  0.24652300  0.96056700  0.59166700  1
  C  167  1  0.24149700  0.98405300  0.58887900  1
  C  168  1  0.24817400  0.01491200  0.64007000  1
  C  169  1  0.25065500  0.99195800  0.64399600  1
  C  170  1  0.25352400  0.99691600  0.67133300  1
  C  171  1  0.25469000  0.02372400  0.69438100  1
  C  172  1  0.25245100  0.04598400  0.68950900  1
  C  173  1  0.24925900  0.04166900  0.66286900  1
  C  174  1  0.23344500  0.98098200  0.56284800  1
  C  175  1  0.23034300  0.95489100  0.53956200  1
  C  176  1  0.23781300  0.93111800  0.54121200  1
  C  177  1  0.24544500  0.93439900  0.56740800  1
  C  178  1  0.29006900  0.94935900  0.61977900  1
  C  179  1  0.29049200  0.92434600  0.62010900  1
  C  180  1  0.21195500  0.92444100  0.62227700  1
  C  181  1  0.21052800  0.94964200  0.62236400  1
  C  182  1  0.17455500  0.91067400  0.62096700  1
  C  183  1  0.13604800  0.92119500  0.61888800  1
  C  184  1  0.13348900  0.94665300  0.61989200  1
  C  185  1  0.17093600  0.96067700  0.62201400  1
  C  186  1  0.32862900  0.96034900  0.61746200  1
  C  187  1  0.36685900  0.94679600  0.61463400  1
  C  188  1  0.36602600  0.92143700  0.61392000  1
  C  189  1  0.32858900  0.91069900  0.61728700  1
  C  202  1  0.24966600  0.96304400  0.61972000  1
  C  203  1  0.25177400  0.91088500  0.62164300  1
  C  206  1  0.24295100  0.01217400  0.61269600  1
  C  209  1  0.23412600  0.90337900  0.51632900  1
  C  212  1  0.25655500  0.02792600  0.72277900  1
  C  215  1  0.09300500  0.95698700  0.61589300  1
  C  218  1  0.40666600  0.95794600  0.61077100  1
  C  221  1  0.24656700  0.50654900  0.91503200  1
  C  222  1  0.24158000  0.48027200  0.89154300  1
  C  223  1  0.24822700  0.50061000  0.86068700  1
  C  224  1  0.25068600  0.52748900  0.88364000  1
  C  225  1  0.25352700  0.54987000  0.87868300  1
  C  226  1  0.25469000  0.54611200  0.85187800  1
  C  227  1  0.25249200  0.51898000  0.82961800  1
  C  228  1  0.24931200  0.49665200  0.83393000  1
  C  229  1  0.23353200  0.45731100  0.89461200  1
  C  230  1  0.23047000  0.46010600  0.92070100  1
  C  231  1  0.23788100  0.48553800  0.94447800  1
  C  232  1  0.24548800  0.50845800  0.94119800  1
  C  233  1  0.29008800  0.54587900  0.92624300  1
  C  234  1  0.29049500  0.57122700  0.95125300  1
  C  235  1  0.21195500  0.57327600  0.95115300  1
  C  236  1  0.21054400  0.54815900  0.92595200  1
  C  237  1  0.17454800  0.58570100  0.96493000  1
  C  238  1  0.13604500  0.57311800  0.95438300  1
  C  239  1  0.13350200  0.54866000  0.92892800  1
  C  240  1  0.17095800  0.53677000  0.91490300  1
  C  241  1  0.32865100  0.53258100  0.91526200  1
  C  242  1  0.36687500  0.54331300  0.92882300  1
  C  243  1  0.36602600  0.56796400  0.95417900  1
  C  244  1  0.32858600  0.58206300  0.96490600  1
  C  257  1  0.24969100  0.53212500  0.91255200  1
  C  258  1  0.25176800  0.58621200  0.96470900  1
  C  261  1  0.24303500  0.47597000  0.86342300  1
  C  264  1  0.23416000  0.48839600  0.97221600  1
  C  267  1  0.25652700  0.57031000  0.84767800  1
  C  270  1  0.09302400  0.53432100  0.91859000  1
  C  273  1  0.40668400  0.52830000  0.91769100  1
  C  276  1  0.24650100  0.28392000  0.36908200  1
  C  277  1  0.24146900  0.28670700  0.39535400  1
  C  278  1  0.24810600  0.23551300  0.37501500  1
  C  279  1  0.25060800  0.23158900  0.34813800  1
  C  280  1  0.25347700  0.20425200  0.32575600  1
  C  281  1  0.25463100  0.18120600  0.32951500  1
  C  282  1  0.25238300  0.18607500  0.35664600  1
  C  283  1  0.24919000  0.21271200  0.37897100  1
  C  284  1  0.23341100  0.31273600  0.41831500  1
  C  285  1  0.23032700  0.33602500  0.41551200  1
  C  286  1  0.23781000  0.33437900  0.39009400  1
  C  287  1  0.24544500  0.30818100  0.36717700  1
  C  288  1  0.29003800  0.25580300  0.32975900  1
  C  289  1  0.29046700  0.25547300  0.30441500  1
  C  290  1  0.21192700  0.25333400  0.30234800  1
  C  291  1  0.21050000  0.25323400  0.32745600  1
  C  292  1  0.17453000  0.25469800  0.28992000  1
  C  293  1  0.13602300  0.25674800  0.30250300  1
  C  294  1  0.13345800  0.25572400  0.32694600  1
  C  295  1  0.17090500  0.25357900  0.33883800  1
  C  296  1  0.32859500  0.25810800  0.34306000  1
  C  297  1  0.36683100  0.26092700  0.33233500  1
  C  298  1  0.36600100  0.26164600  0.30769100  1
  C  299  1  0.32856700  0.25828700  0.29358700  1
  C  312  1  0.24963200  0.25586800  0.34350400  1
  C  313  1  0.25175200  0.25395300  0.28942200  1
  C  316  1  0.24290500  0.26288800  0.39965500  1
  C  319  1  0.23413800  0.35925800  0.38723300  1
  C  322  1  0.25651800  0.15280900  0.30531700  1
  C  325  1  0.09298000  0.25971200  0.34128200  1
  C  328  1  0.40663500  0.26479000  0.34735000  1
  C  331  1  0.24657600  0.51456600  0.61266700  1
  C  332  1  0.24607200  0.49287800  0.61859800  1
  C  333  1  0.25205700  0.52640800  0.66925400  1
  C  334  1  0.25035600  0.54881200  0.66444400  1
  C  335  1  0.25363600  0.57573400  0.68748400  1
  C  336  1  0.26099400  0.58062300  0.71434400  1
  C  337  1  0.26494800  0.55770700  0.71794100  1
  C  338  1  0.25900800  0.53109200  0.69599500  1
  C  339  1  0.24468300  0.46542500  0.59707700  1
  C  340  1  0.24442800  0.45915500  0.56971400  1
  C  341  1  0.24473000  0.48009100  0.56287600  1
  C  342  1  0.24603800  0.50758900  0.58463100  1
  C  343  1  0.20930000  0.55798100  0.63363000  1
  C  344  1  0.21083600  0.58007000  0.62832400  1
  C  345  1  0.28921100  0.57825300  0.62691800  1
  C  346  1  0.28891000  0.55578100  0.63164100  1
  C  347  1  0.32737900  0.58992300  0.62561400  1
  C  348  1  0.36509700  0.58030900  0.63005800  1
  C  349  1  0.36603300  0.55786900  0.63463300  1
  C  350  1  0.32779000  0.54541500  0.63444700  1
  C  351  1  0.16971800  0.54963800  0.63806000  1
  C  352  1  0.13252300  0.56322200  0.63842100  1
  C  353  1  0.13527700  0.58509900  0.63304700  1
  C  354  1  0.17373400  0.59311600  0.62767300  1
  C  367  1  0.24857800  0.54420100  0.63548500  1
  C  368  1  0.25047700  0.59086700  0.62419400  1
  C  371  1  0.24869300  0.49763600  0.64686300  1
  C  374  1  0.24692700  0.47353400  0.53372000  1
  C  377  1  0.26916000  0.60878600  0.73775900  1
  C  380  1  0.40511800  0.54777600  0.64098300  1
  C  383  1  0.09246400  0.55468500  0.64539500  1
  C  386  1  0.24655700  0.26297700  0.90213900  1
  C  387  1  0.24601300  0.25706300  0.87452600  1
  C  388  1  0.25197600  0.20640000  0.85736700  1
  C  389  1  0.25030300  0.21119300  0.88457500  1
  C  390  1  0.25355800  0.18813900  0.88843800  1
  C  391  1  0.26091000  0.16128300  0.86645200  1
  C  392  1  0.26483000  0.15770300  0.83994400  1
  C  393  1  0.25889600  0.17966100  0.83529500  1
  C  394  1  0.24461800  0.27859500  0.86861100  1
  C  395  1  0.24443100  0.30595400  0.88971500  1
  C  396  1  0.24475800  0.31277400  0.91748400  1
  C  397  1  0.24605100  0.29100800  0.92321000  1
  C  398  1  0.20929700  0.24200300  0.92458600  1
  C  399  1  0.21085800  0.24729200  0.95197500  1
  C  400  1  0.28923900  0.24866400  0.95152400  1
  C  401  1  0.28890700  0.24396300  0.92433800  1
  C  402  1  0.32741700  0.24993600  0.96447400  1
  C  403  1  0.36511900  0.24548200  0.95039700  1
  C  404  1  0.36602600  0.24093100  0.92339100  1
  C  405  1  0.32777400  0.24114800  0.91114800  1
  C  406  1  0.16970200  0.23759500  0.91183400  1
  C  407  1  0.13252600  0.23721500  0.92506400  1
  C  408  1  0.13530500  0.24257400  0.95230700  1
  C  409  1  0.17377100  0.24794600  0.96568600  1
  C  422  1  0.24855900  0.24014500  0.90893600  1
  C  423  1  0.25051800  0.25139200  0.96687800  1
  C  426  1  0.24862800  0.22880500  0.85100700  1
  C  429  1  0.24697400  0.34192900  0.94009100  1
  C  432  1  0.26908900  0.13785800  0.87117900  1
  C  435  1  0.40509300  0.23457900  0.90692800  1
  C  438  1  0.09245500  0.23024100  0.90956500  1
  C  441  1  0.24657300  0.97351700  0.36103300  1
  C  442  1  0.24607200  0.00113500  0.38272400  1
  C  443  1  0.25203200  0.01826800  0.34919900  1
  C  444  1  0.25033800  0.99105500  0.32679300  1
  C  445  1  0.25362300  0.98717500  0.29987200  1
  C  446  1  0.26095100  0.00914900  0.29498100  1
  C  447  1  0.26490500  0.03565900  0.31790100  1
  C  448  1  0.25893600  0.04032900  0.34451600  1
  C  449  1  0.24472000  0.00706300  0.41017600  1
  C  450  1  0.24451800  0.98596600  0.41644300  1
  C  451  1  0.24477900  0.95819300  0.39550200  1
  C  452  1  0.24604800  0.95245400  0.36800500  1
  C  453  1  0.20928800  0.95106900  0.31762000  1
  C  454  1  0.21082300  0.92367300  0.29553200  1
  C  455  1  0.28920200  0.92408900  0.29734100  1
  C  456  1  0.28890000  0.95128400  0.31981600  1
  C  457  1  0.32737000  0.91111300  0.28567100  1
  C  458  1  0.36508400  0.92517500  0.29527400  1
  C  459  1  0.36602000  0.95219000  0.31771700  1
  C  460  1  0.32778000  0.96445500  0.33018000  1
  C  461  1  0.16970500  0.96383800  0.32597200  1
  C  462  1  0.13251600  0.95062300  0.31237000  1
  C  463  1  0.13527100  0.92337100  0.29049400  1
  C  464  1  0.17372200  0.90997100  0.28249400  1
  C  477  1  0.24856600  0.96670400  0.33139900  1
  C  478  1  0.25046800  0.90875200  0.28472700  1
  C  481  1  0.24869600  0.02464500  0.37797100  1
  C  484  1  0.24702400  0.93559800  0.40206300  1
  C  487  1  0.26915400  0.00441100  0.26682700  1
  C  490  1  0.40510800  0.96863100  0.32781000  1
  C  493  1  0.09245500  0.96613400  0.32090300  1
  C  496  1  0.74653100  0.31941800  0.30455800  1
  C  497  1  0.74599400  0.34111700  0.29864400  1
  C  498  1  0.75196100  0.30761200  0.24798100  1
  C  499  1  0.75029900  0.28519900  0.25277500  1
  C  500  1  0.75360400  0.25828600  0.22972400  1
  C  501  1  0.76091100  0.25341300  0.20286600  1
  C  502  1  0.76482100  0.27634200  0.19928400  1
  C  503  1  0.75886200  0.30294900  0.22124200  1
  C  504  1  0.74459700  0.36856500  0.32017500  1
  C  505  1  0.74437500  0.37482000  0.34753400  1
  C  506  1  0.74469200  0.35387100  0.35435500  1
  C  507  1  0.74601000  0.32638000  0.33259000  1
  C  508  1  0.70928500  0.27599100  0.28357500  1
  C  509  1  0.71084800  0.25389800  0.28887400  1
  C  510  1  0.78922700  0.25572400  0.29024900  1
  C  511  1  0.78889700  0.27821500  0.28555400  1
  C  512  1  0.82740600  0.24405900  0.29154100  1
  C  513  1  0.86510700  0.25367700  0.28707900  1
  C  514  1  0.86601200  0.27612900  0.28252200  1
  C  515  1  0.82776400  0.28860100  0.28275800  1
  C  516  1  0.66968900  0.28432300  0.27915200  1
  C  517  1  0.63251000  0.27072100  0.27878300  1
  C  518  1  0.63529500  0.24883700  0.28414500  1
  C  519  1  0.67376200  0.24084300  0.28953400  1
  C  532  1  0.74854700  0.28979000  0.28172800  1
  C  533  1  0.75050700  0.24309800  0.29297700  1
  C  536  1  0.74862000  0.33637900  0.27038600  1
  C  539  1  0.74690200  0.36041600  0.38350800  1
  C  542  1  0.76912600  0.22527100  0.17943400  1
  C  545  1  0.90507900  0.28623700  0.27616900  1
  C  548  1  0.59243600  0.27925000  0.27182100  1
  C  551  1  0.74655800  0.57108100  0.01509500  1
  C  552  1  0.74604400  0.57701400  0.04271500  1
  C  553  1  0.75204500  0.62766800  0.05983600  1
  C  554  1  0.75036300  0.62285600  0.03262300  1
  C  555  1  0.75366800  0.64589200  0.02873900  1
  C  556  1  0.76099700  0.67275600  0.05071200  1
  C  557  1  0.76494100  0.67635800  0.07722800  1
  C  558  1  0.75903000  0.65440500  0.08189200  1
  C  559  1  0.74462500  0.55549200  0.04864600  1
  C  560  1  0.74434500  0.52812900  0.02755400  1
  C  561  1  0.74469100  0.52129300  0.99978200  1
  C  562  1  0.74601300  0.54304600  0.99403600  1
  C  563  1  0.70929900  0.59204800  0.99264100  1
  C  564  1  0.71083600  0.58673500  0.96524400  1
  C  565  1  0.78921400  0.58533000  0.96565900  1
  C  566  1  0.78891100  0.59004600  0.99285200  1
  C  567  1  0.82738200  0.58401900  0.95268200  1
  C  568  1  0.86509600  0.58847600  0.96674600  1
  C  569  1  0.86602900  0.59304500  0.99375900  1
  C  570  1  0.82779000  0.59283600  0.00601900  1
  C  571  1  0.66971400  0.59647800  0.00541200  1
  C  572  1  0.63252900  0.59686800  0.99219600  1
  C  573  1  0.63528600  0.59149000  0.96494500  1
  C  574  1  0.67373700  0.58608100  0.95154400  1
  C  587  1  0.74857600  0.59389700  0.00827600  1
  C  588  1  0.75048000  0.58261300  0.95032100  1
  C  591  1  0.74868400  0.60527800  0.06621900  1
  C  594  1  0.74686900  0.49213400  0.97718100  1
  C  597  1  0.76916700  0.69617800  0.04597600  1
  C  600  1  0.90511000  0.59940900  0.01020900  1
  C  603  1  0.59246700  0.60385100  0.00770800  1
  C  606  1  0.74653400  0.86056000  0.55618100  1
  C  607  1  0.74598700  0.83294600  0.53448800  1
  C  608  1  0.75200400  0.81579800  0.56799800  1
  C  609  1  0.75034200  0.84300600  0.59041000  1
  C  610  1  0.75364700  0.84687500  0.61732500  1
  C  611  1  0.76094800  0.82489100  0.62220500  1
  C  612  1  0.76490200  0.79838400  0.59927700  1
  C  613  1  0.75897800  0.79373500  0.57266700  1
  C  614  1  0.74453200  0.82702400  0.50704000  1
  C  615  1  0.74428200  0.84812400  0.50077800  1
  C  616  1  0.74464900  0.87589600  0.52172200  1
  C  617  1  0.74600500  0.88162800  0.54921600  1
  C  618  1  0.70930400  0.88300600  0.59961500  1
  C  619  1  0.71086400  0.91039900  0.62170500  1
  C  620  1  0.78924100  0.90996300  0.61986400  1
  C  621  1  0.78891400  0.88277300  0.59738000  1
  C  622  1  0.82741900  0.92292900  0.63151700  1
  C  623  1  0.86511800  0.90884100  0.62192200  1
  C  624  1  0.86602700  0.88182800  0.59947500  1
  C  625  1  0.82778300  0.86959200  0.58699600  1
  C  626  1  0.66971100  0.87024900  0.59127900  1
  C  627  1  0.63253500  0.88347400  0.60489500  1
  C  628  1  0.63531400  0.91072200  0.62677300  1
  C  629  1  0.67377700  0.92410300  0.63477600  1
  C  642  1  0.74856700  0.86736500  0.58581300  1
  C  643  1  0.75052000  0.92530900  0.63249700  1
  C  646  1  0.74862900  0.80943000  0.53923100  1
  C  649  1  0.74683900  0.89850300  0.51517300  1
  C  652  1  0.76912000  0.82961000  0.65035500  1
  C  655  1  0.90509600  0.86536700  0.58937600  1
  C  658  1  0.59246400  0.86797600  0.59636500  1
  C  661  1  0.74550600  0.90411200  0.47366700  1
  C  662  1  0.77302700  0.89092300  0.45109000  1
  C  663  1  0.78176000  0.90356900  0.43542200  1
  C  664  1  0.76220300  0.92825700  0.44093600  1
  C  665  1  0.73653500  0.94221500  0.46449000  1
  C  667  1  0.72853800  0.92986300  0.48055500  1
  C  669  1  0.71631300  0.96894200  0.47269600  1
  C  673  1  0.79131100  0.86375200  0.44321600  1
  C  681  1  0.74547100  0.44502700  0.97157400  1
  C  682  1  0.77296100  0.43561400  0.98475700  1
  C  683  1  0.78167000  0.40729900  0.97209600  1
  C  684  1  0.76215800  0.38814300  0.94738200  1
  C  685  1  0.73652700  0.39776400  0.93342800  1
  C  687  1  0.72855000  0.42618700  0.94579900  1
  C  689  1  0.71633900  0.37926600  0.90668200  1
  C  693  1  0.79121800  0.45489200  0.01194300  1
  C  701  1  0.74548700  0.40191200  0.43062400  1
  C  702  1  0.77299200  0.42449900  0.44001700  1
  C  703  1  0.78171500  0.44016900  0.46833200  1
  C  704  1  0.76216100  0.43465100  0.48750400  1
  C  705  1  0.73650800  0.41108900  0.47790500  1
  C  707  1  0.72852500  0.39502000  0.44948600  1
  C  709  1  0.71629000  0.40287900  0.49642300  1
  C  713  1  0.79126900  0.43237900  0.42072300  1
  C  721  1  0.24546900  0.92997700  0.44354700  1
  C  722  1  0.27292500  0.94317500  0.46616100  1
  C  723  1  0.28162300  0.93051900  0.48182300  1
  C  724  1  0.26212900  0.90579600  0.47625400  1
  C  725  1  0.23652900  0.89183100  0.45266600  1
  C  727  1  0.22857100  0.90419500  0.43660600  1
  C  729  1  0.21635400  0.86508000  0.44441200  1
  C  733  1  0.29116400  0.97036800  0.47408200  1
  C  741  1  0.24550400  0.38904400  0.94571400  1
  C  742  1  0.27299000  0.39844000  0.93251400  1
  C  743  1  0.28170100  0.42675500  0.94515600  1
  C  744  1  0.26215400  0.44592400  0.96985100  1
  C  745  1  0.23652000  0.43632200  0.98381800  1
  C  747  1  0.22854900  0.40790100  0.97146900  1
  C  749  1  0.21630700  0.45483800  0.01054900  1
  C  753  1  0.29126300  0.37914900  0.90533800  1
  C  761  1  0.24545700  0.43203500  0.48661400  1
  C  762  1  0.27292800  0.40943200  0.47720400  1
  C  763  1  0.28163200  0.39376800  0.44888500  1
  C  764  1  0.26213200  0.39933300  0.42973100  1
  C  765  1  0.23652000  0.42291400  0.43934900  1
  C  767  1  0.22854900  0.43897200  0.46777200  1
  C  769  1  0.21634100  0.43116400  0.42085100  1
  C  773  1  0.29117300  0.40151800  0.49647900  1
  C  781  1  0.96703200  0.89064500  0.28911300  1
  C  782  1  0.96703900  0.90421600  0.27372700  1
  C  783  1  0.99665900  0.92505700  0.28018200  1
  C  784  1  0.02782600  0.93226400  0.30050300  1
  C  785  1  0.02774800  0.91824800  0.31577200  1
  C  787  1  0.99760000  0.89759500  0.30951100  1
  C  789  1  0.05626400  0.92479400  0.33904000  1
  C  793  1  0.93726500  0.89769000  0.25107500  1
  C  801  1  0.96699300  0.27394400  0.98502300  1
  C  802  1  0.96699000  0.24498800  0.97144700  1
  C  803  1  0.99663500  0.23060000  0.95062200  1
  C  804  1  0.02782000  0.24371700  0.94343000  1
  C  805  1  0.02776400  0.27300300  0.95746100  1
  C  807  1  0.99759700  0.28739400  0.97810000  1
  C  809  1  0.05631700  0.28972600  0.95094100  1
  C  813  1  0.93718300  0.22885900  0.97794900  1
  C  821  1  0.96702700  0.58644900  0.60168100  1
  C  822  1  0.96702900  0.60183800  0.63063900  1
  C  823  1  0.99665300  0.59538900  0.64502800  1
  C  824  1  0.02782900  0.57507300  0.63191600  1
  C  825  1  0.02775800  0.55980300  0.60263100  1
  C  827  1  0.99760400  0.56605500  0.58823500  1
  C  829  1  0.05628300  0.53654200  0.58591300  1
  C  833  1  0.93724600  0.62448400  0.64676000  1
  C  841  1  0.46700200  0.94343500  0.62809500  1
  C  842  1  0.46698600  0.92985900  0.64347700  1
  C  843  1  0.49663400  0.90903600  0.63704600  1
  C  844  1  0.52782600  0.90184300  0.61674300  1
  C  845  1  0.52778200  0.91587400  0.60148700  1
  C  847  1  0.49761600  0.93651100  0.60772700  1
  C  849  1  0.55634500  0.90935100  0.57824800  1
  C  853  1  0.43716800  0.93636200  0.66610100  1
  C  861  1  0.46703300  0.56013000  0.93222900  1
  C  862  1  0.46703300  0.58908700  0.94579800  1
  C  863  1  0.49665800  0.60348000  0.96663600  1
  C  864  1  0.52783500  0.59036900  0.97383900  1
  C  865  1  0.52776700  0.56108300  0.95982400  1
  C  867  1  0.49761600  0.54668800  0.93917800  1
  C  869  1  0.55629500  0.54436700  0.96637000  1
  C  873  1  0.43724300  0.60520900  0.93927500  1
  C  881  1  0.46698300  0.24748000  0.31552000  1
  C  882  1  0.46697700  0.23210500  0.28656200  1
  C  883  1  0.49661800  0.23854600  0.27217600  1
  C  884  1  0.52780400  0.25885400  0.28529500  1
  C  885  1  0.52775400  0.27410200  0.31458100  1
  C  887  1  0.49758800  0.26785000  0.32897000  1
  C  889  1  0.55630700  0.29734400  0.33130700  1
  C  893  1  0.43716800  0.20947700  0.27043200  1
  C  901  1  0.03148500  0.94005300  0.62958000  1
  C  902  1  0.02967300  0.92438700  0.64282200  1
  C  903  1  0.00002500  0.90315400  0.63375000  1
  C  904  1  0.97060800  0.89745600  0.61276800  1
  C  905  1  0.97271700  0.91344200  0.59953600  1
  C  907  1  0.00264900  0.93465800  0.60859300  1
  C  909  1  0.94684100  0.90835300  0.57555800  1
  C  913  1  0.05733600  0.92922800  0.66597400  1
  C  921  1  0.03149100  0.56493300  0.93551400  1
  C  922  1  0.02967300  0.59384200  0.95117600  1
  C  923  1  0.00001600  0.60599800  0.97240400  1
  C  924  1  0.97061400  0.59071200  0.97811100  1
  C  925  1  0.97272100  0.56149400  0.96212000  1
  C  927  1  0.00265800  0.54933900  0.94090400  1
  C  929  1  0.94685000  0.54260300  0.96720700  1
  C  933  1  0.05732700  0.61215400  0.94633500  1
  C  941  1  0.03146600  0.24603300  0.31065300  1
  C  942  1  0.02966000  0.23279200  0.28174500  1
  C  943  1  0.00001300  0.24186800  0.26958600  1
  C  944  1  0.97059500  0.26284900  0.28486900  1
  C  945  1  0.97269900  0.27607700  0.31408500  1
  C  947  1  0.00263000  0.26701800  0.32624400  1
  C  949  1  0.94681600  0.30005100  0.33297400  1
  C  953  1  0.05732100  0.20964100  0.26343600  1
  C  961  1  0.53148800  0.89393300  0.28759900  1
  C  962  1  0.52967900  0.90960000  0.27435800  1
  C  963  1  0.50002200  0.93082800  0.28342700  1
  C  964  1  0.47061100  0.93653000  0.30441300  1
  C  965  1  0.47270600  0.92053500  0.31763500  1
  C  967  1  0.50263900  0.89931900  0.30857600  1
  C  969  1  0.44682000  0.92561800  0.34160800  1
  C  973  1  0.55734600  0.90476300  0.25120900  1
  C  981  1  0.53147200  0.26906900  0.98162300  1
  C  982  1  0.52966900  0.24016100  0.96595400  1
  C  983  1  0.50002800  0.22799900  0.94471800  1
  C  984  1  0.47060800  0.24328200  0.93902000  1
  C  985  1  0.47270600  0.27249700  0.95501000  1
  C  987  1  0.50263300  0.28465900  0.97623000  1
  C  989  1  0.44682000  0.29138600  0.94992500  1
  C  993  1  0.55733600  0.22185100  0.97079500  1
  C  1001  1  0.53149100  0.58798900  0.60649300  1
  C  1002  1  0.52967500  0.60123500  0.63540200  1
  C  1003  1  0.50002500  0.59216500  0.64756200  1
  C  1004  1  0.47062000  0.57117400  0.63227800  1
  C  1005  1  0.47271900  0.55794700  0.60306100  1
  C  1007  1  0.50265200  0.56700500  0.59090200  1
  C  1009  1  0.44683900  0.53397000  0.58417300  1
  C  1013  1  0.55733900  0.62438800  0.65371200  1
  C  1021  1  0.74198000  0.73775700  0.08754900  1
  C  1022  1  0.77380000  0.75786300  0.09934700  1
  C  1023  1  0.77888300  0.77222400  0.12814200  1
  C  1024  1  0.75283000  0.76726100  0.14535400  1
  C  1025  1  0.71915300  0.74869300  0.13377300  1
  C  1027  1  0.71386800  0.73455700  0.10503500  1
  C  1029  1  0.68995300  0.74233100  0.15028100  1
  C  1033  1  0.80332600  0.76395400  0.08280300  1
  C  1041  1  0.74197900  0.22525700  0.13784000  1
  C  1042  1  0.77381500  0.21694600  0.11774500  1
  C  1043  1  0.77892900  0.23138400  0.10339100  1
  C  1044  1  0.75288200  0.25355400  0.10832900  1
  C  1045  1  0.71919800  0.26054600  0.12689900  1
  C  1047  1  0.71387000  0.24593700  0.14102400  1
  C  1049  1  0.69000800  0.28342200  0.13325800  1
  C  1053  1  0.80333200  0.19431200  0.11166500  1
  C  1061  1  0.74196000  0.78802400  0.65034700  1
  C  1062  1  0.77378200  0.77623900  0.65866800  1
  C  1063  1  0.77888600  0.74744300  0.64423800  1
  C  1064  1  0.75285200  0.73022000  0.62205500  1
  C  1065  1  0.71917300  0.74179100  0.61505800  1
  C  1067  1  0.71386600  0.77052500  0.62965200  1
  C  1069  1  0.68999000  0.72527000  0.59218000  1
  C  1073  1  0.80328700  0.79279200  0.68131200  1
  C  1081  1  0.24196000  0.09626400  0.82959500  1
  C  1082  1  0.27380800  0.07617600  0.81782100  1
  C  1083  1  0.27894000  0.06182200  0.78903100  1
  C  1084  1  0.25290200  0.06675300  0.77179100  1
  C  1085  1  0.21920400  0.08530900  0.78335400  1
  C  1087  1  0.21385400  0.09943600  0.81208700  1
  C  1089  1  0.19001700  0.09165900  0.76682800  1
  C  1093  1  0.30331200  0.07010100  0.83438500  1
  C  1101  1  0.24200000  0.60879400  0.77934400  1
  C  1102  1  0.27383300  0.61710500  0.79944300  1
  C  1103  1  0.27893100  0.60267300  0.81380500  1
  C  1104  1  0.25288400  0.58049600  0.80885000  1
  C  1105  1  0.21919500  0.57350900  0.79028900  1
  C  1107  1  0.21389200  0.58811000  0.77615400  1
  C  1109  1  0.18999800  0.55064200  0.78393900  1
  C  1113  1  0.30335300  0.63973800  0.80552600  1
  C  1121  1  0.24200600  0.04598400  0.26680600  1
  C  1122  1  0.27384800  0.05777700  0.25851000  1
  C  1123  1  0.27895600  0.08656800  0.27295500  1
  C  1124  1  0.25289600  0.10379400  0.29512100  1
  C  1125  1  0.21920700  0.09221000  0.30209800  1
  C  1127  1  0.21388500  0.06347700  0.28748300  1
  C  1129  1  0.19000500  0.10872000  0.32497000  1
  C  1133  1  0.30338100  0.04122900  0.23588100  1
  N  677  1  0.76684100  0.93799400  0.42218900  1
  N  679  1  0.73176500  0.88999500  0.48710100  1
  N  697  1  0.76678500  0.35965100  0.93761200  1
  N  699  1  0.73174800  0.47258300  0.98569000  1
  N  717  1  0.76678600  0.45340000  0.51598900  1
  N  719  1  0.73175900  0.38846900  0.40307000  1
  N  737  1  0.26674500  0.89603000  0.49497800  1
  N  739  1  0.23176600  0.94407800  0.43008800  1
  N  757  1  0.26677300  0.47441100  0.97959000  1
  N  759  1  0.23178800  0.36148600  0.93160600  1
  N  777  1  0.26675400  0.38060700  0.40123900  1
  N  779  1  0.23174500  0.44548800  0.51417200  1
  N  797  1  0.05540600  0.95355800  0.30313100  1
  N  799  1  0.93718800  0.87003500  0.28407600  1
  N  817  1  0.05541500  0.22504900  0.92215200  1
  N  819  1  0.93712300  0.28951500  0.00561100  1
  N  837  1  0.05540900  0.57245300  0.65058600  1
  N  839  1  0.93718000  0.59148000  0.58610800  1
  N  857  1  0.55542100  0.88056700  0.61414000  1
  N  859  1  0.43713700  0.96402700  0.63310900  1
  N  877  1  0.55541800  0.60904100  0.99512700  1
  N  879  1  0.43718700  0.54455500  0.91162400  1
  N  897  1  0.55540000  0.26147000  0.26662900  1
  N  899  1  0.43711500  0.24245600  0.33109000  1
  N  917  1  0.94237500  0.87550700  0.60737500  1
  N  919  1  0.06167300  0.96104200  0.63717000  1
  N  937  1  0.94237300  0.60726700  0.00005400  1
  N  939  1  0.06168900  0.55153800  0.91452800  1
  N  957  1  0.94236500  0.26824200  0.26831100  1
  N  959  1  0.06164800  0.23843900  0.32405400  1
  N  977  1  0.44237200  0.95847500  0.30979900  1
  N  979  1  0.56168200  0.87294600  0.28001100  1
  N  997  1  0.44238100  0.22672400  0.91706600  1
  N  999  1  0.56165400  0.28247000  0.00261900  1
  N  1017  1  0.44238400  0.56578700  0.64883800  1
  N  1019  1  0.56168200  0.59557700  0.59309400  1
  N  1037  1  0.76419300  0.77714200  0.17300000  1
  N  1039  1  0.73951000  0.71967800  0.05870600  1
  N  1057  1  0.76423100  0.27132600  0.09845700  1
  N  1059  1  0.73948500  0.21450000  0.15592600  1
  N  1077  1  0.76423500  0.70257700  0.60429800  1
  N  1079  1  0.73946500  0.81686600  0.66111300  1
  N  1097  1  0.26427100  0.05687900  0.74414800  1
  N  1099  1  0.23944500  0.11435100  0.85843400  1
  N  1117  1  0.26426100  0.56273200  0.81872800  1
  N  1119  1  0.23951300  0.61955700  0.76126400  1
  N  1137  1  0.26423600  0.13143900  0.31290100  1
  N  1139  1  0.23951900  0.01714200  0.25604700  1
