# generated using pymatgen
data_H16C22N5O2
_symmetry_space_group_name_H-M   'P 1'
_cell_length_a   28.75450000
_cell_length_b   78.16280000
_cell_length_c   78.16280000
_cell_angle_alpha   90.00000000
_cell_angle_beta   90.00000000
_cell_angle_gamma   90.00000000
_symmetry_Int_Tables_number   1
_chemical_formula_structural   H16C22N5O2
_chemical_formula_sum   'H512 C704 N160 O64'
_cell_volume   175673.41239027
_cell_formula_units_Z   32
loop_
 _symmetry_equiv_pos_site_id
 _symmetry_equiv_pos_as_xyz
  1  'x, y, z'
loop_
 _atom_site_type_symbol
 _atom_site_label
 _atom_site_symmetry_multiplicity
 _atom_site_fract_x
 _atom_site_fract_y
 _atom_site_fract_z
 _atom_site_occupancy
  H  7  1  0.30712500  0.06357100  0.00596800  1
  H  8  1  0.39884900  0.09178800  0.97528700  1
  H  15  1  0.13086500  0.07728800  0.03515400  1
  H  16  1  0.24940100  0.10559500  0.02204500  1
  H  19  1  0.22405700  0.11260100  0.98867800  1
  H  20  1  0.26127400  0.12420000  0.97771300  1
  H  21  1  0.19859400  0.04846200  0.98843000  1
  H  22  1  0.24060500  0.06098800  0.98183600  1
  H  37  1  0.80724400  0.43840900  0.99601400  1
  H  38  1  0.89884400  0.41014200  0.02670500  1
  H  45  1  0.63088200  0.42476800  0.96684900  1
  H  46  1  0.74940600  0.39643100  0.97991100  1
  H  49  1  0.72397700  0.38942400  0.01329500  1
  H  50  1  0.76112900  0.37781400  0.02427800  1
  H  51  1  0.69877400  0.45355600  0.01357700  1
  H  52  1  0.74076000  0.44101100  0.02015300  1
  H  67  1  0.55713700  0.24603800  0.81361800  1
  H  68  1  0.64891400  0.27673800  0.84179300  1
  H  75  1  0.38084500  0.21693900  0.82725900  1
  H  76  1  0.49921900  0.23006200  0.85566000  1
  H  79  1  0.47408200  0.26341400  0.86262000  1
  H  80  1  0.51131100  0.27438900  0.87420400  1
  H  81  1  0.44873300  0.26365500  0.79847700  1
  H  82  1  0.49070200  0.27023800  0.81102600  1
  H  97  1  0.05709600  0.25598500  0.18838600  1
  H  98  1  0.14896000  0.22533900  0.16019100  1
  H  105  1  0.88078400  0.28508400  0.17467600  1
  H  106  1  0.99933900  0.27202600  0.14635600  1
  H  109  1  0.97415700  0.23866300  0.13933200  1
  H  110  1  0.01142400  0.22770400  0.12775000  1
  H  111  1  0.94862000  0.23835900  0.20346900  1
  H  112  1  0.99067600  0.23179700  0.19094800  1
  H  127  1  0.69427700  0.93871700  0.99690600  1
  H  128  1  0.60462500  0.91037900  0.02828100  1
  H  135  1  0.86905700  0.92517000  0.96629000  1
  H  136  1  0.75106800  0.89673800  0.97990200  1
  H  139  1  0.77802800  0.88932900  0.01295000  1
  H  140  1  0.74143900  0.87772700  0.02419600  1
  H  141  1  0.80555700  0.95312600  0.01409700  1
  H  142  1  0.76292400  0.94083100  0.02071100  1
  H  157  1  0.19415900  0.56328800  0.00507200  1
  H  158  1  0.10470800  0.59167200  0.97365600  1
  H  165  1  0.36901000  0.57675000  0.03569300  1
  H  166  1  0.25108600  0.60522200  0.02209200  1
  H  169  1  0.27818400  0.61261100  0.98902900  1
  H  170  1  0.24168900  0.62422400  0.97775100  1
  H  171  1  0.30541600  0.54882200  0.98788000  1
  H  172  1  0.26281300  0.56113500  0.98127200  1
  H  187  1  0.44452500  0.75555600  0.18839300  1
  H  188  1  0.35284200  0.72486500  0.16016800  1
  H  195  1  0.62075500  0.78470000  0.17487300  1
  H  196  1  0.50267600  0.77147500  0.14635200  1
  H  199  1  0.52781300  0.73812100  0.13946500  1
  H  200  1  0.49062900  0.72713300  0.12786900  1
  H  201  1  0.55286600  0.73799100  0.20363400  1
  H  202  1  0.51097700  0.73137300  0.19106000  1
  H  217  1  0.94449200  0.74638500  0.81358900  1
  H  218  1  0.85273900  0.77701100  0.84185800  1
  H  225  1  0.12081900  0.71728200  0.82711200  1
  H  226  1  0.00257500  0.73039200  0.85558700  1
  H  229  1  0.02772400  0.76376300  0.86255600  1
  H  230  1  0.99051600  0.77473300  0.87415700  1
  H  231  1  0.05283300  0.76400800  0.79838800  1
  H  232  1  0.01088100  0.77058400  0.81095300  1
  H  247  1  0.80733400  0.56357100  0.50559400  1
  H  248  1  0.89921200  0.59177900  0.47496500  1
  H  255  1  0.63115700  0.57718000  0.53473600  1
  H  256  1  0.74947900  0.60559300  0.52159100  1
  H  259  1  0.72430000  0.61256500  0.48819600  1
  H  260  1  0.76155400  0.62415200  0.47723200  1
  H  261  1  0.69894800  0.54841000  0.48800300  1
  H  262  1  0.74090700  0.56096000  0.48140300  1
  H  277  1  0.30738800  0.93839300  0.49637800  1
  H  278  1  0.39912400  0.91015400  0.52704100  1
  H  285  1  0.13113300  0.92485300  0.46725100  1
  H  286  1  0.24943300  0.89641300  0.48037000  1
  H  289  1  0.22415500  0.88945100  0.51378400  1
  H  290  1  0.26133600  0.87785600  0.52477400  1
  H  291  1  0.19904700  0.95359600  0.51398800  1
  H  292  1  0.24098000  0.94103200  0.52057700  1
  H  307  1  0.05773300  0.74692300  0.31329800  1
  H  308  1  0.14740000  0.77833300  0.34159100  1
  H  315  1  0.88294700  0.71637000  0.32679100  1
  H  316  1  0.00076100  0.73002500  0.35530400  1
  H  319  1  0.97395200  0.76306300  0.36264800  1
  H  320  1  0.01053500  0.77432600  0.37423500  1
  H  321  1  0.94646000  0.76418000  0.29887200  1
  H  322  1  0.98908300  0.77079000  0.31117700  1
  H  337  1  0.55776300  0.75509300  0.68868000  1
  H  338  1  0.64741500  0.72372600  0.66033000  1
  H  345  1  0.38291700  0.78565100  0.67520100  1
  H  346  1  0.50081900  0.77206100  0.64670900  1
  H  349  1  0.47395400  0.73902500  0.63930600  1
  H  350  1  0.51053900  0.72777200  0.62770700  1
  H  351  1  0.44647600  0.73782200  0.70308900  1
  H  352  1  0.48914400  0.73123700  0.69079200  1
  H  367  1  0.19395200  0.43865300  0.49728600  1
  H  368  1  0.10432300  0.41027800  0.52864000  1
  H  375  1  0.36871100  0.42531800  0.46671200  1
  H  376  1  0.25106800  0.39671200  0.48036900  1
  H  379  1  0.27794500  0.38936500  0.51345200  1
  H  380  1  0.24140000  0.37775900  0.52471700  1
  H  381  1  0.30512300  0.45316200  0.51455300  1
  H  382  1  0.26256300  0.44082700  0.52116300  1
  H  397  1  0.69398900  0.06330400  0.50470300  1
  H  398  1  0.60439900  0.09167400  0.47332500  1
  H  405  1  0.86876500  0.07665900  0.53527500  1
  H  406  1  0.75104400  0.10523200  0.52163700  1
  H  409  1  0.77801000  0.11258300  0.48853800  1
  H  410  1  0.74149100  0.12418300  0.47725500  1
  H  411  1  0.80513300  0.04878700  0.48744600  1
  H  412  1  0.76257300  0.06112000  0.48083600  1
  H  427  1  0.94387600  0.25464900  0.68871000  1
  H  428  1  0.85428000  0.22328900  0.66032900  1
  H  435  1  0.11871600  0.28517900  0.67541900  1
  H  436  1  0.00116600  0.27152700  0.64675500  1
  H  439  1  0.02792400  0.23847300  0.63943300  1
  H  440  1  0.99138600  0.22721200  0.62782100  1
  H  441  1  0.05498700  0.23735300  0.70323700  1
  H  442  1  0.01246300  0.23074900  0.69088100  1
  H  457  1  0.44392700  0.24730300  0.31327400  1
  H  458  1  0.35439000  0.27865500  0.34169000  1
  H  465  1  0.61874500  0.21670800  0.32662200  1
  H  466  1  0.50105500  0.23034600  0.35521100  1
  H  469  1  0.52799000  0.26339600  0.36258100  1
  H  470  1  0.49147100  0.27466500  0.37419300  1
  H  471  1  0.55514800  0.26454600  0.29877500  1
  H  472  1  0.51256000  0.27114900  0.31110100  1
  H  487  1  0.02693100  0.04985700  0.99380700  1
  H  496  1  0.88941200  0.01669500  0.99059300  1
  H  497  1  0.94479800  0.03967300  0.99016900  1
  H  498  1  0.87204100  0.98560000  0.99486300  1
  H  500  1  0.17128900  0.02069200  0.00433500  1
  H  501  1  0.15291700  0.00046600  0.99717200  1
  H  502  1  0.14871800  0.00575200  0.01919000  1
  H  504  1  0.02694000  0.94800200  0.01117700  1
  H  505  1  0.98312900  0.93833700  0.99855800  1
  H  506  1  0.97357300  0.94210500  0.02072500  1
  H  508  1  0.89271200  0.94475200  0.00992500  1
  H  510  1  0.11352500  0.05555400  0.99062400  1
  H  517  1  0.52708300  0.45213300  0.00817000  1
  H  526  1  0.38942400  0.48522900  0.01129700  1
  H  527  1  0.44488700  0.46227700  0.01174700  1
  H  528  1  0.37197600  0.51632300  0.00703900  1
  H  530  1  0.67139000  0.48136000  0.99772900  1
  H  531  1  0.65296900  0.50157100  0.00492400  1
  H  532  1  0.64880300  0.49632000  0.98289700  1
  H  534  1  0.52683900  0.55400200  0.99087000  1
  H  535  1  0.48291600  0.56364300  0.00345500  1
  H  536  1  0.47350800  0.55987300  0.98128000  1
  H  538  1  0.39263100  0.55720500  0.99203800  1
  H  540  1  0.61358000  0.44644700  0.01140000  1
  H  547  1  0.27701400  0.25808900  0.79992900  1
  H  556  1  0.13918300  0.26096900  0.76690700  1
  H  557  1  0.19473800  0.26153600  0.78982700  1
  H  558  1  0.12165100  0.25664000  0.73583200  1
  H  560  1  0.42131100  0.24783300  0.77063300  1
  H  561  1  0.40273300  0.25499200  0.75042900  1
  H  562  1  0.39883800  0.23296000  0.75569200  1
  H  564  1  0.27657400  0.24071800  0.69807700  1
  H  565  1  0.23244300  0.25321500  0.68845400  1
  H  566  1  0.22335500  0.23102400  0.69223800  1
  H  568  1  0.14239800  0.24166200  0.69492200  1
  H  570  1  0.36349100  0.26142000  0.80557800  1
  H  577  1  0.77691800  0.24388100  0.20205100  1
  H  586  1  0.63919000  0.24094600  0.23512500  1
  H  587  1  0.69468100  0.24039800  0.21218400  1
  H  588  1  0.62172900  0.24526700  0.26620800  1
  H  590  1  0.92126400  0.25419900  0.23129300  1
  H  591  1  0.90275200  0.24703900  0.25150400  1
  H  592  1  0.89879100  0.26906900  0.24623800  1
  H  594  1  0.77669200  0.26129300  0.30389600  1
  H  595  1  0.73265400  0.24876400  0.31353800  1
  H  596  1  0.72343800  0.27094800  0.30975800  1
  H  598  1  0.64246300  0.26028400  0.30708100  1
  H  600  1  0.86340600  0.24057500  0.19637600  1
  H  607  1  0.96176200  0.45806400  0.97813900  1
  H  616  1  0.08291600  0.49752000  0.96677000  1
  H  617  1  0.03063700  0.47359100  0.96595900  1
  H  618  1  0.10817500  0.52501700  0.98040400  1
  H  620  1  0.85475000  0.47091400  0.02341200  1
  H  621  1  0.86301600  0.49323300  0.02320800  1
  H  622  1  0.89583900  0.48029100  0.03742200  1
  H  624  1  0.99989900  0.54323100  0.03522300  1
  H  625  1  0.02325100  0.55951800  0.02205000  1
  H  626  1  0.06002000  0.54788600  0.03617500  1
  H  628  1  0.11965400  0.55305300  0.01324800  1
  H  630  1  0.87774400  0.45033300  0.98795800  1
  H  637  1  0.46161800  0.04392600  0.02381300  1
  H  646  1  0.58301800  0.00456200  0.03515200  1
  H  647  1  0.53061600  0.02845400  0.03597200  1
  H  648  1  0.60836400  0.97707000  0.02152700  1
  H  650  1  0.35455700  0.03098800  0.97858400  1
  H  651  1  0.36285400  0.00867000  0.97881200  1
  H  652  1  0.39563900  0.02160200  0.96457900  1
  H  654  1  0.49994900  0.95873000  0.96678500  1
  H  655  1  0.52346200  0.94247300  0.97995500  1
  H  656  1  0.56009700  0.95412600  0.96580200  1
  H  658  1  0.61979900  0.94898900  0.98870800  1
  H  660  1  0.37764500  0.05162900  0.01404000  1
  H  667  1  0.71148200  0.22807900  0.79396900  1
  H  676  1  0.83260700  0.21657900  0.75453800  1
  H  677  1  0.78033300  0.21584200  0.77847100  1
  H  678  1  0.85789000  0.23014000  0.72700800  1
  H  680  1  0.60460400  0.27336900  0.78102200  1
  H  681  1  0.61283600  0.27309400  0.75870100  1
  H  682  1  0.64571100  0.28733500  0.77159300  1
  H  684  1  0.74973300  0.28495100  0.70866700  1
  H  685  1  0.77307900  0.27173900  0.69241100  1
  H  686  1  0.80986300  0.28587900  0.70401900  1
  H  688  1  0.86939100  0.26292700  0.69887600  1
  H  690  1  0.62770000  0.23790500  0.80175400  1
  H  697  1  0.21139400  0.27394100  0.20807700  1
  H  706  1  0.33250200  0.28542200  0.24751900  1
  H  707  1  0.28022600  0.28617400  0.22358700  1
  H  708  1  0.35779800  0.27184000  0.27503700  1
  H  710  1  0.10460000  0.22861100  0.22096800  1
  H  711  1  0.11283100  0.22885900  0.24329000  1
  H  712  1  0.14573000  0.21464200  0.23037900  1
  H  714  1  0.24977400  0.21697000  0.29330400  1
  H  715  1  0.27305000  0.23017600  0.30957800  1
  H  716  1  0.30989900  0.21606400  0.29796500  1
  H  718  1  0.36942700  0.23904100  0.30311300  1
  H  720  1  0.12763500  0.26411300  0.20028200  1
  H  727  1  0.72461700  0.74354800  0.20223700  1
  H  736  1  0.86235500  0.74057400  0.23529500  1
  H  737  1  0.80684400  0.74004500  0.21236000  1
  H  738  1  0.87984800  0.74488800  0.26637300  1
  H  740  1  0.58030900  0.75388100  0.23149900  1
  H  741  1  0.59887300  0.74678600  0.25172600  1
  H  742  1  0.60278600  0.76880100  0.24639600  1
  H  744  1  0.72499200  0.76102400  0.30407300  1
  H  745  1  0.76896800  0.74846600  0.31371400  1
  H  746  1  0.77830200  0.77064200  0.30992700  1
  H  748  1  0.85922200  0.75991000  0.30725200  1
  H  750  1  0.63805700  0.74026000  0.19657900  1
  H  757  1  0.22460300  0.75846400  0.79975600  1
  H  766  1  0.36233600  0.76143700  0.76669200  1
  H  767  1  0.30683300  0.76196600  0.78963000  1
  H  768  1  0.37981500  0.75712400  0.73561200  1
  H  770  1  0.08028400  0.74812300  0.77050200  1
  H  771  1  0.09881600  0.75522500  0.75027200  1
  H  772  1  0.10279300  0.73321200  0.75560300  1
  H  774  1  0.22494900  0.74099700  0.69791600  1
  H  775  1  0.26894100  0.75354300  0.68826800  1
  H  776  1  0.27825000  0.73136700  0.69207100  1
  H  778  1  0.35916800  0.74209000  0.69474100  1
  H  780  1  0.13810000  0.76176500  0.80541200  1
  H  787  1  0.29004900  0.77352000  0.20795800  1
  H  796  1  0.16886100  0.78500200  0.24737100  1
  H  797  1  0.22115100  0.78574300  0.22344200  1
  H  798  1  0.14359600  0.77144800  0.27490900  1
  H  800  1  0.39705800  0.72828500  0.22095500  1
  H  801  1  0.38880900  0.72857600  0.24327400  1
  H  802  1  0.35598600  0.71431000  0.23039200  1
  H  804  1  0.25193400  0.71670500  0.29330400  1
  H  805  1  0.22852600  0.72991800  0.30954600  1
  H  806  1  0.19180500  0.71575100  0.29794700  1
  H  808  1  0.13220400  0.73867700  0.30307400  1
  H  810  1  0.37389300  0.76371500  0.20019500  1
  H  817  1  0.79007100  0.72842000  0.79397600  1
  H  826  1  0.66897000  0.71696300  0.75452000  1
  H  827  1  0.72122300  0.71620200  0.77845900  1
  H  828  1  0.64373600  0.73054500  0.72699100  1
  H  830  1  0.89700000  0.77370500  0.78107300  1
  H  831  1  0.88878200  0.77344800  0.75875100  1
  H  832  1  0.85591800  0.78768500  0.77165100  1
  H  834  1  0.75194500  0.78536600  0.70871700  1
  H  835  1  0.72864800  0.77216000  0.69244700  1
  H  836  1  0.69182900  0.78629300  0.70404600  1
  H  838  1  0.63223100  0.76333800  0.69889900  1
  H  840  1  0.87388400  0.73822900  0.80176500  1
  H  847  1  0.52718700  0.54982500  0.49359500  1
  H  856  1  0.38938200  0.51678900  0.49076900  1
  H  857  1  0.44492500  0.53971200  0.49016100  1
  H  858  1  0.37186900  0.48572200  0.49515100  1
  H  860  1  0.67150900  0.52055600  0.50386300  1
  H  861  1  0.65291300  0.50033000  0.49677400  1
  H  862  1  0.64908400  0.50565800  0.51879300  1
  H  864  1  0.52679000  0.44800700  0.51116600  1
  H  865  1  0.48269000  0.43835900  0.49867300  1
  H  866  1  0.47355700  0.44217900  0.52085600  1
  H  868  1  0.39257200  0.44485600  0.51021300  1
  H  870  1  0.61375400  0.55545700  0.49025500  1
  H  877  1  0.02726000  0.95216600  0.50833500  1
  H  886  1  0.88935300  0.98515600  0.51105000  1
  H  887  1  0.94494400  0.96225100  0.51169300  1
  H  888  1  0.87179700  0.01622600  0.50668200  1
  H  890  1  0.17157300  0.98147800  0.49817100  1
  H  891  1  0.15294100  0.00169200  0.50528500  1
  H  892  1  0.14915800  0.99639300  0.48325900  1
  H  894  1  0.02673800  0.05399700  0.49082700  1
  H  895  1  0.98253100  0.06362400  0.50328800  1
  H  896  1  0.97354800  0.05981200  0.48109400  1
  H  898  1  0.89251400  0.05711700  0.49169400  1
  H  900  1  0.11372300  0.94653500  0.51174300  1
  H  907  1  0.46171900  0.95797900  0.47832400  1
  H  916  1  0.58265000  0.99745500  0.46669900  1
  H  917  1  0.53045300  0.97349600  0.46602300  1
  H  918  1  0.60791500  0.02500800  0.48021800  1
  H  920  1  0.35503300  0.97092700  0.52367900  1
  H  921  1  0.36320900  0.99324900  0.52338200  1
  H  922  1  0.39619200  0.98037800  0.53760800  1
  H  924  1  0.49997000  0.04335200  0.53508400  1
  H  925  1  0.52320500  0.05960600  0.52184400  1
  H  926  1  0.56009000  0.04802500  0.53597000  1
  H  928  1  0.61951700  0.05314200  0.51298500  1
  H  930  1  0.37790600  0.95024300  0.48821400  1
  H  937  1  0.96157100  0.54394500  0.52364700  1
  H  946  1  0.08254200  0.50448300  0.53526800  1
  H  947  1  0.03032300  0.52843500  0.53594600  1
  H  948  1  0.10782900  0.47693300  0.52174700  1
  H  950  1  0.85493700  0.53099800  0.47827700  1
  H  951  1  0.86313400  0.50867600  0.47857000  1
  H  952  1  0.89611000  0.52155500  0.46434900  1
  H  954  1  0.99996900  0.45860400  0.46685200  1
  H  955  1  0.02316500  0.44234700  0.48009800  1
  H  956  1  0.06008600  0.45392500  0.46598400  1
  H  958  1  0.11951900  0.44881300  0.48898900  1
  H  960  1  0.87786200  0.55171000  0.51377100  1
  H  967  1  0.41706900  0.21157100  0.90232400  1
  H  976  1  0.35774600  0.18397700  0.95163500  1
  H  977  1  0.38584900  0.20473700  0.93149900  1
  H  978  1  0.33856000  0.15348600  0.95869200  1
  H  980  1  0.46694200  0.17660900  0.85530500  1
  H  981  1  0.42123500  0.16146700  0.85667400  1
  H  982  1  0.47499300  0.15770900  0.86715600  1
  H  984  1  0.37649100  0.10940100  0.90589000  1
  H  985  1  0.32669100  0.10529400  0.91849400  1
  H  986  1  0.38321300  0.10204700  0.92715500  1
  H  988  1  0.30933600  0.11197500  0.94884300  1
  H  990  1  0.46616300  0.21444200  0.87588200  1
  H  997  1  0.91625600  0.29038000  0.09974900  1
  H  1006  1  0.85649200  0.31797100  0.05050900  1
  H  1007  1  0.88457400  0.29720100  0.07063900  1
  H  1008  1  0.83778900  0.34849300  0.04339800  1
  H  1010  1  0.96792500  0.32536000  0.14649000  1
  H  1011  1  0.92253700  0.34063900  0.14518900  1
  H  1012  1  0.97616400  0.34419200  0.13454600  1
  H  1014  1  0.87766400  0.39264800  0.09594700  1
  H  1015  1  0.82768200  0.39683600  0.08346800  1
  H  1016  1  0.88407700  0.39991800  0.07463900  1
  H  1018  1  0.80951500  0.39009200  0.05318500  1
  H  1020  1  0.96569200  0.28741000  0.12600500  1
  H  1027  1  0.66591000  0.34987700  0.96160000  1
  H  1036  1  0.60590200  0.30066600  0.93402900  1
  H  1037  1  0.63400200  0.32079700  0.95479400  1
  H  1038  1  0.58740000  0.29352100  0.90349500  1
  H  1040  1  0.71831200  0.39648800  0.92659400  1
  H  1041  1  0.67306000  0.39522700  0.91126000  1
  H  1042  1  0.72658900  0.38448700  0.90780100  1
  H  1044  1  0.62797500  0.34596100  0.85929800  1
  H  1045  1  0.57794400  0.33351800  0.85507600  1
  H  1046  1  0.63430800  0.32463300  0.85207600  1
  H  1048  1  0.55940800  0.30326200  0.86189000  1
  H  1050  1  0.71548400  0.37605700  0.96460900  1
  H  1057  1  0.16645100  0.15221800  0.04042700  1
  H  1066  1  0.10676500  0.20147300  0.06801400  1
  H  1067  1  0.13482200  0.18133600  0.04724700  1
  H  1068  1  0.08808200  0.20859000  0.09853700  1
  H  1070  1  0.21801200  0.10546500  0.07541200  1
  H  1071  1  0.17262400  0.10676500  0.09069000  1
  H  1072  1  0.22624200  0.11741700  0.09423900  1
  H  1074  1  0.12769300  0.15600900  0.14268700  1
  H  1075  1  0.07777600  0.16852400  0.14687800  1
  H  1076  1  0.13422000  0.17731300  0.14995600  1
  H  1078  1  0.05970800  0.19882500  0.14011900  1
  H  1080  1  0.21577500  0.12593600  0.03743000  1
  H  1087  1  0.58430100  0.79019600  0.09975900  1
  H  1096  1  0.64428200  0.81786800  0.05059100  1
  H  1097  1  0.61567000  0.79708800  0.07061200  1
  H  1098  1  0.66415700  0.84834200  0.04369900  1
  H  1100  1  0.53525900  0.82505800  0.14696500  1
  H  1101  1  0.58122000  0.84010000  0.14563700  1
  H  1102  1  0.52747600  0.84403400  0.13520900  1
  H  1104  1  0.62686200  0.89226300  0.09670200  1
  H  1105  1  0.67678800  0.89631100  0.08414600  1
  H  1106  1  0.62036200  0.89973700  0.07546800  1
  H  1108  1  0.69394700  0.88978300  0.05376100  1
  H  1110  1  0.53517500  0.78736000  0.12625800  1
  H  1117  1  0.08541600  0.71184300  0.90209700  1
  H  1126  1  0.14587200  0.68416100  0.95117800  1
  H  1127  1  0.11731000  0.70495800  0.93116800  1
  H  1128  1  0.16516100  0.65364700  0.95812500  1
  H  1130  1  0.03425100  0.67696400  0.85520700  1
  H  1131  1  0.07985600  0.66176800  0.85644500  1
  H  1132  1  0.02627300  0.65806300  0.86706800  1
  H  1134  1  0.12560600  0.60965000  0.90540800  1
  H  1135  1  0.17573800  0.60550300  0.91782000  1
  H  1136  1  0.11944800  0.60227300  0.92669000  1
  H  1138  1  0.19381900  0.61209500  0.94813300  1
  H  1140  1  0.03589300  0.71480500  0.87582200  1
  H  1147  1  0.33511700  0.65161400  0.04054700  1
  H  1156  1  0.39632700  0.70069100  0.06799600  1
  H  1157  1  0.36784100  0.68058800  0.04727500  1
  H  1158  1  0.41465500  0.70790200  0.09853100  1
  H  1160  1  0.28058900  0.60542800  0.07566900  1
  H  1161  1  0.32563300  0.60656200  0.09109800  1
  H  1162  1  0.27240700  0.61755800  0.09438500  1
  H  1164  1  0.37187600  0.65584100  0.14289400  1
  H  1165  1  0.42226100  0.66808200  0.14713400  1
  H  1166  1  0.36615800  0.67722700  0.15001400  1
  H  1168  1  0.44182300  0.69823300  0.14022500  1
  H  1170  1  0.28502300  0.62560900  0.03749200  1
  H  1177  1  0.83478000  0.85027900  0.96142200  1
  H  1186  1  0.89570000  0.80116200  0.93395500  1
  H  1187  1  0.86729000  0.82127500  0.95468100  1
  H  1188  1  0.91409700  0.79396700  0.90342500  1
  H  1190  1  0.78076500  0.89655900  0.92631500  1
  H  1191  1  0.82588500  0.89539900  0.91091700  1
  H  1192  1  0.77259500  0.88445900  0.90757800  1
  H  1194  1  0.87193600  0.84612500  0.85909600  1
  H  1195  1  0.92223100  0.83383000  0.85486700  1
  H  1196  1  0.86605900  0.82475500  0.85194600  1
  H  1198  1  0.94146300  0.80364700  0.86173900  1
  H  1200  1  0.78488600  0.87635900  0.96448400  1
  H  1207  1  0.91796400  0.71142600  0.40183400  1
  H  1216  1  0.85750000  0.68393800  0.45101600  1
  H  1217  1  0.88592400  0.70466200  0.43090400  1
  H  1218  1  0.83860300  0.65343500  0.45814100  1
  H  1220  1  0.97025500  0.67635000  0.35526200  1
  H  1221  1  0.92481200  0.66108700  0.35649200  1
  H  1222  1  0.97826400  0.65753600  0.36725500  1
  H  1224  1  0.87895400  0.60918500  0.40572200  1
  H  1225  1  0.82879200  0.60504200  0.41811900  1
  H  1226  1  0.88505800  0.60193900  0.42705100  1
  H  1228  1  0.81027300  0.61184100  0.44836100  1
  H  1230  1  0.96756300  0.71437800  0.37557700  1
  H  1237  1  0.41724200  0.79055500  0.60026900  1
  H  1246  1  0.35639300  0.81802600  0.55114000  1
  H  1247  1  0.38481300  0.79730000  0.57125200  1
  H  1248  1  0.33787000  0.84854900  0.54396300  1
  H  1250  1  0.47089300  0.82565400  0.64661300  1
  H  1251  1  0.42569700  0.84101900  0.64542800  1
  H  1252  1  0.47904100  0.84441100  0.63454300  1
  H  1254  1  0.37974600  0.89286800  0.59616200  1
  H  1255  1  0.32944100  0.89706900  0.58386200  1
  H  1256  1  0.38560900  0.90003900  0.57479900  1
  H  1258  1  0.31030500  0.89022000  0.55367400  1
  H  1260  1  0.46715500  0.78754600  0.62635800  1
  H  1267  1  0.16617700  0.84993700  0.46185500  1
  H  1276  1  0.10543000  0.80090900  0.43416700  1
  H  1277  1  0.13401700  0.82090700  0.45497200  1
  H  1278  1  0.08638800  0.79393900  0.40363200  1
  H  1280  1  0.21826200  0.89668600  0.42697300  1
  H  1281  1  0.17283100  0.89550100  0.41170500  1
  H  1282  1  0.22631100  0.88477100  0.40811100  1
  H  1284  1  0.12684500  0.84654500  0.35961500  1
  H  1285  1  0.07664400  0.83418700  0.35541800  1
  H  1286  1  0.13288700  0.82524400  0.35228200  1
  H  1288  1  0.05809200  0.80390100  0.36208000  1
  H  1290  1  0.21584700  0.87613000  0.46488500  1
  H  1297  1  0.66666667  0.65213000  0.54015600  1
  H  1306  1  0.60619000  0.70119800  0.56785300  1
  H  1307  1  0.63474600  0.68119300  0.54704900  1
  H  1308  1  0.58698600  0.70814600  0.59837400  1
  H  1310  1  0.71800200  0.60525800  0.57502500  1
  H  1311  1  0.67244800  0.60647700  0.59024100  1
  H  1312  1  0.72600100  0.61713200  0.59391600  1
  H  1314  1  0.62660800  0.65542100  0.64235400  1
  H  1315  1  0.57651100  0.66784400  0.64652600  1
  H  1316  1  0.63282600  0.67670100  0.64972800  1
  H  1318  1  0.55841000  0.69817100  0.63992300  1
  H  1320  1  0.71612800  0.62584600  0.53714100  1
  H  1327  1  0.08403300  0.29026700  0.60033800  1
  H  1336  1  0.14525400  0.31784700  0.55132800  1
  H  1337  1  0.11638000  0.29709100  0.57132100  1
  H  1338  1  0.16458500  0.34835100  0.54434900  1
  H  1340  1  0.03179700  0.32524700  0.64698800  1
  H  1341  1  0.07738400  0.34045800  0.64584400  1
  H  1342  1  0.02402000  0.34411400  0.63505600  1
  H  1344  1  0.12408000  0.39245900  0.59687600  1
  H  1345  1  0.17441600  0.39658900  0.58457100  1
  H  1346  1  0.11827400  0.39978700  0.57556500  1
  H  1348  1  0.19300300  0.38993000  0.55431600  1
  H  1350  1  0.03425100  0.28729900  0.62657400  1
  H  1357  1  0.58453100  0.21168400  0.40157200  1
  H  1366  1  0.64614200  0.18411400  0.45052100  1
  H  1367  1  0.61725300  0.20487400  0.43053600  1
  H  1368  1  0.66514800  0.15359000  0.45754000  1
  H  1370  1  0.53096000  0.17668500  0.35514100  1
  H  1371  1  0.57629900  0.16137000  0.35624200  1
  H  1372  1  0.52303100  0.15787300  0.36714600  1
  H  1374  1  0.62315500  0.10942200  0.40522500  1
  H  1375  1  0.67365100  0.10524000  0.41742300  1
  H  1376  1  0.61762500  0.10215600  0.42656700  1
  H  1378  1  0.69288300  0.11194700  0.44762400  1
  H  1380  1  0.53449700  0.21472000  0.37548800  1
  H  1387  1  0.83493700  0.15154500  0.54026700  1
  H  1396  1  0.89687900  0.20043800  0.56783500  1
  H  1397  1  0.86793400  0.18046700  0.54707200  1
  H  1398  1  0.91568300  0.20748000  0.59837500  1
  H  1400  1  0.78056600  0.10524700  0.57527200  1
  H  1401  1  0.82575600  0.10629900  0.59064900  1
  H  1402  1  0.77259200  0.11730200  0.59405100  1
  H  1404  1  0.87286100  0.15527500  0.64256600  1
  H  1405  1  0.92342100  0.16742200  0.64679100  1
  H  1406  1  0.86744700  0.17663600  0.64978800  1
  H  1408  1  0.94304900  0.19759600  0.64002900  1
  H  1410  1  0.78473300  0.12554100  0.53718400  1
  H  1417  1  0.33466200  0.35036900  0.46168700  1
  H  1426  1  0.39634100  0.30144500  0.43409800  1
  H  1427  1  0.36744500  0.32142000  0.45486700  1
  H  1428  1  0.41525000  0.29442600  0.40356500  1
  H  1430  1  0.28090700  0.39678300  0.42670700  1
  H  1431  1  0.32620300  0.39570700  0.41137300  1
  H  1432  1  0.27297800  0.38476900  0.40790000  1
  H  1434  1  0.37312100  0.34674500  0.35941800  1
  H  1435  1  0.42358600  0.33454000  0.35520500  1
  H  1436  1  0.36753500  0.32540300  0.35215700  1
  H  1438  1  0.44281400  0.30433100  0.36191100  1
  H  1440  1  0.28461600  0.37644600  0.46476800  1
  C  1  1  0.27974200  0.08699000  0.99714100  1
  C  2  1  0.31464500  0.07432400  0.99902100  1
  C  3  1  0.35814900  0.07551000  0.99073000  1
  C  4  1  0.36727500  0.09050400  0.98125300  1
  C  5  1  0.33392000  0.10365400  0.97943300  1
  C  6  1  0.28901000  0.10183700  0.98700100  1
  C  9  1  0.23686100  0.08436400  0.00620500  1
  C  10  1  0.20738900  0.06989900  0.00332300  1
  C  11  1  0.16889800  0.06720300  0.01454600  1
  C  12  1  0.15931600  0.07930400  0.02752200  1
  C  13  1  0.18693800  0.09401700  0.03028100  1
  C  14  1  0.22660500  0.09583300  0.01973900  1
  C  23  1  0.17525500  0.10585000  0.04375200  1
  C  24  1  0.14020200  0.05233500  0.01417200  1
  C  25  1  0.34721900  0.11811900  0.96957100  1
  C  26  1  0.39081200  0.06170000  0.99076900  1
  C  31  1  0.77978000  0.41500300  0.00483300  1
  C  32  1  0.81474200  0.42764700  0.00294900  1
  C  33  1  0.85823100  0.42644000  0.01124800  1
  C  34  1  0.86727300  0.41144600  0.02073800  1
  C  35  1  0.83386900  0.39831300  0.02255000  1
  C  36  1  0.78897600  0.40015300  0.01497700  1
  C  39  1  0.73690700  0.41765100  0.99577100  1
  C  40  1  0.70746500  0.43212000  0.99867400  1
  C  41  1  0.66895600  0.43483200  0.98746000  1
  C  42  1  0.65934700  0.42274600  0.97447300  1
  C  43  1  0.68695700  0.40803300  0.97169600  1
  C  44  1  0.72663000  0.40619700  0.98223000  1
  C  53  1  0.67527200  0.39621600  0.95821200  1
  C  54  1  0.64025100  0.44969700  0.98786200  1
  C  55  1  0.84708800  0.38384400  0.03241800  1
  C  56  1  0.89093200  0.44023900  0.01122100  1
  C  61  1  0.52975700  0.25491300  0.83701800  1
  C  62  1  0.56469100  0.25298100  0.82437100  1
  C  63  1  0.60820400  0.26126900  0.82554300  1
  C  64  1  0.61732600  0.27077700  0.84051700  1
  C  65  1  0.58394700  0.27263900  0.85365200  1
  C  66  1  0.53902900  0.26507700  0.85184700  1
  C  69  1  0.48686300  0.24585900  0.83438900  1
  C  70  1  0.45745900  0.24874900  0.81990700  1
  C  71  1  0.41897400  0.23752700  0.81719000  1
  C  72  1  0.40928900  0.22457000  0.82929800  1
  C  73  1  0.43680500  0.22182000  0.84404300  1
  C  74  1  0.47649200  0.23235100  0.84587400  1
  C  83  1  0.42497700  0.20837000  0.85588200  1
  C  84  1  0.39033500  0.23791000  0.80230800  1
  C  85  1  0.59727300  0.28254100  0.86808300  1
  C  86  1  0.64083900  0.26120200  0.81172200  1
  C  91  1  0.02976800  0.24713400  0.16496800  1
  C  92  1  0.06467600  0.24905600  0.17762700  1
  C  93  1  0.10820500  0.24078100  0.17645300  1
  C  94  1  0.11736400  0.23129100  0.16146900  1
  C  95  1  0.08401800  0.22944700  0.14832000  1
  C  96  1  0.03908200  0.23699200  0.15012800  1
  C  99  1  0.98686400  0.25618400  0.16759000  1
  C  100  1  0.95738700  0.25327400  0.18204800  1
  C  101  1  0.91886500  0.26448100  0.18474900  1
  C  102  1  0.90925200  0.27746200  0.17265500  1
  C  103  1  0.93684800  0.28023000  0.15793700  1
  C  104  1  0.97655000  0.26970600  0.15611800  1
  C  113  1  0.92515900  0.29371100  0.14611900  1
  C  114  1  0.89018700  0.26409900  0.19962000  1
  C  115  1  0.09736900  0.21957900  0.13386400  1
  C  116  1  0.14083900  0.24084100  0.19027300  1
  C  121  1  0.72214100  0.91514500  0.00526000  1
  C  122  1  0.68728700  0.92789400  0.00383600  1
  C  123  1  0.64448700  0.92668100  0.01258300  1
  C  124  1  0.63581300  0.91165100  0.02203800  1
  C  125  1  0.66900500  0.89838900  0.02331100  1
  C  126  1  0.71337300  0.90019900  0.01532500  1
  C  129  1  0.76445800  0.91781200  0.99587500  1
  C  130  1  0.79430000  0.93216300  0.99876900  1
  C  131  1  0.83207100  0.93495800  0.98728000  1
  C  132  1  0.84101600  0.92303800  0.97409600  1
  C  133  1  0.81325300  0.90834600  0.97140500  1
  C  134  1  0.77400400  0.90646800  0.98215900  1
  C  143  1  0.82447600  0.89657800  0.95783000  1
  C  144  1  0.86053000  0.94983800  0.98767800  1
  C  145  1  0.65601500  0.88378200  0.03300700  1
  C  146  1  0.61202200  0.94050400  0.01290800  1
  C  151  1  0.22213900  0.58684000  0.99671900  1
  C  152  1  0.18721400  0.57411800  0.99814700  1
  C  153  1  0.14444600  0.57535100  0.98938100  1
  C  154  1  0.13587700  0.59038000  0.97990800  1
  C  155  1  0.16914000  0.60361800  0.97864000  1
  C  156  1  0.21347900  0.60178300  0.98664300  1
  C  159  1  0.26443400  0.58414800  0.00611200  1
  C  160  1  0.29423900  0.56978900  0.00321000  1
  C  161  1  0.33200800  0.56697900  0.01469800  1
  C  162  1  0.34097000  0.57888900  0.02789100  1
  C  163  1  0.31323300  0.59358600  0.03058800  1
  C  164  1  0.27399400  0.59548200  0.01983400  1
  C  173  1  0.32445900  0.60534300  0.04417200  1
  C  174  1  0.36046900  0.55210100  0.01428300  1
  C  175  1  0.15626000  0.61822900  0.96893500  1
  C  176  1  0.11192400  0.56154600  0.98904800  1
  C  181  1  0.47201600  0.74666400  0.16501700  1
  C  182  1  0.43702000  0.74860800  0.17763800  1
  C  183  1  0.39350700  0.74032600  0.17644200  1
  C  184  1  0.38443700  0.73081400  0.16146500  1
  C  185  1  0.41787500  0.72894600  0.14835200  1
  C  186  1  0.46280100  0.73649400  0.15018600  1
  C  189  1  0.51489300  0.75572600  0.16766500  1
  C  190  1  0.54419600  0.75286900  0.18218100  1
  C  191  1  0.58261500  0.76411000  0.18492300  1
  C  192  1  0.59235900  0.77705300  0.17280800  1
  C  193  1  0.56495500  0.77977300  0.15802900  1
  C  194  1  0.52531900  0.76922000  0.15617000  1
  C  203  1  0.57687000  0.79321600  0.14619000  1
  C  204  1  0.61115300  0.76375700  0.19983300  1
  C  205  1  0.40457700  0.71906800  0.13390400  1
  C  206  1  0.36081000  0.74040400  0.19024300  1
  C  211  1  0.97195900  0.75525400  0.83697800  1
  C  212  1  0.93697000  0.75331700  0.82435300  1
  C  213  1  0.89343200  0.76157900  0.82556200  1
  C  214  1  0.88434800  0.77107100  0.84055200  1
  C  215  1  0.91777300  0.77292500  0.85367000  1
  C  216  1  0.96271500  0.76539600  0.85182400  1
  C  219  1  0.01485500  0.74620800  0.83432200  1
  C  220  1  0.04419400  0.74910100  0.81982300  1
  C  221  1  0.08266900  0.73788300  0.81707900  1
  C  222  1  0.09239000  0.72491400  0.82917000  1
  C  223  1  0.06493400  0.72215900  0.84392800  1
  C  224  1  0.02526700  0.73269300  0.84579200  1
  C  233  1  0.07673800  0.70867800  0.85573100  1
  C  234  1  0.11117800  0.73825600  0.80216200  1
  C  235  1  0.90447400  0.78277100  0.86814700  1
  C  236  1  0.86072100  0.76150900  0.81176700  1
  C  241  1  0.77997200  0.58697500  0.49672300  1
  C  242  1  0.81488100  0.57431900  0.49864200  1
  C  243  1  0.85843900  0.57550700  0.49039200  1
  C  244  1  0.86760000  0.59049300  0.48090400  1
  C  245  1  0.83423400  0.60363300  0.47904900  1
  C  246  1  0.78928200  0.60181400  0.48658000  1
  C  249  1  0.73706000  0.58434400  0.50576500  1
  C  250  1  0.70767300  0.56985300  0.50289200  1
  C  251  1  0.66922000  0.56712800  0.51412400  1
  C  252  1  0.65957300  0.57922400  0.52709400  1
  C  253  1  0.68710300  0.59396300  0.52984500  1
  C  254  1  0.72674200  0.59581100  0.51929300  1
  C  263  1  0.67535900  0.60577600  0.54332500  1
  C  264  1  0.64064400  0.55223200  0.51377000  1
  C  265  1  0.84757500  0.61810100  0.46919700  1
  C  266  1  0.89110200  0.56169800  0.49047900  1
  C  271  1  0.27994000  0.91500800  0.50525300  1
  C  272  1  0.31490900  0.92764000  0.50332600  1
  C  273  1  0.35844500  0.92643600  0.51159100  1
  C  274  1  0.36751800  0.91145700  0.52109900  1
  C  275  1  0.33410200  0.89833400  0.52295200  1
  C  276  1  0.28917100  0.90016800  0.51540900  1
  C  279  1  0.23703800  0.91765600  0.49620900  1
  C  280  1  0.20768000  0.93215100  0.49909500  1
  C  281  1  0.16922100  0.93488800  0.48786900  1
  C  282  1  0.15955600  0.92280300  0.47488800  1
  C  283  1  0.18707600  0.90806300  0.47212600  1
  C  284  1  0.22671100  0.90619800  0.48267600  1
  C  293  1  0.17534200  0.89626300  0.45863500  1
  C  294  1  0.14063500  0.94978300  0.48824100  1
  C  295  1  0.34736500  0.88386600  0.53281300  1
  C  296  1  0.39115600  0.94022900  0.51150500  1
  C  301  1  0.02985200  0.75532900  0.33684800  1
  C  302  1  0.06474300  0.75385200  0.32411900  1
  C  303  1  0.10754300  0.76260300  0.32531700  1
  C  304  1  0.11620300  0.77209400  0.34032700  1
  C  305  1  0.08297300  0.77341200  0.35357000  1
  C  306  1  0.03860100  0.76542600  0.35177200  1
  C  309  1  0.98753200  0.74594500  0.33418300  1
  C  310  1  0.95775300  0.74883300  0.31981300  1
  C  311  1  0.92000900  0.73733600  0.31700400  1
  C  312  1  0.91097000  0.72417800  0.32894100  1
  C  313  1  0.93862900  0.72151000  0.34366600  1
  C  314  1  0.97788900  0.73225700  0.34555000  1
  C  323  1  0.92728400  0.70795700  0.35544600  1
  C  324  1  0.89164500  0.73772500  0.30210000  1
  C  325  1  0.09597300  0.78314700  0.36814200  1
  C  326  1  0.14000900  0.76289200  0.31149200  1
  C  331  1  0.52986800  0.74671800  0.66512200  1
  C  332  1  0.56476700  0.74817900  0.67784800  1
  C  333  1  0.60757400  0.73943600  0.67663100  1
  C  334  1  0.61622000  0.72996200  0.66161000  1
  C  335  1  0.58298700  0.72867000  0.64836300  1
  C  336  1  0.53861100  0.73664700  0.65018100  1
  C  339  1  0.48754800  0.75609800  0.66779900  1
  C  340  1  0.45774700  0.75318800  0.68215800  1
  C  341  1  0.41997900  0.76467300  0.68497300  1
  C  342  1  0.41096200  0.77785200  0.67305300  1
  C  343  1  0.43864400  0.78054000  0.65834100  1
  C  344  1  0.47792200  0.76980200  0.65645100  1
  C  353  1  0.42737700  0.79411800  0.64658200  1
  C  354  1  0.39164300  0.76426700  0.69988400  1
  C  355  1  0.59596900  0.71897500  0.63375800  1
  C  356  1  0.64006000  0.73913000  0.69044800  1
  C  361  1  0.22192600  0.41511800  0.50569300  1
  C  362  1  0.18700000  0.42783400  0.50422800  1
  C  363  1  0.14415900  0.42659400  0.51294300  1
  C  364  1  0.13554100  0.41157300  0.52242200  1
  C  365  1  0.16881900  0.39834400  0.52373400  1
  C  366  1  0.21321100  0.40018000  0.51577200  1
  C  369  1  0.26425400  0.41781400  0.49632300  1
  C  370  1  0.29394800  0.43220800  0.49920500  1
  C  371  1  0.33164700  0.43505800  0.48770100  1
  C  372  1  0.34071900  0.42314100  0.47452700  1
  C  373  1  0.31311900  0.40840500  0.47185100  1
  C  374  1  0.27390600  0.40647600  0.48261300  1
  C  383  1  0.32445200  0.39665800  0.45826900  1
  C  384  1  0.35986400  0.44999900  0.48808200  1
  C  385  1  0.15587600  0.38373100  0.53342200  1
  C  386  1  0.11159500  0.44038600  0.51320400  1
  C  391  1  0.72196700  0.08683600  0.49629700  1
  C  392  1  0.68702300  0.07412600  0.49776700  1
  C  393  1  0.64420200  0.07536200  0.48903800  1
  C  394  1  0.63560800  0.09037800  0.47954800  1
  C  395  1  0.66889300  0.10360500  0.47824000  1
  C  396  1  0.71327300  0.10177000  0.48621100  1
  C  399  1  0.76428700  0.08414000  0.50567000  1
  C  400  1  0.79401100  0.06975700  0.50277700  1
  C  401  1  0.83174100  0.06692000  0.51427400  1
  C  402  1  0.84075900  0.07882700  0.52746200  1
  C  403  1  0.81311100  0.09354800  0.53015100  1
  C  404  1  0.77390300  0.09547500  0.51938600  1
  C  413  1  0.82438200  0.10528500  0.54374400  1
  C  414  1  0.86007700  0.05201100  0.51388400  1
  C  415  1  0.65598100  0.11821600  0.46854500  1
  C  416  1  0.61164700  0.06156600  0.48876800  1
  C  421  1  0.97187900  0.24623600  0.66518200  1
  C  422  1  0.93691100  0.24772500  0.67788100  1
  C  423  1  0.89408900  0.23899600  0.67664400  1
  C  424  1  0.88549300  0.22951100  0.66162500  1
  C  425  1  0.91880200  0.22818400  0.64841000  1
  C  426  1  0.96319200  0.23614700  0.65024900  1
  C  429  1  0.01420700  0.25560500  0.66788800  1
  C  430  1  0.04386200  0.25271100  0.68229100  1
  C  431  1  0.08157700  0.26420700  0.68515000  1
  C  432  1  0.09071800  0.27737000  0.67322900  1
  C  433  1  0.06319300  0.28004200  0.65847100  1
  C  434  1  0.02395100  0.26929400  0.65653600  1
  C  443  1  0.07464400  0.29360400  0.64671500  1
  C  444  1  0.10982200  0.26381500  0.70008600  1
  C  445  1  0.90585100  0.21847200  0.63381800  1
  C  446  1  0.86154200  0.23872000  0.69044200  1
  C  451  1  0.47194300  0.25568400  0.33681100  1
  C  452  1  0.43697500  0.25421800  0.32410900  1
  C  453  1  0.39416800  0.26295500  0.32535800  1
  C  454  1  0.38559200  0.27243000  0.34038400  1
  C  455  1  0.41889400  0.27372500  0.35360500  1
  C  456  1  0.46327000  0.26575500  0.35175700  1
  C  459  1  0.51424300  0.24629900  0.33410600  1
  C  460  1  0.54397000  0.24919800  0.31972500  1
  C  461  1  0.58170400  0.23770400  0.31688600  1
  C  462  1  0.59074200  0.22451800  0.32879400  1
  C  463  1  0.56312900  0.22183800  0.34352600  1
  C  464  1  0.52390100  0.23259400  0.34544900  1
  C  473  1  0.57443200  0.20824900  0.35526700  1
  C  474  1  0.61001900  0.23809400  0.30197200  1
  C  475  1  0.40596400  0.28339800  0.36823100  1
  C  476  1  0.36160200  0.26324900  0.31156500  1
  C  481  1  0.08424800  0.03414100  0.00010300  1
  C  482  1  0.09719800  0.01689800  0.00350700  1
  C  484  1  0.01796200  0.00752800  0.00053000  1
  C  485  1  0.00334500  0.02441000  0.99659000  1
  C  486  1  0.03700900  0.03755200  0.99637600  1
  C  488  1  0.98536200  0.99401500  0.00085900  1
  C  489  1  0.92158800  0.96654600  0.00098200  1
  C  491  1  0.96930600  0.96412200  0.00505500  1
  C  492  1  0.90648800  0.98340800  0.99735400  1
  C  493  1  0.93789100  0.99727800  0.99716300  1
  C  494  1  0.92351800  0.01411700  0.99331000  1
  C  495  1  0.95597500  0.02758000  0.99305000  1
  C  499  1  0.14530200  0.01073800  0.00621000  1
  C  503  1  0.98943800  0.94718500  0.00910700  1
  C  511  1  0.58437800  0.46788200  0.00192800  1
  C  512  1  0.59729100  0.48513500  0.99855500  1
  C  514  1  0.51800200  0.49446400  0.00147100  1
  C  515  1  0.50342000  0.47757100  0.00538700  1
  C  516  1  0.53713000  0.46444600  0.00561900  1
  C  518  1  0.48536000  0.50796300  0.00112600  1
  C  519  1  0.42149600  0.53540100  0.00097300  1
  C  521  1  0.46922700  0.53785300  0.99694300  1
  C  522  1  0.40643000  0.51853000  0.00457700  1
  C  523  1  0.43787900  0.50467500  0.00478300  1
  C  524  1  0.42354100  0.48782600  0.00861400  1
  C  525  1  0.45604300  0.47437800  0.00888900  1
  C  529  1  0.64538400  0.49131100  0.99586800  1
  C  533  1  0.48932200  0.55479900  0.99290900  1
  C  541  1  0.33431100  0.25191900  0.78415300  1
  C  542  1  0.34719000  0.24854300  0.76689800  1
  C  544  1  0.26783900  0.25134600  0.75760800  1
  C  545  1  0.25328200  0.25525300  0.77450500  1
  C  546  1  0.28704000  0.25554600  0.78761200  1
  C  548  1  0.23514500  0.25093500  0.74412900  1
  C  549  1  0.17116300  0.25064000  0.71672800  1
  C  551  1  0.21893800  0.24669000  0.71425400  1
  C  552  1  0.15612400  0.25423500  0.73360400  1
  C  553  1  0.18763100  0.25451400  0.74744200  1
  C  554  1  0.17332000  0.25834100  0.76429300  1
  C  555  1  0.20587700  0.25868400  0.77772200  1
  C  559  1  0.39529100  0.24592900  0.76069600  1
  C  563  1  0.23902600  0.24268600  0.69729800  1
  C  571  1  0.83424100  0.25007800  0.21780400  1
  C  572  1  0.84715400  0.25346600  0.23505400  1
  C  574  1  0.76783400  0.25063800  0.24437200  1
  C  575  1  0.75324500  0.24671600  0.22748100  1
  C  576  1  0.78697200  0.24642700  0.21436400  1
  C  578  1  0.73517500  0.25104000  0.25786300  1
  C  579  1  0.67127600  0.25130200  0.28528900  1
  C  581  1  0.71903900  0.25528100  0.28774400  1
  C  582  1  0.65620000  0.24769600  0.26841900  1
  C  583  1  0.68766600  0.24743300  0.25457000  1
  C  584  1  0.67332100  0.24359500  0.23772400  1
  C  585  1  0.70584400  0.24326400  0.22428300  1
  C  589  1  0.89526500  0.25609700  0.24123900  1
  C  593  1  0.73915700  0.25929800  0.30469100  1
  C  601  1  0.92248200  0.46628700  0.99944800  1
  C  602  1  0.91823900  0.47962800  0.01171500  1
  C  604  1  0.98484000  0.49410600  0.00003400  1
  C  605  1  0.99002900  0.48130200  0.98730000  1
  C  606  1  0.95835800  0.46750200  0.98714300  1
  C  608  1  0.01568900  0.50816200  0.00055600  1
  C  609  1  0.07583000  0.53664600  0.00172900  1
  C  611  1  0.03969800  0.53442800  0.01391100  1
  C  612  1  0.08164700  0.52388100  0.98907200  1
  C  613  1  0.05186800  0.50955000  0.98828700  1
  C  614  1  0.05699700  0.49672300  0.97570800  1
  C  615  1  0.02635900  0.48270100  0.97523200  1
  C  619  1  0.88077700  0.48097200  0.02462500  1
  C  623  1  0.03012200  0.54696800  0.02762900  1
  C  631  1  0.42229200  0.03565500  0.00253300  1
  C  632  1  0.41806700  0.02229800  0.99028300  1
  C  634  1  0.48478000  0.00787700  0.00194200  1
  C  635  1  0.48995800  0.02069600  0.01466200  1
  C  636  1  0.45821300  0.03447300  0.01482300  1
  C  638  1  0.51570400  0.99384300  0.00141400  1
  C  639  1  0.57599700  0.96540500  0.00022700  1
  C  641  1  0.53979000  0.96758100  0.98806800  1
  C  642  1  0.58179400  0.97818200  0.01287200  1
  C  643  1  0.55194100  0.99249200  0.01366300  1
  C  644  1  0.55705000  0.00533000  0.02623000  1
  C  645  1  0.52633800  0.01933100  0.02671300  1
  C  649  1  0.38059400  0.02093300  0.97737900  1
  C  653  1  0.53023000  0.95502400  0.97436300  1
  C  661  1  0.67226000  0.24938400  0.78570100  1
  C  662  1  0.66804800  0.26162200  0.77232900  1
  C  664  1  0.73460800  0.24988200  0.75787700  1
  C  665  1  0.73977600  0.23717800  0.77071100  1
  C  666  1  0.70810100  0.23706300  0.78451000  1
  C  668  1  0.76545200  0.25036100  0.74381800  1
  C  669  1  0.82559600  0.25144900  0.71533200  1
  C  671  1  0.78948700  0.26364700  0.71751900  1
  C  672  1  0.83138300  0.23881900  0.72812600  1
  C  673  1  0.80160000  0.23807600  0.74245800  1
  C  674  1  0.80670100  0.22552500  0.75531300  1
  C  675  1  0.77606600  0.22509200  0.76933700  1
  C  679  1  0.63061800  0.27454100  0.77095500  1
  C  683  1  0.77994700  0.27734300  0.70494900  1
  C  691  1  0.17220200  0.25261900  0.21632300  1
  C  692  1  0.16802400  0.24036100  0.22967600  1
  C  694  1  0.23457900  0.25209400  0.24413800  1
  C  695  1  0.23971400  0.26481800  0.23132000  1
  C  696  1  0.20802400  0.26494700  0.21752700  1
  C  698  1  0.26542500  0.25160700  0.25819600  1
  C  699  1  0.32554700  0.25050700  0.28668700  1
  C  701  1  0.28947300  0.23830000  0.28448200  1
  C  702  1  0.33131400  0.26315300  0.27390800  1
  C  703  1  0.30154500  0.26390000  0.25957200  1
  C  704  1  0.30662200  0.27646800  0.24673200  1
  C  705  1  0.27598700  0.27691000  0.23270800  1
  C  709  1  0.13061500  0.22743000  0.23103400  1
  C  713  1  0.27995800  0.22458800  0.29703600  1
  C  721  1  0.66731800  0.74977200  0.21799200  1
  C  722  1  0.65442600  0.75317900  0.23524100  1
  C  724  1  0.73374900  0.75033400  0.24455100  1
  C  725  1  0.74831400  0.74639600  0.22766200  1
  C  726  1  0.71458000  0.74611400  0.21454800  1
  C  728  1  0.76642300  0.75072500  0.25803800  1
  C  729  1  0.83034300  0.75095100  0.28545900  1
  C  731  1  0.78260400  0.75496600  0.28791700  1
  C  732  1  0.84539100  0.74733700  0.26858800  1
  C  733  1  0.81391400  0.74709300  0.25474100  1
  C  734  1  0.82823500  0.74324600  0.23789600  1
  C  735  1  0.79570500  0.74292300  0.22445800  1
  C  739  1  0.60632600  0.75581700  0.24143200  1
  C  743  1  0.76251700  0.75900300  0.30486500  1
  C  751  1  0.16729800  0.75224900  0.78400200  1
  C  752  1  0.15439900  0.74885300  0.76675200  1
  C  754  1  0.23372200  0.75169200  0.75743900  1
  C  755  1  0.24829300  0.75562500  0.77432800  1
  C  756  1  0.21456100  0.75590600  0.78744400  1
  C  758  1  0.26639000  0.75129900  0.74395100  1
  C  759  1  0.33030600  0.75106500  0.71652700  1
  C  761  1  0.28256000  0.74705800  0.71407100  1
  C  762  1  0.34535800  0.75468100  0.73339700  1
  C  763  1  0.31388500  0.75492800  0.74724500  1
  C  764  1  0.32821200  0.75877400  0.76409100  1
  C  765  1  0.29568500  0.75909600  0.77753100  1
  C  769  1  0.10630100  0.74619700  0.76056600  1
  C  773  1  0.26247600  0.74301300  0.69712500  1
  C  781  1  0.32932500  0.75223600  0.21624900  1
  C  782  1  0.33356900  0.74001300  0.22963200  1
  C  784  1  0.26696400  0.75173800  0.24406700  1
  C  785  1  0.26176900  0.76443000  0.23122200  1
  C  786  1  0.29345200  0.76454600  0.21742600  1
  C  788  1  0.23611300  0.75125900  0.25812400  1
  C  789  1  0.17594900  0.75016100  0.28660300  1
  C  791  1  0.21210600  0.73798100  0.28443100  1
  C  792  1  0.17013100  0.76278100  0.27380000  1
  C  793  1  0.19992300  0.76352600  0.25947100  1
  C  794  1  0.19479500  0.77606700  0.24660600  1
  C  795  1  0.22543900  0.77650300  0.23258400  1
  C  799  1  0.37103800  0.72711000  0.23102200  1
  C  803  1  0.22168800  0.72430100  0.29701200  1
  C  811  1  0.82932000  0.74972700  0.78572500  1
  C  812  1  0.83354600  0.76197600  0.77236600  1
  C  814  1  0.76697900  0.75025800  0.75790100  1
  C  815  1  0.76179700  0.73754200  0.77072400  1
  C  816  1  0.79347200  0.73740900  0.78452200  1
  C  818  1  0.73614900  0.75075100  0.74383800  1
  C  819  1  0.67605800  0.75186400  0.71534000  1
  C  821  1  0.71216700  0.76405600  0.71754400  1
  C  822  1  0.67024300  0.73922300  0.72812200  1
  C  823  1  0.69999500  0.73847000  0.74246100  1
  C  824  1  0.69487500  0.72590900  0.75530600  1
  C  825  1  0.72549300  0.72546200  0.76933500  1
  C  829  1  0.87099400  0.77489000  0.77100400  1
  C  833  1  0.72174100  0.77775800  0.70498500  1
  C  841  1  0.58450000  0.53406500  0.49978700  1
  C  842  1  0.59738800  0.51681700  0.50319800  1
  C  844  1  0.51804400  0.50751600  0.50041400  1
  C  845  1  0.50347600  0.52440400  0.49647400  1
  C  846  1  0.53722400  0.53751400  0.49615900  1
  C  848  1  0.48535400  0.49403700  0.50085200  1
  C  849  1  0.42138400  0.46663200  0.50119000  1
  C  851  1  0.46915400  0.46416900  0.50515300  1
  C  852  1  0.40634000  0.48350100  0.49756400  1
  C  853  1  0.43784100  0.49734000  0.49726400  1
  C  854  1  0.42352000  0.51418300  0.49340700  1
  C  855  1  0.45606800  0.52761400  0.49304000  1
  C  859  1  0.64549900  0.51062400  0.50581100  1
  C  863  1  0.48924900  0.44722100  0.50919000  1
  C  871  1  0.08457300  0.96795100  0.50220700  1
  C  872  1  0.09744600  0.98520600  0.49882800  1
  C  874  1  0.01805500  0.99447600  0.50153100  1
  C  875  1  0.00350100  0.97758100  0.50544700  1
  C  876  1  0.03728200  0.96448300  0.50579000  1
  C  878  1  0.98533800  0.00794600  0.50107100  1
  C  879  1  0.92131700  0.03533100  0.50069800  1
  C  881  1  0.96910700  0.03781300  0.49678300  1
  C  882  1  0.90627900  0.01845500  0.50429700  1
  C  883  1  0.93780800  0.00462600  0.50461300  1
  C  884  1  0.92350100  0.98777600  0.50844700  1
  C  885  1  0.95608000  0.97435400  0.50883600  1
  C  889  1  0.14555400  0.99141000  0.49623300  1
  C  893  1  0.98918100  0.05476900  0.49277100  1
  C  901  1  0.42258400  0.96625100  0.49965200  1
  C  902  1  0.41839700  0.97963000  0.51188100  1
  C  904  1  0.48484600  0.99410200  0.50007800  1
  C  905  1  0.48998600  0.98125800  0.48738100  1
  C  906  1  0.45835600  0.96744400  0.48730300  1
  C  908  1  0.51564100  0.00817600  0.50051800  1
  C  909  1  0.57569100  0.03668900  0.50153900  1
  C  911  1  0.53965100  0.03449800  0.51376200  1
  C  912  1  0.58145300  0.02388800  0.48891500  1
  C  913  1  0.55171500  0.00954200  0.48820600  1
  C  914  1  0.55679300  0.99667700  0.47566500  1
  C  915  1  0.52620600  0.98263700  0.47526700  1
  C  919  1  0.38102900  0.98100200  0.52482600  1
  C  923  1  0.53014000  0.04707500  0.52745400  1
  C  931  1  0.92245700  0.53567300  0.50231500  1
  C  932  1  0.91830100  0.52229900  0.49007800  1
  C  934  1  0.98477100  0.50784000  0.50187700  1
  C  935  1  0.98988700  0.52067800  0.51458000  1
  C  936  1  0.95822600  0.53448200  0.51466500  1
  C  938  1  0.01558100  0.49376900  0.50143400  1
  C  939  1  0.07563300  0.46525700  0.50041600  1
  C  941  1  0.03961100  0.46745200  0.48818600  1
  C  942  1  0.08137900  0.47805600  0.51304400  1
  C  943  1  0.05164400  0.49240300  0.51375100  1
  C  944  1  0.05670200  0.50526400  0.52629700  1
  C  945  1  0.02610100  0.51929900  0.52669700  1
  C  949  1  0.88094400  0.52092500  0.47713000  1
  C  953  1  0.03011800  0.45487700  0.47449100  1
  C  961  1  0.43150500  0.19342100  0.88298700  1
  C  962  1  0.43108000  0.17556200  0.87943300  1
  C  964  1  0.39864700  0.16940300  0.90712400  1
  C  965  1  0.40016000  0.18697500  0.91162800  1
  C  966  1  0.41669300  0.19879700  0.89939900  1
  C  968  1  0.38159200  0.15720600  0.91890000  1
  C  969  1  0.34794900  0.13241800  0.94207800  1
  C  971  1  0.36248600  0.12795500  0.92528200  1
  C  972  1  0.34999000  0.14988100  0.94682200  1
  C  973  1  0.36656500  0.16245600  0.93537500  1
  C  974  1  0.36850600  0.17995000  0.93982100  1
  C  975  1  0.38495200  0.19211900  0.92801500  1
  C  979  1  0.44960300  0.16750500  0.86371300  1
  C  983  1  0.36223500  0.11016800  0.91882000  1
  C  991  1  0.93153100  0.30855600  0.11897400  1
  C  992  1  0.93160400  0.32643000  0.12245800  1
  C  994  1  0.89865200  0.33258300  0.09484800  1
  C  995  1  0.89968900  0.31499100  0.09040400  1
  C  996  1  0.91623900  0.30316600  0.10262600  1
  C  998  1  0.88159400  0.34478500  0.08308100  1
  C  999  1  0.84795100  0.36958600  0.05991800  1
  C  1001  1  0.86293300  0.37406600  0.07665500  1
  C  1002  1  0.84955700  0.35210500  0.05522300  1
  C  1003  1  0.86610800  0.33952200  0.06666600  1
  C  1004  1  0.86757900  0.32200700  0.06227800  1
  C  1005  1  0.88401800  0.30983300  0.07407900  1
  C  1009  1  0.95062300  0.33448800  0.13809500  1
  C  1013  1  0.86313100  0.39187500  0.08305900  1
  C  1021  1  0.68148600  0.36905600  0.94340900  1
  C  1022  1  0.68170500  0.37251200  0.92552900  1
  C  1024  1  0.64853500  0.34493500  0.91939000  1
  C  1025  1  0.64940800  0.34051900  0.93698900  1
  C  1026  1  0.66599300  0.35273700  0.94881000  1
  C  1028  1  0.63145600  0.33316900  0.90718800  1
  C  1029  1  0.59781600  0.31000400  0.88239200  1
  C  1031  1  0.61295800  0.32671800  0.87789900  1
  C  1032  1  0.59924200  0.30533600  0.89988200  1
  C  1033  1  0.61579900  0.31678000  0.91246200  1
  C  1034  1  0.61711400  0.31241700  0.92998500  1
  C  1035  1  0.63356000  0.32421900  0.94215600  1
  C  1039  1  0.70099600  0.38810000  0.91746300  1
  C  1043  1  0.61334700  0.33308800  0.86007900  1
  C  1051  1  0.18164600  0.13298300  0.05860200  1
  C  1052  1  0.18166500  0.12949400  0.07647500  1
  C  1054  1  0.14876400  0.15711200  0.08262600  1
  C  1055  1  0.14984800  0.16156000  0.06503500  1
  C  1056  1  0.16640700  0.14933800  0.05321200  1
  C  1058  1  0.13171600  0.16888300  0.09482700  1
  C  1059  1  0.09814900  0.19206100  0.11962900  1
  C  1061  1  0.11305000  0.17531300  0.12410700  1
  C  1062  1  0.09977400  0.19675600  0.10214700  1
  C  1063  1  0.11629400  0.18530700  0.08956500  1
  C  1064  1  0.11780800  0.18969800  0.07205100  1
  C  1065  1  0.13422800  0.17789100  0.05987800  1
  C  1069  1  0.20070300  0.11386200  0.08453700  1
  C  1073  1  0.11322400  0.16890800  0.14191500  1
  C  1081  1  0.57023100  0.80829800  0.11917600  1
  C  1082  1  0.57101300  0.82613800  0.12281800  1
  C  1084  1  0.60355100  0.83233700  0.09515600  1
  C  1085  1  0.60168300  0.81479100  0.09056600  1
  C  1086  1  0.58491000  0.80295700  0.10273800  1
  C  1088  1  0.62089400  0.84454200  0.08344900  1
  C  1089  1  0.65513600  0.86935000  0.06041700  1
  C  1091  1  0.64061600  0.87377100  0.07722600  1
  C  1092  1  0.65276700  0.85191800  0.05558500  1
  C  1093  1  0.63587300  0.83933200  0.06695500  1
  C  1094  1  0.63356300  0.82186600  0.06241900  1
  C  1095  1  0.61681800  0.80968700  0.07415700  1
  C  1099  1  0.55271300  0.83416200  0.13858800  1
  C  1103  1  0.64115900  0.89152500  0.08377600  1
  C  1111  1  0.07037100  0.69371500  0.88280300  1
  C  1112  1  0.07056700  0.67585800  0.87923900  1
  C  1114  1  0.10370200  0.66965800  0.90680600  1
  C  1115  1  0.10239200  0.68722700  0.91133100  1
  C  1116  1  0.08560800  0.69906900  0.89916900  1
  C  1118  1  0.12103900  0.65744200  0.91850200  1
  C  1119  1  0.15525600  0.63261000  0.94151300  1
  C  1121  1  0.14021700  0.62817300  0.92477100  1
  C  1122  1  0.15339400  0.65006600  0.94629100  1
  C  1123  1  0.13654200  0.66266300  0.93492600  1
  C  1124  1  0.13478200  0.68015400  0.93939900  1
  C  1125  1  0.11805700  0.69234400  0.92766800  1
  C  1129  1  0.05167600  0.66783300  0.86356400  1
  C  1133  1  0.14022400  0.61039400  0.91828500  1
  C  1141  1  0.31858800  0.63260000  0.05879900  1
  C  1142  1  0.31796500  0.62924100  0.07669500  1
  C  1144  1  0.35199400  0.65669300  0.08276800  1
  C  1145  1  0.35151700  0.66102600  0.06514600  1
  C  1146  1  0.33471000  0.64882200  0.05335100  1
  C  1148  1  0.36932600  0.66843700  0.09494300  1
  C  1149  1  0.40345700  0.69156000  0.11968900  1
  C  1151  1  0.38771700  0.67493600  0.12423300  1
  C  1152  1  0.40238900  0.69615600  0.10217700  1
  C  1153  1  0.38560200  0.68472800  0.08962100  1
  C  1154  1  0.38466300  0.68901300  0.07207500  1
  C  1155  1  0.36798800  0.67722700  0.05993000  1
  C  1159  1  0.29803200  0.61378300  0.08479800  1
  C  1163  1  0.38692700  0.66864500  0.14207900  1
  C  1171  1  0.81849100  0.86933100  0.94318100  1
  C  1172  1  0.81797600  0.87271000  0.92528700  1
  C  1174  1  0.85180000  0.84522800  0.91920500  1
  C  1175  1  0.85120600  0.84087400  0.93682200  1
  C  1176  1  0.83443600  0.85308200  0.94862100  1
  C  1178  1  0.86908500  0.83347700  0.90702800  1
  C  1179  1  0.90311100  0.81033800  0.88227300  1
  C  1181  1  0.88753700  0.82698800  0.87774200  1
  C  1182  1  0.90192800  0.80572600  0.89978200  1
  C  1183  1  0.88520000  0.81716100  0.91234100  1
  C  1184  1  0.88415000  0.81285800  0.92988200  1
  C  1185  1  0.86752300  0.82465000  0.94203100  1
  C  1189  1  0.79819800  0.88819800  0.91718900  1
  C  1193  1  0.88687300  0.83330100  0.85990200  1
  C  1201  1  0.93347500  0.69321200  0.38266900  1
  C  1202  1  0.93355100  0.67533200  0.37921700  1
  C  1204  1  0.90023500  0.66923600  0.40678000  1
  C  1205  1  0.90126400  0.68683400  0.41119700  1
  C  1206  1  0.91798500  0.69863400  0.39898100  1
  C  1208  1  0.88295700  0.65706000  0.41853400  1
  C  1209  1  0.84887200  0.63231200  0.44166900  1
  C  1211  1  0.86404900  0.62780100  0.42496400  1
  C  1212  1  0.85049300  0.64980000  0.44634000  1
  C  1213  1  0.86726200  0.66235600  0.43491100  1
  C  1214  1  0.86875100  0.67987700  0.43927700  1
  C  1215  1  0.88538100  0.69202400  0.42748400  1
  C  1219  1  0.95279700  0.66724200  0.36363600  1
  C  1223  1  0.86425400  0.60998400  0.41858300  1
  C  1231  1  0.43340000  0.80879100  0.61933900  1
  C  1232  1  0.43384500  0.82668300  0.62272900  1
  C  1234  1  0.40010800  0.83276800  0.59523300  1
  C  1235  1  0.40077500  0.81515300  0.59086900  1
  C  1236  1  0.41752400  0.80335500  0.60307900  1
  C  1238  1  0.38282300  0.84494500  0.58348300  1
  C  1239  1  0.34874200  0.86969500  0.56035200  1
  C  1241  1  0.36427300  0.87422500  0.57700700  1
  C  1242  1  0.35002200  0.85219100  0.55572600  1
  C  1243  1  0.36677400  0.83963400  0.56715700  1
  C  1244  1  0.36789700  0.82209700  0.56284400  1
  C  1245  1  0.38453100  0.80994900  0.57463500  1
  C  1249  1  0.45346600  0.83477600  0.63824700  1
  C  1253  1  0.36482600  0.89205900  0.58333500  1
  C  1261  1  0.18161700  0.86918200  0.44371900  1
  C  1262  1  0.18162600  0.87271900  0.42585600  1
  C  1264  1  0.14822000  0.84519800  0.41965500  1
  C  1265  1  0.14931500  0.84069600  0.43723100  1
  C  1266  1  0.16613100  0.85284800  0.44907700  1
  C  1268  1  0.13085600  0.83351200  0.40743300  1
  C  1269  1  0.09662700  0.81051900  0.38259400  1
  C  1271  1  0.11187100  0.82723300  0.37814900  1
  C  1272  1  0.09826500  0.80576000  0.40005600  1
  C  1273  1  0.11512800  0.81711800  0.41265900  1
  C  1274  1  0.11668400  0.81266500  0.43015700  1
  C  1275  1  0.13342200  0.82438900  0.44235100  1
  C  1279  1  0.20083600  0.88834300  0.41783000  1
  C  1283  1  0.11210500  0.83368800  0.36035900  1
  C  1291  1  0.68176800  0.63283700  0.55828100  1
  C  1292  1  0.68159400  0.62927100  0.57613800  1
  C  1294  1  0.64842000  0.65682900  0.58234400  1
  C  1295  1  0.64970700  0.66135600  0.56477600  1
  C  1296  1  0.66650800  0.64920100  0.55293000  1
  C  1298  1  0.63108400  0.66852100  0.59456500  1
  C  1299  1  0.59692900  0.69153100  0.61940700  1
  C  1301  1  0.61196000  0.67478600  0.62383900  1
  C  1302  1  0.59873400  0.69630800  0.60195000  1
  C  1303  1  0.61556300  0.68494400  0.58934700  1
  C  1304  1  0.61729500  0.68942000  0.57185700  1
  C  1305  1  0.63401200  0.67769200  0.55966200  1
  C  1309  1  0.70057900  0.61361000  0.58416000  1
  C  1313  1  0.61200800  0.66830100  0.64161800  1
  C  1321  1  0.06855600  0.30843700  0.61954600  1
  C  1322  1  0.06862800  0.32630500  0.62306100  1
  C  1324  1  0.10223000  0.33244800  0.59555800  1
  C  1325  1  0.10104800  0.31486800  0.59107600  1
  C  1326  1  0.08410600  0.30304900  0.60323000  1
  C  1328  1  0.11976600  0.34464100  0.58387600  1
  C  1329  1  0.15436700  0.36942500  0.56088900  1
  C  1331  1  0.13904800  0.37389600  0.57758800  1
  C  1332  1  0.15262300  0.35195600  0.55614900  1
  C  1333  1  0.13557900  0.33938200  0.56750400  1
  C  1334  1  0.13392500  0.32188200  0.56306800  1
  C  1335  1  0.11702900  0.30971500  0.57479000  1
  C  1339  1  0.04937700  0.33436300  0.63865900  1
  C  1343  1  0.13891700  0.39169000  0.58403500  1
  C  1351  1  0.56841500  0.19349100  0.38245500  1
  C  1352  1  0.56811600  0.17561300  0.37899900  1
  C  1354  1  0.60213500  0.16947800  0.40643500  1
  C  1355  1  0.60130800  0.18707400  0.41086800  1
  C  1356  1  0.58433300  0.19889400  0.39872000  1
  C  1358  1  0.61969400  0.15728300  0.41810800  1
  C  1359  1  0.65436000  0.13249500  0.44107700  1
  C  1361  1  0.63867600  0.12800700  0.42442900  1
  C  1362  1  0.65292000  0.14997700  0.44578000  1
  C  1363  1  0.63586900  0.16255400  0.43443000  1
  C  1364  1  0.63456100  0.18007100  0.43881800  1
  C  1365  1  0.61764600  0.19224000  0.42710200  1
  C  1369  1  0.54850200  0.16755100  0.36346300  1
  C  1373  1  0.63822000  0.11019800  0.41802900  1
  C  1381  1  0.81847700  0.13247600  0.55846900  1
  C  1382  1  0.81801400  0.12904200  0.57635200  1
  C  1384  1  0.85230100  0.15643400  0.58248400  1
  C  1385  1  0.85165100  0.16084500  0.56488200  1
  C  1386  1  0.83462700  0.14870700  0.55306200  1
  C  1388  1  0.86990500  0.16809600  0.59468000  1
  C  1389  1  0.90459200  0.19105000  0.61947200  1
  C  1391  1  0.88872000  0.17442900  0.62396800  1
  C  1392  1  0.90335800  0.19573100  0.60198400  1
  C  1393  1  0.88628500  0.18438900  0.58940500  1
  C  1394  1  0.88514800  0.18875700  0.57188200  1
  C  1395  1  0.86820100  0.17705000  0.55971100  1
  C  1399  1  0.79811800  0.11355600  0.58441500  1
  C  1403  1  0.88804200  0.16806100  0.64178700  1
  C  1411  1  0.31848700  0.36948600  0.44350200  1
  C  1412  1  0.31817500  0.37294800  0.42562400  1
  C  1414  1  0.35225400  0.34552600  0.41947900  1
  C  1415  1  0.35144800  0.34108800  0.43707300  1
  C  1416  1  0.33444200  0.35322500  0.44889700  1
  C  1418  1  0.36981300  0.33385800  0.40727800  1
  C  1419  1  0.40439900  0.31089100  0.38247600  1
  C  1421  1  0.38871500  0.32754100  0.37799500  1
  C  1422  1  0.40303200  0.30619000  0.39995900  1
  C  1423  1  0.38601300  0.31753800  0.41254300  1
  C  1424  1  0.38474000  0.31314600  0.43006000  1
  C  1425  1  0.36782800  0.32485600  0.44223300  1
  C  1429  1  0.29846000  0.38847000  0.41756800  1
  C  1433  1  0.38817600  0.33394000  0.36018600  1
  N  17  1  0.25561400  0.11401600  0.98451000  1
  N  18  1  0.21663500  0.05875200  0.99028500  1
  N  47  1  0.75552300  0.38799400  0.01747000  1
  N  48  1  0.71676800  0.44325700  0.01171600  1
  N  77  1  0.50562500  0.26760400  0.86401500  1
  N  78  1  0.46679300  0.26177500  0.80875600  1
  N  107  1  0.00569700  0.23446700  0.13795300  1
  N  108  1  0.96668700  0.24023700  0.19319000  1
  N  137  1  0.74673900  0.88792800  0.01738500  1
  N  138  1  0.78642300  0.94310700  0.01209400  1
  N  167  1  0.24691300  0.61402800  0.98458000  1
  N  168  1  0.28632300  0.55885100  0.98988300  1
  N  197  1  0.49626300  0.73394500  0.13804600  1
  N  198  1  0.53483400  0.73985300  0.19334100  1
  N  227  1  0.99618100  0.76794700  0.86396600  1
  N  228  1  0.03482500  0.76213500  0.80868300  1
  N  257  1  0.75587800  0.61398400  0.48405000  1
  N  258  1  0.71696200  0.55870800  0.48985700  1
  N  287  1  0.25571600  0.88802000  0.51794200  1
  N  288  1  0.21701600  0.94329000  0.51213200  1
  N  317  1  0.00522000  0.76752500  0.36402800  1
  N  318  1  0.96569200  0.76214300  0.30885600  1
  N  347  1  0.50521100  0.73455200  0.63793000  1
  N  348  1  0.46567700  0.73985900  0.69309300  1
  N  377  1  0.24664800  0.38794400  0.51787400  1
  N  378  1  0.28601200  0.44313900  0.51253600  1
  N  407  1  0.74672100  0.11400300  0.48410700  1
  N  408  1  0.78605800  0.05882000  0.48945300  1
  N  437  1  0.99664700  0.23402800  0.63802300  1
  N  438  1  0.03583000  0.23939500  0.69323300  1
  N  467  1  0.49673600  0.26786400  0.36398000  1
  N  468  1  0.53600600  0.26252200  0.30878900  1
  N  483  1  0.06371800  0.00461700  0.00363300  1
  N  490  1  0.99861900  0.97777500  0.00464600  1
  N  507  1  0.89058700  0.95314900  0.00073400  1
  N  509  1  0.11492400  0.04758800  0.00023100  1
  N  513  1  0.56376600  0.49739900  0.99840500  1
  N  520  1  0.49858600  0.52421100  0.99736300  1
  N  537  1  0.39042200  0.54877700  0.00119700  1
  N  539  1  0.61515900  0.45446400  0.00184400  1
  N  543  1  0.31362200  0.24834200  0.75465000  1
  N  550  1  0.24834700  0.24717800  0.72787700  1
  N  567  1  0.14003800  0.25080100  0.70336700  1
  N  569  1  0.36513600  0.25186900  0.79755500  1
  N  573  1  0.81361500  0.25366000  0.24731300  1
  N  580  1  0.74840800  0.25480800  0.27410900  1
  N  597  1  0.64022000  0.25110800  0.29867000  1
  N  599  1  0.86503700  0.25013200  0.20439100  1
  N  603  1  0.94941600  0.49270500  0.01143300  1
  N  610  1  0.01140900  0.52053100  0.01266400  1
  N  627  1  0.10556900  0.55037400  0.00224000  1
  N  629  1  0.89298000  0.45253900  0.99887000  1
  N  633  1  0.44931000  0.00924500  0.99055900  1
  N  640  1  0.51143600  0.98146000  0.98931900  1
  N  657  1  0.60579700  0.95169500  0.99972300  1
  N  659  1  0.39270700  0.04938000  0.00310400  1
  N  663  1  0.69921900  0.26129800  0.75925200  1
  N  670  1  0.76119600  0.26244100  0.73141900  1
  N  687  1  0.85537600  0.25192400  0.70161700  1
  N  689  1  0.64268200  0.24883700  0.79942700  1
  N  693  1  0.19920500  0.24067300  0.24275000  1
  N  700  1  0.26119200  0.23951000  0.27058000  1
  N  717  1  0.35526300  0.25003200  0.30042000  1
  N  719  1  0.14261600  0.25317800  0.20259800  1
  N  723  1  0.68797600  0.75337100  0.24749500  1
  N  730  1  0.75321800  0.75450700  0.27428500  1
  N  747  1  0.86140600  0.75073700  0.29883800  1
  N  749  1  0.63658200  0.74984900  0.20456700  1
  N  753  1  0.18794700  0.74865800  0.75449700  1
  N  760  1  0.25317900  0.74751900  0.72770400  1
  N  777  1  0.36138700  0.75126400  0.70315300  1
  N  779  1  0.13653000  0.75218200  0.79742400  1
  N  783  1  0.30238900  0.74033600  0.24270500  1
  N  790  1  0.24040100  0.73918900  0.27053100  1
  N  807  1  0.14617300  0.74968600  0.30031900  1
  N  809  1  0.35891400  0.75278200  0.20252500  1
  N  813  1  0.80237900  0.76166800  0.75928800  1
  N  820  1  0.74043000  0.76283900  0.73145000  1
  N  837  1  0.64636800  0.75234500  0.70159900  1
  N  839  1  0.85889800  0.74916400  0.79945000  1
  N  843  1  0.56382800  0.50456700  0.50342100  1
  N  850  1  0.49855800  0.47779200  0.50464300  1
  N  867  1  0.39029400  0.45326000  0.50103200  1
  N  869  1  0.61525000  0.54748600  0.49985600  1
  N  873  1  0.06385500  0.99744300  0.49857100  1
  N  880  1  0.99853600  0.02419600  0.49730700  1
  N  897  1  0.89017400  0.04868600  0.50084400  1
  N  899  1  0.11541900  0.95455500  0.50219100  1
  N  903  1  0.44952300  0.99272100  0.51152100  1
  N  910  1  0.51140200  0.02058300  0.51259000  1
  N  927  1  0.60543900  0.05041600  0.50198900  1
  N  929  1  0.39304100  0.95251300  0.49913200  1
  N  933  1  0.94945100  0.50921800  0.49043300  1
  N  940  1  0.01136100  0.48136600  0.48935700  1
  N  957  1  0.10533900  0.45152000  0.49997400  1
  N  959  1  0.89286200  0.54939800  0.50283900  1
  N  963  1  0.41444300  0.16459700  0.89147900  1
  N  970  1  0.37881700  0.14038400  0.91468700  1
  N  987  1  0.33124000  0.12038300  0.95332500  1
  N  989  1  0.44547500  0.20567400  0.87143800  1
  N  993  1  0.91491100  0.33739700  0.11042600  1
  N  1000  1  0.87924300  0.36162800  0.08724400  1
  N  1017  1  0.83120200  0.38162100  0.04868100  1
  N  1019  1  0.94556000  0.29631200  0.13053100  1
  N  1023  1  0.66498100  0.36048300  0.91456600  1
  N  1030  1  0.62926100  0.33730900  0.89033600  1
  N  1047  1  0.58109500  0.29876000  0.87036200  1
  N  1049  1  0.69561300  0.38060900  0.95564600  1
  N  1053  1  0.16498600  0.14152900  0.08744100  1
  N  1060  1  0.12933100  0.16471800  0.11166900  1
  N  1077  1  0.08151200  0.20330600  0.13167400  1
  N  1079  1  0.19571000  0.12143100  0.04635800  1
  N  1083  1  0.58785600  0.83711300  0.11082400  1
  N  1090  1  0.62399600  0.86133300  0.08774900  1
  N  1107  1  0.67203000  0.88140600  0.04922900  1
  N  1109  1  0.55616700  0.79603200  0.13069300  1
  N  1113  1  0.08747200  0.66487500  0.89121400  1
  N  1120  1  0.12363700  0.64062400  0.91425500  1
  N  1137  1  0.17215900  0.62054900  0.95268900  1
  N  1139  1  0.05623400  0.70597600  0.87128400  1
  N  1143  1  0.33494100  0.64124600  0.08763400  1
  N  1150  1  0.37119400  0.66436300  0.11181700  1
  N  1167  1  0.42037600  0.70278800  0.13169800  1
  N  1169  1  0.30442300  0.62102700  0.04658200  1
  N  1173  1  0.83489900  0.86069800  0.91434500  1
  N  1180  1  0.87106000  0.83756700  0.89016000  1
  N  1197  1  0.91993200  0.79910600  0.87024900  1
  N  1199  1  0.80439200  0.88090200  0.95540700  1
  N  1203  1  0.91669100  0.66439000  0.39124100  1
  N  1210  1  0.88057200  0.64021200  0.41438900  1
  N  1227  1  0.83196400  0.62029600  0.45289600  1
  N  1229  1  0.94743100  0.70545200  0.37109600  1
  N  1233  1  0.41692600  0.83762400  0.61071700  1
  N  1240  1  0.38077500  0.86181000  0.58758400  1
  N  1257  1  0.33181000  0.88170700  0.54912800  1
  N  1259  1  0.44746400  0.79656600  0.63091600  1
  N  1263  1  0.16468700  0.86075400  0.41486800  1
  N  1270  1  0.12845500  0.83774200  0.39060600  1
  N  1287  1  0.07975100  0.79934100  0.37053200  1
  N  1289  1  0.19581300  0.88069600  0.45597600  1
  N  1293  1  0.66469200  0.64124300  0.58712600  1
  N  1300  1  0.62851700  0.66427200  0.61138300  1
  N  1317  1  0.58014600  0.70271100  0.63148500  1
  N  1319  1  0.69591500  0.62132500  0.54601600  1
  N  1323  1  0.08569600  0.33726500  0.61109600  1
  N  1330  1  0.12228200  0.36146800  0.58809100  1
  N  1347  1  0.17141500  0.38147000  0.54972300  1
  N  1349  1  0.05449000  0.29617900  0.63107900  1
  N  1353  1  0.58524400  0.16465100  0.39095200  1
  N  1360  1  0.62189900  0.14044000  0.41393300  1
  N  1377  1  0.67146000  0.12045400  0.45223300  1
  N  1379  1  0.55428200  0.20573600  0.37091300  1
  N  1383  1  0.83519400  0.14098400  0.58731400  1
  N  1390  1  0.87193600  0.16394000  0.61153100  1
  N  1407  1  0.92166100  0.20221000  0.63151400  1
  N  1409  1  0.80425000  0.12094100  0.54623000  1
  N  1413  1  0.33531400  0.36100300  0.41465700  1
  N  1420  1  0.37197300  0.33803500  0.39043500  1
  N  1437  1  0.42136400  0.29972800  0.37041400  1
  N  1439  1  0.30428700  0.38101200  0.45575000  1
  O  27  1  0.13957300  0.10162500  0.05429800  1
  O  28  1  0.13467300  0.04381300  0.02914100  1
  O  29  1  0.41936700  0.06019200  0.97704000  1
  O  30  1  0.38478100  0.12697100  0.97515000  1
  O  57  1  0.63975400  0.40049500  0.94761300  1
  O  58  1  0.63473500  0.45824300  0.97290500  1
  O  59  1  0.91956700  0.44171200  0.02493200  1
  O  60  1  0.88446300  0.37491500  0.02679400  1
  O  87  1  0.38883000  0.19799900  0.85176300  1
  O  88  1  0.38491000  0.22294200  0.79377200  1
  O  89  1  0.66943600  0.27491700  0.81019600  1
  O  90  1  0.63449200  0.27691900  0.87710100  1
  O  117  1  0.88944700  0.30424400  0.15034300  1
  O  118  1  0.88474800  0.27906100  0.20816300  1
  O  119  1  0.16938000  0.22710900  0.19180500  1
  O  120  1  0.13466100  0.22523400  0.12491000  1
  O  147  1  0.85958700  0.90091400  0.94707100  1
  O  148  1  0.86276900  0.95909500  0.97304000  1
  O  149  1  0.58607900  0.94245900  0.02726400  1
  O  150  1  0.61838300  0.87500000  0.02738200  1
  O  177  1  0.35947800  0.60097500  0.05495800  1
  O  178  1  0.36271200  0.54282800  0.02891100  1
  O  179  1  0.08598500  0.55960600  0.97468900  1
  O  180  1  0.11885400  0.62710900  0.97461100  1
  O  207  1  0.61330200  0.80347400  0.15025700  1
  O  208  1  0.61654700  0.77874000  0.20834300  1
  O  209  1  0.33222400  0.72668500  0.19176900  1
  O  210  1  0.36762600  0.72479100  0.12480300  1
  O  237  1  0.11265900  0.69823500  0.85152600  1
  O  238  1  0.11671100  0.72327100  0.79366900  1
  O  239  1  0.83219000  0.77524300  0.81024000  1
  O  240  1  0.86747800  0.77701000  0.87719700  1
  O  267  1  0.63952800  0.60156100  0.55380700  1
  O  268  1  0.63525000  0.54370800  0.52874500  1
  O  269  1  0.91976500  0.56017200  0.47678200  1
  O  270  1  0.88489800  0.62702300  0.47487800  1
  O  297  1  0.13966100  0.90052500  0.44810200  1
  O  298  1  0.13528100  0.95832600  0.47327300  1
  O  299  1  0.41983300  0.94174400  0.52520000  1
  O  300  1  0.38453500  0.87487500  0.52710300  1
  O  327  1  0.89169300  0.69736800  0.35122600  1
  O  328  1  0.88950600  0.72307400  0.29286200  1
  O  329  1  0.16595500  0.77724100  0.30950300  1
  O  330  1  0.13321100  0.77747000  0.37711400  1
  O  357  1  0.39212300  0.80482200  0.65089200  1
  O  358  1  0.38934100  0.77894000  0.70908400  1
  O  359  1  0.66603800  0.72478400  0.69241300  1
  O  360  1  0.63323600  0.72469700  0.62483400  1
  O  387  1  0.35973100  0.40099400  0.44758400  1
  O  388  1  0.36202300  0.45919100  0.47340100  1
  O  389  1  0.08553700  0.44235700  0.52752900  1
  O  390  1  0.11861000  0.37482100  0.52767000  1
  O  417  1  0.85952800  0.10092300  0.55447800  1
  O  418  1  0.86213600  0.04273900  0.52851700  1
  O  419  1  0.58562600  0.05959100  0.47443500  1
  O  420  1  0.61884600  0.12717700  0.47433200  1
  O  447  1  0.11034300  0.30413800  0.65095300  1
  O  448  1  0.11185000  0.27845800  0.70933800  1
  O  449  1  0.83554200  0.22437900  0.69241200  1
  O  450  1  0.86891100  0.22426000  0.62475200  1
  O  477  1  0.60978600  0.19758700  0.35095700  1
  O  478  1  0.61208800  0.22346000  0.29270200  1
  O  479  1  0.33559200  0.27758800  0.30961500  1
  O  480  1  0.36901000  0.27756000  0.37725300  1
