# generated using pymatgen
data_H19C28(NO2)2
_symmetry_space_group_name_H-M   'P 1'
_cell_length_a   69.18640000
_cell_length_b   69.18640000
_cell_length_c   69.18640000
_cell_angle_alpha   90.00000000
_cell_angle_beta   90.00000000
_cell_angle_gamma   90.00000000
_symmetry_Int_Tables_number   1
_chemical_formula_structural   H19C28(NO2)2
_chemical_formula_sum   'H1824 C2688 N192 O384'
_cell_volume   331178.54988318
_cell_formula_units_Z   96
loop_
 _symmetry_equiv_pos_site_id
 _symmetry_equiv_pos_as_xyz
  1  'x, y, z'
loop_
 _atom_site_type_symbol
 _atom_site_label
 _atom_site_symmetry_multiplicity
 _atom_site_fract_x
 _atom_site_fract_y
 _atom_site_fract_z
 _atom_site_occupancy
  H  31  1  0.07090600  0.22170200  0.18340500  1
  H  32  1  0.09794800  0.20523800  0.16993100  1
  H  33  1  0.07063700  0.18280000  0.23051800  1
  H  34  1  0.09778600  0.16629600  0.21699200  1
  H  35  1  0.13771700  0.17984500  0.13574200  1
  H  36  1  0.13634600  0.13748600  0.17944000  1
  H  37  1  0.18004400  0.13611100  0.13708200  1
  H  38  1  0.17036000  0.09784700  0.20493600  1
  H  39  1  0.16630100  0.21719900  0.09686500  1
  H  40  1  0.18268000  0.23059000  0.06957300  1
  H  41  1  0.22178800  0.18364900  0.07010700  1
  H  42  1  0.20544500  0.17030900  0.09728700  1
  H  43  1  0.18366000  0.07075800  0.22146100  1
  H  44  1  0.23079700  0.07013600  0.18258900  1
  H  45  1  0.21744700  0.09733900  0.16603100  1
  H  46  1  0.17263200  0.19423500  0.12670700  1
  H  47  1  0.17126900  0.15744900  0.10679800  1
  H  48  1  0.12746400  0.17246600  0.19384200  1
  H  49  1  0.10743000  0.17108700  0.15712300  1
  H  50  1  0.19439500  0.12719100  0.17217800  1
  H  51  1  0.15766800  0.10718100  0.17063000  1
  H  88  1  0.92845800  0.77758200  0.18303000  1
  H  89  1  0.90147200  0.79410200  0.16951700  1
  H  90  1  0.92835100  0.81609800  0.23045700  1
  H  91  1  0.90126400  0.83266900  0.21688700  1
  H  92  1  0.86158200  0.81945100  0.13545500  1
  H  93  1  0.86287900  0.86170000  0.17926200  1
  H  94  1  0.81921100  0.86314200  0.13687300  1
  H  95  1  0.82876800  0.90125500  0.20483800  1
  H  96  1  0.83266800  0.78193500  0.09681100  1
  H  97  1  0.81619200  0.76850500  0.06959400  1
  H  98  1  0.77757600  0.81584800  0.06969600  1
  H  99  1  0.79400000  0.82922200  0.09681400  1
  H  100  1  0.81544500  0.92833400  0.22136900  1
  H  101  1  0.76844000  0.92908300  0.18234100  1
  H  102  1  0.78181200  0.90189200  0.16577700  1
  H  103  1  0.82655700  0.80510000  0.12645000  1
  H  104  1  0.82807400  0.84187100  0.10652500  1
  H  105  1  0.87175400  0.82663900  0.19355700  1
  H  106  1  0.89185900  0.82822600  0.15688800  1
  H  107  1  0.80481600  0.87199500  0.17195900  1
  H  108  1  0.84154400  0.89200900  0.17050300  1
  H  145  1  0.92835100  0.22142600  0.81596500  1
  H  146  1  0.90133200  0.20493200  0.82944800  1
  H  147  1  0.92840500  0.18276400  0.76865500  1
  H  148  1  0.90128400  0.16622200  0.78219400  1
  H  149  1  0.86147700  0.17952900  0.86353700  1
  H  150  1  0.86291500  0.13720200  0.81981100  1
  H  151  1  0.81923000  0.13571700  0.86218100  1
  H  152  1  0.82913500  0.09727700  0.79447000  1
  H  153  1  0.83268200  0.21693000  0.90226800  1
  H  154  1  0.81620500  0.23036600  0.92948200  1
  H  155  1  0.77742400  0.18315700  0.92922000  1
  H  156  1  0.79385500  0.16977500  0.90211100  1
  H  157  1  0.81580800  0.07022700  0.77789600  1
  H  158  1  0.76834000  0.06998600  0.81636100  1
  H  159  1  0.78172300  0.09713800  0.83298400  1
  H  160  1  0.82651600  0.19383600  0.87256600  1
  H  161  1  0.82797300  0.15705700  0.89247700  1
  H  162  1  0.87170600  0.17228200  0.80545600  1
  H  163  1  0.89179400  0.17078400  0.84213900  1
  H  164  1  0.80492300  0.12682000  0.82700100  1
  H  165  1  0.84164800  0.10682400  0.82867900  1
  H  202  1  0.07031000  0.77765700  0.81611400  1
  H  203  1  0.09728500  0.79420700  0.82960800  1
  H  204  1  0.07068800  0.81583400  0.76841400  1
  H  205  1  0.09775800  0.83244200  0.78197400  1
  H  206  1  0.13735400  0.81940500  0.86345400  1
  H  207  1  0.13589700  0.86178300  0.81977500  1
  H  208  1  0.17964400  0.86317500  0.86208500  1
  H  209  1  0.16975900  0.90165700  0.79439700  1
  H  210  1  0.16630100  0.78193100  0.90208300  1
  H  211  1  0.18279900  0.76851800  0.92929200  1
  H  212  1  0.22151700  0.81578200  0.92901900  1
  H  213  1  0.20506300  0.82913800  0.90191700  1
  H  214  1  0.18313000  0.92869000  0.77783200  1
  H  215  1  0.23057700  0.92886400  0.81632500  1
  H  216  1  0.21715200  0.90172800  0.83293400  1
  H  217  1  0.17241400  0.80508000  0.87237900  1
  H  218  1  0.17087900  0.84180500  0.89238600  1
  H  219  1  0.12713800  0.82659900  0.80544700  1
  H  220  1  0.10699600  0.82825100  0.84209500  1
  H  221  1  0.19392200  0.87207600  0.82692700  1
  H  222  1  0.15722200  0.89212000  0.82861200  1
  H  259  1  0.22102200  0.07051500  0.81498800  1
  H  260  1  0.20479300  0.09781800  0.82824400  1
  H  261  1  0.18062800  0.06871000  0.76917000  1
  H  262  1  0.16439900  0.09614600  0.78245000  1
  H  263  1  0.17895100  0.13684400  0.86297900  1
  H  264  1  0.13656100  0.13564600  0.81930800  1
  H  265  1  0.13534100  0.17929700  0.86172400  1
  H  266  1  0.09733500  0.17043200  0.79361700  1
  H  267  1  0.21588800  0.16447000  0.90239000  1
  H  268  1  0.22932100  0.18066600  0.92976800  1
  H  269  1  0.18366300  0.22124700  0.92807400  1
  H  270  1  0.17025600  0.20505300  0.90082400  1
  H  271  1  0.06997000  0.18372800  0.77752800  1
  H  272  1  0.06846800  0.22958000  0.81789800  1
  H  273  1  0.09595900  0.21625300  0.83399300  1
  H  274  1  0.19351900  0.17152400  0.87200600  1
  H  275  1  0.15670900  0.17056500  0.89192400  1
  H  276  1  0.17139300  0.12660400  0.80482600  1
  H  277  1  0.17017400  0.10664800  0.84160900  1
  H  278  1  0.12629100  0.19382300  0.82697600  1
  H  279  1  0.10636600  0.15702100  0.82807000  1
  H  316  1  0.77807900  0.92865600  0.81516300  1
  H  317  1  0.79429300  0.90134900  0.82843100  1
  H  318  1  0.81835300  0.93029700  0.76923600  1
  H  319  1  0.83457700  0.90286200  0.78253400  1
  H  320  1  0.82003100  0.86220100  0.86310700  1
  H  321  1  0.86245700  0.86342500  0.81947000  1
  H  322  1  0.86368400  0.81979500  0.86190800  1
  H  323  1  0.90170000  0.82845700  0.79379500  1
  H  324  1  0.78296900  0.83433600  0.90236100  1
  H  325  1  0.76955100  0.81813200  0.92974600  1
  H  326  1  0.81556900  0.77794800  0.92842700  1
  H  327  1  0.82895200  0.79413900  0.90116300  1
  H  328  1  0.92909400  0.81514700  0.77776800  1
  H  329  1  0.93089800  0.76967100  0.81854700  1
  H  330  1  0.90337400  0.78300900  0.83457700  1
  H  331  1  0.80551700  0.82742500  0.87212900  1
  H  332  1  0.84229100  0.82857000  0.89210000  1
  H  333  1  0.82764100  0.87248100  0.80496200  1
  H  334  1  0.82882000  0.89240400  0.84176200  1
  H  335  1  0.87289800  0.80520100  0.82735300  1
  H  336  1  0.89264300  0.84210300  0.82820600  1
  H  373  1  0.22103300  0.92823000  0.18415800  1
  H  374  1  0.20488300  0.90086500  0.17092500  1
  H  375  1  0.18006600  0.93054700  0.22944200  1
  H  376  1  0.16392400  0.90304400  0.21619300  1
  H  377  1  0.17901900  0.86191800  0.13598200  1
  H  378  1  0.13652900  0.86318700  0.17955500  1
  H  379  1  0.13541000  0.81946700  0.13721000  1
  H  380  1  0.09739200  0.82821000  0.20532400  1
  H  381  1  0.21611000  0.83408600  0.09680100  1
  H  382  1  0.22953600  0.81791600  0.06940100  1
  H  383  1  0.18364600  0.77758800  0.07080000  1
  H  384  1  0.17024900  0.79375000  0.09807500  1
  H  385  1  0.06999000  0.81491300  0.22135700  1
  H  386  1  0.06821500  0.76938400  0.18063700  1
  H  387  1  0.09574700  0.78270400  0.16460500  1
  H  388  1  0.19357600  0.82712600  0.12706200  1
  H  389  1  0.15683600  0.82822300  0.10702100  1
  H  390  1  0.17116500  0.87235300  0.19414800  1
  H  391  1  0.17027200  0.89212000  0.15725200  1
  H  392  1  0.12622100  0.80494300  0.17182300  1
  H  393  1  0.10637900  0.84179200  0.17082800  1
  H  430  1  0.77788100  0.07058800  0.18387600  1
  H  431  1  0.79411300  0.09788800  0.17062200  1
  H  432  1  0.81815900  0.06889800  0.22980200  1
  H  433  1  0.83439500  0.09632800  0.21651800  1
  H  434  1  0.81983600  0.13699200  0.13598700  1
  H  435  1  0.86237900  0.13566600  0.17950500  1
  H  436  1  0.86355300  0.17933600  0.13710600  1
  H  437  1  0.90162500  0.17056700  0.20517200  1
  H  438  1  0.78279200  0.16476900  0.09678400  1
  H  439  1  0.76932600  0.18095800  0.06941500  1
  H  440  1  0.81515000  0.22136100  0.07085700  1
  H  441  1  0.82858900  0.20517600  0.09809900  1
  H  442  1  0.92902800  0.18384100  0.22121800  1
  H  443  1  0.93089100  0.22934300  0.18047000  1
  H  444  1  0.90335700  0.21604200  0.16442200  1
  H  445  1  0.80532600  0.17175500  0.12705800  1
  H  446  1  0.84204400  0.17065500  0.10697600  1
  H  447  1  0.82748500  0.12672500  0.19407100  1
  H  448  1  0.82867700  0.10674100  0.15730100  1
  H  449  1  0.87284300  0.19387800  0.17165200  1
  H  450  1  0.89257000  0.15696600  0.17073300  1
  H  487  1  0.07180900  0.72088700  0.68354800  1
  H  488  1  0.09903700  0.70462200  0.67018100  1
  H  489  1  0.06988100  0.68025200  0.72914500  1
  H  490  1  0.09724000  0.66399300  0.71575900  1
  H  491  1  0.13846900  0.67903400  0.63547900  1
  H  492  1  0.13696300  0.63646200  0.67895800  1
  H  493  1  0.18097300  0.63547300  0.63691600  1
  H  494  1  0.17094700  0.59710600  0.70469600  1
  H  495  1  0.16682500  0.71668600  0.59701900  1
  H  496  1  0.18304300  0.73029800  0.56973900  1
  H  497  1  0.22246900  0.68362000  0.56998200  1
  H  498  1  0.20629500  0.67006500  0.59716100  1
  H  499  1  0.18408100  0.56994600  0.72123700  1
  H  500  1  0.23131400  0.56913500  0.68248700  1
  H  501  1  0.21813200  0.59641600  0.66591500  1
  H  502  1  0.17328000  0.69363500  0.62670800  1
  H  503  1  0.17226500  0.65691400  0.60665200  1
  H  504  1  0.12770900  0.67101200  0.69357800  1
  H  505  1  0.10814300  0.67025900  0.65658400  1
  H  506  1  0.19510900  0.62640200  0.67209600  1
  H  507  1  0.15844600  0.60630300  0.67017900  1
  H  544  1  0.92702000  0.27792600  0.68358200  1
  H  545  1  0.89987200  0.29427700  0.67016800  1
  H  546  1  0.92877200  0.31834100  0.72938000  1
  H  547  1  0.90149100  0.33469000  0.71594400  1
  H  548  1  0.86070200  0.32006300  0.63538600  1
  H  549  1  0.86211400  0.36253700  0.67896600  1
  H  550  1  0.81834700  0.36377400  0.63667300  1
  H  551  1  0.82818000  0.40198800  0.70458200  1
  H  552  1  0.83210700  0.28237000  0.59701300  1
  H  553  1  0.81581800  0.26873100  0.56978500  1
  H  554  1  0.77697200  0.31588600  0.56949200  1
  H  555  1  0.79320200  0.32946400  0.59662700  1
  H  556  1  0.81505000  0.42916400  0.72110800  1
  H  557  1  0.76797200  0.43014700  0.68217600  1
  H  558  1  0.78114900  0.40285500  0.66561500  1
  H  559  1  0.82582000  0.30563400  0.62648300  1
  H  560  1  0.82714800  0.34233500  0.60641100  1
  H  561  1  0.87113200  0.32783700  0.69354100  1
  H  562  1  0.89095200  0.32873500  0.65668200  1
  H  563  1  0.80406500  0.37280000  0.67185200  1
  H  564  1  0.84079100  0.39280400  0.67009400  1
  H  601  1  0.92713900  0.72083700  0.31571800  1
  H  602  1  0.89998900  0.70444900  0.32908500  1
  H  603  1  0.92891100  0.68053000  0.26982500  1
  H  604  1  0.90163100  0.66414300  0.28321700  1
  H  605  1  0.86070200  0.67873300  0.36370400  1
  H  606  1  0.86220000  0.63621200  0.32017400  1
  H  607  1  0.81831200  0.63505700  0.36234600  1
  H  608  1  0.82847500  0.59652500  0.29469500  1
  H  609  1  0.83216500  0.71640700  0.40208300  1
  H  610  1  0.81585500  0.73006200  0.42929100  1
  H  611  1  0.77680000  0.68307800  0.42937000  1
  H  612  1  0.79305500  0.66948300  0.40225800  1
  H  613  1  0.81530800  0.56939500  0.27812500  1
  H  614  1  0.76773500  0.56900900  0.31646100  1
  H  615  1  0.78095800  0.59624700  0.33308000  1
  H  616  1  0.82585000  0.69321600  0.37254100  1
  H  617  1  0.82703400  0.65650500  0.39260200  1
  H  618  1  0.87126600  0.67092900  0.30560300  1
  H  619  1  0.89100300  0.67002200  0.34250500  1
  H  620  1  0.80415100  0.62603800  0.32707600  1
  H  621  1  0.84081500  0.60595300  0.32906900  1
  H  658  1  0.07163600  0.27815100  0.31566000  1
  H  659  1  0.09882000  0.29448800  0.32902100  1
  H  660  1  0.07003500  0.31835900  0.26967400  1
  H  661  1  0.09734400  0.33470200  0.28306600  1
  H  662  1  0.13825200  0.32009800  0.36356100  1
  H  663  1  0.13666300  0.36269100  0.32010300  1
  H  664  1  0.18058700  0.36382700  0.36223600  1
  H  665  1  0.17039000  0.40241600  0.29461700  1
  H  666  1  0.16688500  0.28241700  0.40187500  1
  H  667  1  0.18318800  0.26879100  0.42909700  1
  H  668  1  0.22218100  0.31583100  0.42919700  1
  H  669  1  0.20592800  0.32939600  0.40207500  1
  H  670  1  0.18357700  0.42953400  0.27804600  1
  H  671  1  0.23111500  0.42992800  0.31642600  1
  H  672  1  0.21787500  0.40269900  0.33303900  1
  H  673  1  0.17317100  0.30565000  0.37233800  1
  H  674  1  0.17188900  0.34231600  0.39247600  1
  H  675  1  0.12764300  0.32793600  0.30550400  1
  H  676  1  0.10790300  0.32885800  0.34240200  1
  H  677  1  0.19471500  0.37290100  0.32699600  1
  H  678  1  0.15803000  0.39295100  0.32899200  1
  H  715  1  0.22061100  0.57146800  0.31519100  1
  H  716  1  0.20414400  0.59862900  0.32843900  1
  H  717  1  0.18057600  0.56966100  0.26906000  1
  H  718  1  0.16411000  0.59695700  0.28233300  1
  H  719  1  0.17824700  0.63765400  0.36292400  1
  H  720  1  0.13589100  0.63639800  0.31922700  1
  H  721  1  0.13471300  0.68018400  0.36150700  1
  H  722  1  0.09631700  0.67048100  0.29373800  1
  H  723  1  0.21523900  0.66493500  0.40229100  1
  H  724  1  0.22878900  0.68096900  0.42970300  1
  H  725  1  0.18334400  0.72179300  0.42819700  1
  H  726  1  0.16982100  0.70576100  0.40091000  1
  H  727  1  0.06912100  0.68375000  0.27736100  1
  H  728  1  0.06870500  0.73093300  0.31618200  1
  H  729  1  0.09601000  0.71760800  0.33260300  1
  H  730  1  0.19293500  0.67209600  0.37199900  1
  H  731  1  0.15603200  0.67153200  0.39174700  1
  H  732  1  0.17083700  0.62737200  0.30482100  1
  H  733  1  0.16947800  0.60742300  0.34160000  1
  H  734  1  0.12581700  0.69448800  0.32635900  1
  H  735  1  0.10566200  0.65784200  0.32807300  1
  H  772  1  0.77862800  0.42769800  0.31537800  1
  H  773  1  0.79506500  0.40052500  0.32864800  1
  H  774  1  0.81887800  0.42965500  0.26944500  1
  H  775  1  0.83531700  0.40235100  0.28273600  1
  H  776  1  0.82086800  0.36138000  0.36317700  1
  H  777  1  0.86331000  0.36274200  0.31956700  1
  H  778  1  0.86440000  0.31884700  0.36173400  1
  H  779  1  0.90305600  0.32883600  0.29416300  1
  H  780  1  0.78370300  0.33385300  0.40229600  1
  H  781  1  0.77014000  0.31781200  0.42970100  1
  H  782  1  0.81588700  0.27731700  0.42854900  1
  H  783  1  0.82941400  0.29334500  0.40125900  1
  H  784  1  0.93020600  0.31554800  0.27773100  1
  H  785  1  0.93022300  0.26800200  0.31610500  1
  H  786  1  0.90296800  0.28135300  0.33259300  1
  H  787  1  0.80618900  0.32684700  0.37216400  1
  H  788  1  0.84304800  0.32750700  0.39198300  1
  H  789  1  0.82851800  0.37187900  0.30507900  1
  H  790  1  0.82962500  0.39164500  0.34196300  1
  H  791  1  0.87332800  0.30465500  0.32649600  1
  H  792  1  0.89353400  0.34125600  0.32845800  1
  H  829  1  0.22064900  0.42731900  0.68394800  1
  H  830  1  0.20427700  0.40008000  0.67072600  1
  H  831  1  0.18002800  0.42963500  0.72954200  1
  H  832  1  0.16366800  0.40226000  0.71630500  1
  H  833  1  0.17833600  0.36112000  0.63602800  1
  H  834  1  0.13593600  0.36242200  0.67968300  1
  H  835  1  0.13483800  0.31855400  0.63748800  1
  H  836  1  0.09660900  0.32809200  0.70538700  1
  H  837  1  0.21547300  0.33363100  0.59689000  1
  H  838  1  0.22900900  0.31762700  0.56945100  1
  H  839  1  0.18333500  0.27704900  0.57067700  1
  H  840  1  0.16983100  0.29304500  0.59799700  1
  H  841  1  0.06936800  0.31485700  0.72172400  1
  H  842  1  0.06845800  0.26809200  0.68240900  1
  H  843  1  0.09581500  0.28137500  0.66604000  1
  H  844  1  0.19302300  0.32656300  0.62706500  1
  H  845  1  0.15617200  0.32725100  0.60722500  1
  H  846  1  0.17066800  0.37160500  0.69416100  1
  H  847  1  0.16961400  0.39135100  0.65726100  1
  H  848  1  0.12585700  0.30425000  0.67251500  1
  H  849  1  0.10576300  0.34093700  0.67092900  1
  H  886  1  0.77838700  0.57158900  0.68361400  1
  H  887  1  0.79487300  0.59874500  0.67037900  1
  H  888  1  0.81830100  0.56985800  0.72985400  1
  H  889  1  0.83479100  0.59714200  0.71659000  1
  H  890  1  0.82063500  0.63785800  0.63602800  1
  H  891  1  0.86319600  0.63642000  0.67951800  1
  H  892  1  0.86429000  0.68027100  0.63730100  1
  H  893  1  0.90315000  0.67021300  0.70472700  1
  H  894  1  0.78352500  0.66525900  0.59689000  1
  H  895  1  0.76992700  0.68126500  0.56948500  1
  H  896  1  0.81550800  0.72194500  0.57071800  1
  H  897  1  0.82907900  0.70594200  0.59800200  1
  H  898  1  0.93034300  0.68348200  0.72110700  1
  H  899  1  0.93026100  0.73107900  0.68280000  1
  H  900  1  0.90296500  0.71774600  0.66635800  1
  H  901  1  0.80599600  0.67236500  0.62706200  1
  H  902  1  0.84280400  0.67169400  0.60714200  1
  H  903  1  0.82817400  0.62750800  0.69403800  1
  H  904  1  0.82947900  0.60755100  0.65726200  1
  H  905  1  0.87334600  0.69446600  0.67248500  1
  H  906  1  0.89346000  0.65781600  0.67052300  1
  H  943  1  0.56924500  0.22194400  0.68406200  1
  H  944  1  0.59643900  0.20563900  0.67069800  1
  H  945  1  0.56873900  0.18276900  0.73095000  1
  H  946  1  0.59604600  0.16642300  0.71753300  1
  H  947  1  0.63581100  0.18007100  0.63626500  1
  H  948  1  0.63481700  0.13784200  0.68010300  1
  H  949  1  0.67817900  0.13638400  0.63740300  1
  H  950  1  0.66998700  0.09854500  0.70563300  1
  H  951  1  0.66370300  0.21678700  0.59643900  1
  H  952  1  0.68006400  0.22998300  0.56904200  1
  H  953  1  0.72036100  0.18409100  0.57109500  1
  H  954  1  0.70399400  0.17091500  0.59835200  1
  H  955  1  0.68357800  0.07130800  0.72169800  1
  H  956  1  0.72894100  0.06976600  0.68078400  1
  H  957  1  0.71532500  0.09712800  0.66471700  1
  H  958  1  0.67063000  0.19449900  0.62700300  1
  H  959  1  0.66932500  0.15764200  0.60719600  1
  H  960  1  0.62589000  0.17282700  0.69446900  1
  H  961  1  0.60569300  0.17131400  0.65783900  1
  H  962  1  0.69298900  0.12741200  0.67186900  1
  H  963  1  0.65611900  0.10759400  0.67138900  1
  H  1000  1  0.43008400  0.77730900  0.68362300  1
  H  1001  1  0.40289800  0.79362300  0.67025700  1
  H  1002  1  0.43029000  0.81617200  0.73076900  1
  H  1003  1  0.40299700  0.83253800  0.71734300  1
  H  1004  1  0.36317700  0.81896900  0.63607100  1
  H  1005  1  0.36429000  0.86124000  0.67986800  1
  H  1006  1  0.32076700  0.86261400  0.63732700  1
  H  1007  1  0.32918900  0.90053700  0.70548200  1
  H  1008  1  0.33504000  0.78215600  0.59644700  1
  H  1009  1  0.31862600  0.76897900  0.56907300  1
  H  1010  1  0.27847700  0.81500000  0.57108000  1
  H  1011  1  0.29489200  0.82815500  0.59832000  1
  H  1012  1  0.31564700  0.92778200  0.72157400  1
  H  1013  1  0.27013400  0.92927100  0.68082600  1
  H  1014  1  0.28370200  0.90190100  0.66473000  1
  H  1015  1  0.32824500  0.80452800  0.62697000  1
  H  1016  1  0.32957300  0.84135000  0.60709600  1
  H  1017  1  0.37327900  0.82622100  0.69420600  1
  H  1018  1  0.39338400  0.82783200  0.65752900  1
  H  1019  1  0.30607300  0.87162900  0.67183400  1
  H  1020  1  0.34293400  0.89145700  0.67120300  1
  H  1057  1  0.43006000  0.22160300  0.31529300  1
  H  1058  1  0.40282300  0.20532600  0.32860400  1
  H  1059  1  0.43034000  0.18270500  0.26817400  1
  H  1060  1  0.40299500  0.16637900  0.28154400  1
  H  1061  1  0.36313500  0.17992700  0.36277200  1
  H  1062  1  0.36418700  0.13771600  0.31891700  1
  H  1063  1  0.32065800  0.13634900  0.36145100  1
  H  1064  1  0.32903000  0.09841500  0.29329500  1
  H  1065  1  0.33515500  0.21668700  0.40249500  1
  H  1066  1  0.31875900  0.22987800  0.42987600  1
  H  1067  1  0.27840300  0.18404200  0.42770100  1
  H  1068  1  0.29480200  0.17087500  0.40045700  1
  H  1069  1  0.31546800  0.07113900  0.27726400  1
  H  1070  1  0.26996600  0.06976300  0.31802600  1
  H  1071  1  0.28355400  0.09715900  0.33406100  1
  H  1072  1  0.32828000  0.19442500  0.37190400  1
  H  1073  1  0.32946600  0.15755800  0.39170300  1
  H  1074  1  0.37321800  0.17276400  0.30463500  1
  H  1075  1  0.39333000  0.17104700  0.34130400  1
  H  1076  1  0.30595700  0.12739200  0.32692500  1
  H  1077  1  0.34279000  0.10750900  0.32756900  1
  H  1114  1  0.56861200  0.77753400  0.31556600  1
  H  1115  1  0.59579600  0.79387300  0.32890000  1
  H  1116  1  0.56880100  0.81590900  0.26802100  1
  H  1117  1  0.59608800  0.83230500  0.28141900  1
  H  1118  1  0.63562900  0.81918100  0.36288800  1
  H  1119  1  0.63470000  0.86126700  0.31890800  1
  H  1120  1  0.67820800  0.86265600  0.36146100  1
  H  1121  1  0.66991200  0.90041700  0.29319500  1
  H  1122  1  0.66378600  0.78234400  0.40257500  1
  H  1123  1  0.68024100  0.76918300  0.42993000  1
  H  1124  1  0.72038100  0.81521100  0.42784100  1
  H  1125  1  0.70392700  0.82834800  0.40062300  1
  H  1126  1  0.68352300  0.92762700  0.27710200  1
  H  1127  1  0.72910600  0.92892700  0.31778100  1
  H  1128  1  0.71546700  0.90159300  0.33387600  1
  H  1129  1  0.67055800  0.80466400  0.37202500  1
  H  1130  1  0.66928900  0.84154400  0.39179200  1
  H  1131  1  0.62565500  0.82614100  0.30474900  1
  H  1132  1  0.60546000  0.82807300  0.34135900  1
  H  1133  1  0.69293400  0.87143000  0.32686000  1
  H  1134  1  0.65617700  0.89145300  0.32749400  1
  H  1171  1  0.72239600  0.06972100  0.31545200  1
  H  1172  1  0.70615300  0.09690900  0.32890600  1
  H  1173  1  0.68282100  0.06905500  0.26890500  1
  H  1174  1  0.66654400  0.09635400  0.28240800  1
  H  1175  1  0.68057600  0.13646700  0.36351400  1
  H  1176  1  0.63828100  0.13515300  0.31974100  1
  H  1177  1  0.63670600  0.17865100  0.36229400  1
  H  1178  1  0.59888200  0.16978000  0.29409100  1
  H  1179  1  0.71778500  0.16558500  0.40246500  1
  H  1180  1  0.73101200  0.18224100  0.42967100  1
  H  1181  1  0.68368200  0.22087700  0.42893500  1
  H  1182  1  0.67050500  0.20425500  0.40184500  1
  H  1183  1  0.57172600  0.18320900  0.27776400  1
  H  1184  1  0.57028000  0.22922300  0.31794800  1
  H  1185  1  0.59756000  0.21576300  0.33428000  1
  H  1186  1  0.69473800  0.17169600  0.37253000  1
  H  1187  1  0.65804700  0.16978200  0.39258000  1
  H  1188  1  0.67307300  0.12624400  0.30529000  1
  H  1189  1  0.67195700  0.10625000  0.34204300  1
  H  1190  1  0.62777800  0.19324000  0.32753800  1
  H  1191  1  0.60795500  0.15638500  0.32844200  1
  H  1228  1  0.27707500  0.92999000  0.31602900  1
  H  1229  1  0.29337700  0.90286500  0.32953600  1
  H  1230  1  0.31560200  0.92960200  0.26861300  1
  H  1231  1  0.33196500  0.90238200  0.28218300  1
  H  1232  1  0.31860700  0.86284400  0.36369000  1
  H  1233  1  0.36086900  0.86411500  0.31988400  1
  H  1234  1  0.36243400  0.82061900  0.36244300  1
  H  1235  1  0.40020900  0.82922200  0.29419400  1
  H  1236  1  0.28116100  0.83325600  0.40230600  1
  H  1237  1  0.26790700  0.81649400  0.42943700  1
  H  1238  1  0.31571500  0.77844900  0.42920000  1
  H  1239  1  0.32891400  0.79516500  0.40217400  1
  H  1240  1  0.42737400  0.81573500  0.27793000  1
  H  1241  1  0.42906800  0.77010200  0.31853500  1
  H  1242  1  0.40177500  0.78361600  0.33479800  1
  H  1243  1  0.30448300  0.82742100  0.37260200  1
  H  1244  1  0.34109600  0.82958100  0.39276600  1
  H  1245  1  0.32584300  0.87295500  0.30555400  1
  H  1246  1  0.32738400  0.89310600  0.34220200  1
  H  1247  1  0.37145000  0.80595700  0.32787100  1
  H  1248  1  0.39116600  0.84287200  0.32851200  1
  H  1285  1  0.72228900  0.92939200  0.68365700  1
  H  1286  1  0.70611800  0.90216000  0.67019800  1
  H  1287  1  0.68268600  0.92997500  0.73018100  1
  H  1288  1  0.66647500  0.90263800  0.71666800  1
  H  1289  1  0.68074100  0.86245000  0.63562900  1
  H  1290  1  0.63831300  0.86380300  0.67927100  1
  H  1291  1  0.63689700  0.82023900  0.63678100  1
  H  1292  1  0.59896000  0.82896500  0.70492700  1
  H  1293  1  0.71797800  0.83337500  0.59667600  1
  H  1294  1  0.73118500  0.81676600  0.56943000  1
  H  1295  1  0.68399400  0.77796200  0.57030300  1
  H  1296  1  0.67083400  0.79454000  0.59743100  1
  H  1297  1  0.57174500  0.81551700  0.72115000  1
  H  1298  1  0.57011200  0.76982900  0.68060500  1
  H  1299  1  0.59745400  0.78329800  0.66438500  1
  H  1300  1  0.69495700  0.82720400  0.62667500  1
  H  1301  1  0.65830600  0.82907900  0.60655000  1
  H  1302  1  0.67304400  0.87277400  0.69381000  1
  H  1303  1  0.67203500  0.89269300  0.65701500  1
  H  1304  1  0.62778800  0.80564200  0.67137300  1
  H  1305  1  0.60804600  0.84254300  0.67056500  1
  H  1342  1  0.27651500  0.06974200  0.68373700  1
  H  1343  1  0.29271100  0.09695000  0.67026600  1
  H  1344  1  0.31604800  0.06921800  0.73032400  1
  H  1345  1  0.33228100  0.09653300  0.71680000  1
  H  1346  1  0.31818800  0.13655200  0.63566200  1
  H  1347  1  0.36063000  0.13513100  0.67928800  1
  H  1348  1  0.36220100  0.17858900  0.63669300  1
  H  1349  1  0.40011000  0.16986400  0.70484700  1
  H  1350  1  0.28108600  0.16558700  0.59660300  1
  H  1351  1  0.26788400  0.18223800  0.56938200  1
  H  1352  1  0.31506800  0.22104800  0.57032900  1
  H  1353  1  0.32822600  0.20442200  0.59742900  1
  H  1354  1  0.42731900  0.18328700  0.72109700  1
  H  1355  1  0.42909400  0.22892400  0.68049900  1
  H  1356  1  0.40176100  0.21547700  0.66424900  1
  H  1357  1  0.30408300  0.17177200  0.62663800  1
  H  1358  1  0.34073000  0.16982100  0.60651100  1
  H  1359  1  0.32580200  0.12635100  0.69384600  1
  H  1360  1  0.32683900  0.10630400  0.65712000  1
  H  1361  1  0.37137100  0.19322700  0.67123400  1
  H  1362  1  0.39097600  0.15625200  0.67053900  1
  H  1399  1  0.57011200  0.72105100  0.18415800  1
  H  1400  1  0.59750800  0.70496200  0.17091800  1
  H  1401  1  0.56806800  0.68024800  0.22960100  1
  H  1402  1  0.59559800  0.66416200  0.21634000  1
  H  1403  1  0.63663100  0.67927800  0.13603900  1
  H  1404  1  0.63546900  0.63679100  0.17961800  1
  H  1405  1  0.67916400  0.63574900  0.13724700  1
  H  1406  1  0.67055200  0.59767200  0.20532200  1
  H  1407  1  0.66426300  0.71628800  0.09661900  1
  H  1408  1  0.68044300  0.72970300  0.06921800  1
  H  1409  1  0.72108200  0.68410100  0.07097900  1
  H  1410  1  0.70490600  0.67071100  0.09824900  1
  H  1411  1  0.68395900  0.57033300  0.22137000  1
  H  1412  1  0.72949700  0.56872000  0.18065400  1
  H  1413  1  0.71606500  0.59618800  0.16460500  1
  H  1414  1  0.67133400  0.69392400  0.12703500  1
  H  1415  1  0.67039500  0.65713200  0.10708000  1
  H  1416  1  0.62618700  0.67138600  0.19421700  1
  H  1417  1  0.60645300  0.67046000  0.15730800  1
  H  1418  1  0.69374300  0.62656800  0.17179500  1
  H  1419  1  0.65691200  0.60668900  0.17090200  1
  H  1456  1  0.42873200  0.27771300  0.18413600  1
  H  1457  1  0.40136800  0.29383800  0.17088200  1
  H  1458  1  0.43063200  0.31835200  0.22973400  1
  H  1459  1  0.40313600  0.33447800  0.21645400  1
  H  1460  1  0.36227500  0.31955800  0.13603200  1
  H  1461  1  0.36351100  0.36206100  0.17959600  1
  H  1462  1  0.31987900  0.36322500  0.13716000  1
  H  1463  1  0.32861200  0.40130000  0.20522200  1
  H  1464  1  0.33447300  0.28257900  0.09667200  1
  H  1465  1  0.31826200  0.26919900  0.06927200  1
  H  1466  1  0.27786500  0.31502000  0.07088500  1
  H  1467  1  0.29407100  0.32837400  0.09815700  1
  H  1468  1  0.31527000  0.42865200  0.22129900  1
  H  1469  1  0.26963000  0.43029500  0.18069900  1
  H  1470  1  0.28300100  0.40281800  0.16461600  1
  H  1471  1  0.32748500  0.30503800  0.12703100  1
  H  1472  1  0.32862500  0.34179300  0.10701500  1
  H  1473  1  0.37262800  0.32736500  0.19420000  1
  H  1474  1  0.39247000  0.32835500  0.15734900  1
  H  1475  1  0.30530600  0.37241900  0.17176100  1
  H  1476  1  0.34217000  0.39223700  0.17080800  1
  H  1513  1  0.42897200  0.72100900  0.81510900  1
  H  1514  1  0.40158800  0.70487100  0.82830300  1
  H  1515  1  0.43082000  0.68053800  0.76935900  1
  H  1516  1  0.40330300  0.66439800  0.78258100  1
  H  1517  1  0.36234300  0.67922000  0.86296100  1
  H  1518  1  0.36353500  0.63678400  0.81933100  1
  H  1519  1  0.31977500  0.63572900  0.86163700  1
  H  1520  1  0.32849700  0.59765600  0.79357100  1
  H  1521  1  0.33461100  0.71623200  0.90230900  1
  H  1522  1  0.31838800  0.72963600  0.92969100  1
  H  1523  1  0.27776100  0.68402400  0.92785900  1
  H  1524  1  0.29398100  0.67064800  0.90060600  1
  H  1525  1  0.31511100  0.57029700  0.77753600  1
  H  1526  1  0.26946000  0.56879500  0.81812900  1
  H  1527  1  0.28287200  0.59627900  0.83417000  1
  H  1528  1  0.32759500  0.69387000  0.87187900  1
  H  1529  1  0.32851400  0.65707800  0.89184000  1
  H  1530  1  0.37279600  0.67150200  0.80482400  1
  H  1531  1  0.39256600  0.67034400  0.84170900  1
  H  1532  1  0.30525800  0.62662000  0.82700900  1
  H  1533  1  0.34205100  0.60667500  0.82802100  1
  H  1570  1  0.56986900  0.27807500  0.81513700  1
  H  1571  1  0.59728500  0.29417200  0.82831600  1
  H  1572  1  0.56821400  0.31839100  0.76924500  1
  H  1573  1  0.59576000  0.33449500  0.78245400  1
  H  1574  1  0.63656000  0.31984900  0.86295600  1
  H  1575  1  0.63549500  0.36214900  0.81919000  1
  H  1576  1  0.67918500  0.36328100  0.86156400  1
  H  1577  1  0.67054900  0.40119300  0.79339100  1
  H  1578  1  0.66437200  0.28282400  0.90235100  1
  H  1579  1  0.68060600  0.26946300  0.92974300  1
  H  1580  1  0.72104200  0.31525000  0.92802000  1
  H  1581  1  0.70481300  0.32858000  0.90075800  1
  H  1582  1  0.68396400  0.42850300  0.77730600  1
  H  1583  1  0.72967900  0.42996000  0.81783100  1
  H  1584  1  0.71623500  0.40252400  0.83392200  1
  H  1585  1  0.67134000  0.30520600  0.87195600  1
  H  1586  1  0.67033100  0.34203500  0.89183700  1
  H  1587  1  0.62620000  0.32741300  0.80477400  1
  H  1588  1  0.60638600  0.32868900  0.84163100  1
  H  1589  1  0.69375800  0.37223500  0.82687800  1
  H  1590  1  0.65700600  0.39226100  0.82783600  1
  H  1627  1  0.72193200  0.57060500  0.81564000  1
  H  1628  1  0.70547400  0.59766500  0.82908500  1
  H  1629  1  0.68277000  0.57003200  0.76874500  1
  H  1630  1  0.66627700  0.59720300  0.78224000  1
  H  1631  1  0.67989900  0.63729900  0.86341100  1
  H  1632  1  0.63762700  0.63592300  0.81962800  1
  H  1633  1  0.63611900  0.67957700  0.86202300  1
  H  1634  1  0.59778600  0.66979600  0.79424000  1
  H  1635  1  0.71717100  0.66603800  0.90233600  1
  H  1636  1  0.73051300  0.68252100  0.92959000  1
  H  1637  1  0.68342900  0.72145500  0.92899900  1
  H  1638  1  0.67014000  0.70501100  0.90185600  1
  H  1639  1  0.57078700  0.68319900  0.77765000  1
  H  1640  1  0.57065000  0.73066200  0.81612600  1
  H  1641  1  0.59775200  0.71720300  0.83276200  1
  H  1642  1  0.69420700  0.67227700  0.87247300  1
  H  1643  1  0.65740700  0.67079200  0.89234700  1
  H  1644  1  0.67253700  0.62701500  0.80524900  1
  H  1645  1  0.67125900  0.60703700  0.84200100  1
  H  1646  1  0.62735900  0.69391700  0.82682600  1
  H  1647  1  0.60726200  0.65724000  0.82844200  1
  H  1684  1  0.27757300  0.42912800  0.81626100  1
  H  1685  1  0.29409000  0.40212500  0.82975300  1
  H  1686  1  0.31571400  0.42867500  0.76854000  1
  H  1687  1  0.33229100  0.40158200  0.78209100  1
  H  1688  1  0.31933100  0.36201300  0.86362900  1
  H  1689  1  0.36158800  0.36341100  0.81983000  1
  H  1690  1  0.36308900  0.31971000  0.86217700  1
  H  1691  1  0.40159500  0.32963400  0.79452600  1
  H  1692  1  0.28184300  0.33279800  0.90220500  1
  H  1693  1  0.26846700  0.31619800  0.92937200  1
  H  1694  1  0.31601100  0.27782300  0.92923300  1
  H  1695  1  0.32932900  0.29437600  0.90216600  1
  H  1696  1  0.42855100  0.31617900  0.77791300  1
  H  1697  1  0.42829400  0.26845000  0.81605500  1
  H  1698  1  0.40124100  0.28196900  0.83272400  1
  H  1699  1  0.30507400  0.32684900  0.87256600  1
  H  1700  1  0.34179400  0.32854900  0.89254400  1
  H  1701  1  0.32643700  0.37221600  0.80556300  1
  H  1702  1  0.32811500  0.39235000  0.84222300  1
  H  1703  1  0.37180600  0.30542600  0.82690800  1
  H  1704  1  0.39197000  0.34205400  0.82866600  1
  H  1741  1  0.72134100  0.42920300  0.18288600  1
  H  1742  1  0.70494500  0.40210800  0.16943200  1
  H  1743  1  0.68294000  0.42891400  0.23040200  1
  H  1744  1  0.66648300  0.40172600  0.21688800  1
  H  1745  1  0.67989200  0.36180900  0.13557300  1
  H  1746  1  0.63757200  0.36319700  0.17931000  1
  H  1747  1  0.63632100  0.31932000  0.13713600  1
  H  1748  1  0.59809700  0.32894200  0.20500600  1
  H  1749  1  0.71728700  0.33299200  0.09676400  1
  H  1750  1  0.73061200  0.31650300  0.06950400  1
  H  1751  1  0.68369900  0.27736700  0.07034100  1
  H  1752  1  0.67042400  0.29382100  0.09748900  1
  H  1753  1  0.57105600  0.31553600  0.22153300  1
  H  1754  1  0.57048800  0.26849900  0.18253900  1
  H  1755  1  0.59764000  0.28195100  0.16598100  1
  H  1756  1  0.69436300  0.32677100  0.12670600  1
  H  1757  1  0.65758400  0.32808800  0.10678200  1
  H  1758  1  0.67255800  0.37225100  0.19361300  1
  H  1759  1  0.67099900  0.39217100  0.15684000  1
  H  1760  1  0.62745700  0.30503500  0.17217700  1
  H  1761  1  0.60735300  0.34170900  0.17066100  1
  H  1798  1  0.27705900  0.57067600  0.18349100  1
  H  1799  1  0.29348700  0.59775000  0.17004100  1
  H  1800  1  0.31618300  0.57018700  0.23041800  1
  H  1801  1  0.33265200  0.59736900  0.21691400  1
  H  1802  1  0.31895900  0.63743000  0.13574600  1
  H  1803  1  0.36142600  0.63588500  0.17933600  1
  H  1804  1  0.36290500  0.67954100  0.13694200  1
  H  1805  1  0.40169400  0.66949300  0.20439100  1
  H  1806  1  0.28180000  0.66607300  0.09672300  1
  H  1807  1  0.26847000  0.68255500  0.06946400  1
  H  1808  1  0.31538000  0.72169800  0.07028900  1
  H  1809  1  0.32866400  0.70524300  0.09743100  1
  H  1810  1  0.42871700  0.68289600  0.22094200  1
  H  1811  1  0.42839900  0.73067400  0.18286800  1
  H  1812  1  0.40128100  0.71721000  0.16625700  1
  H  1813  1  0.30471000  0.67238200  0.12668700  1
  H  1814  1  0.34146300  0.67089500  0.10673500  1
  H  1815  1  0.32646400  0.62712600  0.19384600  1
  H  1816  1  0.32763500  0.60711500  0.15711200  1
  H  1817  1  0.37183300  0.69382000  0.17214200  1
  H  1818  1  0.39185400  0.65710700  0.17034400  1
  H  1831  1  0.26082600  0.27679100  0.98535800  1
  H  1840  1  0.22199200  0.23858200  0.01332000  1
  H  1843  1  0.25079900  0.20815200  0.99096600  1
  H  1844  1  0.29079800  0.24773900  0.00806300  1
  H  1845  1  0.23581400  0.25208300  0.92439700  1
  H  1846  1  0.24670300  0.26332200  0.07437900  1
  H  1848  1  0.21409600  0.24411600  0.06157300  1
  H  1850  1  0.28729500  0.25495600  0.06116500  1
  H  1852  1  0.24380400  0.21148500  0.93787500  1
  H  1854  1  0.25537700  0.28450200  0.93701300  1
  H  1861  1  0.73831100  0.72205400  0.98564400  1
  H  1870  1  0.77683900  0.76061000  0.01357500  1
  H  1873  1  0.74811800  0.79078000  0.99074400  1
  H  1874  1  0.70811900  0.75115200  0.00791200  1
  H  1875  1  0.76347900  0.74639500  0.92459800  1
  H  1876  1  0.75187500  0.73598300  0.07456900  1
  H  1878  1  0.78443700  0.75538200  0.06201400  1
  H  1880  1  0.71133900  0.74410400  0.06112200  1
  H  1882  1  0.75534900  0.78706800  0.93773300  1
  H  1884  1  0.74395200  0.71399900  0.93742300  1
  H  1891  1  0.73849200  0.27707900  0.01335000  1
  H  1900  1  0.77678000  0.23830300  0.98544800  1
  H  1903  1  0.74776000  0.20828500  0.00815400  1
  H  1904  1  0.70810300  0.24817900  0.99098700  1
  H  1905  1  0.76336400  0.25248900  0.07440600  1
  H  1906  1  0.75206700  0.26316400  0.92444000  1
  H  1908  1  0.78451200  0.24359700  0.93703800  1
  H  1910  1  0.71145900  0.25508800  0.93790200  1
  H  1912  1  0.75503300  0.21185700  0.06125300  1
  H  1914  1  0.74414200  0.28507500  0.06155900  1
  H  1921  1  0.26055400  0.72193800  0.01327000  1
  H  1930  1  0.22208800  0.76057600  0.98542300  1
  H  1933  1  0.25099600  0.79070200  0.00814700  1
  H  1934  1  0.29081300  0.75101600  0.99092600  1
  H  1935  1  0.23558400  0.74636900  0.07434800  1
  H  1936  1  0.24690800  0.73593500  0.92436100  1
  H  1938  1  0.21434000  0.75518900  0.93713300  1
  H  1940  1  0.28747100  0.74401700  0.93773500  1
  H  1942  1  0.24386400  0.78703900  0.06116300  1
  H  1944  1  0.25490000  0.71386100  0.06145000  1
  H  1951  1  0.98636100  0.26051500  0.27684600  1
  H  1960  1  0.01457100  0.22209000  0.23841800  1
  H  1963  1  0.99220100  0.25098300  0.20814900  1
  H  1964  1  0.00904400  0.29077700  0.24817000  1
  H  1965  1  0.92554200  0.23551200  0.25180100  1
  H  1966  1  0.07544900  0.24677400  0.26363700  1
  H  1968  1  0.06295800  0.21434800  0.24390600  1
  H  1970  1  0.06205900  0.28738700  0.25540900  1
  H  1972  1  0.93916300  0.24385600  0.21125500  1
  H  1974  1  0.93798000  0.25497100  0.28434800  1
  H  1981  1  0.98635600  0.73841100  0.72217600  1
  H  1990  1  0.01472400  0.77660200  0.76076600  1
  H  1993  1  0.99215000  0.74782300  0.79089200  1
  H  1994  1  0.00878800  0.70799900  0.75077900  1
  H  1995  1  0.92559400  0.76358300  0.74718600  1
  H  1996  1  0.07552400  0.75162700  0.73561700  1
  H  1998  1  0.06319600  0.78400700  0.75542100  1
  H  2000  1  0.06190800  0.71106300  0.74360000  1
  H  2002  1  0.93917600  0.75513000  0.78776000  1
  H  2004  1  0.93788800  0.74397100  0.71468700  1
  H  2011  1  0.01242600  0.73861000  0.27701000  1
  H  2020  1  0.98424700  0.77672900  0.23827100  1
  H  2023  1  0.00679000  0.74770500  0.20822900  1
  H  2024  1  0.98994600  0.70812200  0.24841300  1
  H  2025  1  0.07331700  0.76346600  0.25199700  1
  H  2026  1  0.92337100  0.75202100  0.26348500  1
  H  2028  1  0.93576500  0.78433800  0.24358400  1
  H  2030  1  0.93690100  0.71139400  0.25547500  1
  H  2032  1  0.05985700  0.75495800  0.21141700  1
  H  2034  1  0.06069800  0.74426200  0.28466100  1
  H  2041  1  0.01224400  0.26025900  0.72183100  1
  H  2050  1  0.98430700  0.22210700  0.76066100  1
  H  2053  1  0.00708200  0.25110300  0.79065200  1
  H  2054  1  0.98996200  0.29074900  0.75069800  1
  H  2055  1  0.07326500  0.23529500  0.74639900  1
  H  2056  1  0.92331100  0.24690300  0.73581600  1
  H  2058  1  0.93591600  0.21448900  0.75538400  1
  H  2060  1  0.93676300  0.28747800  0.74371700  1
  H  2062  1  0.06002900  0.24389600  0.78708100  1
  H  2064  1  0.06044100  0.25451000  0.71381800  1
  H  2071  1  0.27656700  0.98575700  0.26063900  1
  H  2080  1  0.23839900  0.01396900  0.22194700  1
  H  2083  1  0.20793200  0.99188400  0.25088000  1
  H  2084  1  0.24785800  0.00866600  0.29069600  1
  H  2085  1  0.25129900  0.92491100  0.23593100  1
  H  2086  1  0.26371500  0.07486300  0.24650600  1
  H  2088  1  0.24419800  0.06222100  0.21402800  1
  H  2090  1  0.25545000  0.06172100  0.28714300  1
  H  2092  1  0.21080200  0.93876200  0.24405800  1
  H  2094  1  0.28384000  0.93725200  0.25549500  1
  H  2101  1  0.72201800  0.98614500  0.73853200  1
  H  2110  1  0.76071700  0.01411600  0.77685600  1
  H  2113  1  0.79079700  0.99138300  0.74793200  1
  H  2114  1  0.75086000  0.00849500  0.70820000  1
  H  2115  1  0.74663200  0.92508800  0.76336100  1
  H  2116  1  0.73565700  0.07503700  0.75214600  1
  H  2118  1  0.75530900  0.06254800  0.78454600  1
  H  2120  1  0.74358000  0.06169200  0.71153300  1
  H  2122  1  0.78727700  0.93830300  0.75510900  1
  H  2124  1  0.71411000  0.93782400  0.74391200  1
  H  2131  1  0.27697600  0.01284900  0.73866800  1
  H  2140  1  0.23820400  0.98480200  0.77687100  1
  H  2143  1  0.20818100  0.00741800  0.74782600  1
  H  2144  1  0.24828600  0.99041100  0.70824600  1
  H  2145  1  0.25212900  0.07386800  0.76334900  1
  H  2146  1  0.26347200  0.92392100  0.75224900  1
  H  2148  1  0.24367800  0.93638600  0.78459600  1
  H  2150  1  0.25552900  0.93731000  0.71163500  1
  H  2152  1  0.21152300  0.06049500  0.75494200  1
  H  2154  1  0.28477100  0.06109300  0.74412400  1
  H  2161  1  0.72200000  0.01283800  0.26044600  1
  H  2170  1  0.76055400  0.98505200  0.22187400  1
  H  2173  1  0.79075900  0.00753600  0.25090800  1
  H  2174  1  0.75092200  0.99023800  0.29060900  1
  H  2175  1  0.74663800  0.07396000  0.23581400  1
  H  2176  1  0.73556800  0.92398200  0.24630600  1
  H  2178  1  0.75498100  0.93680100  0.21386400  1
  H  2180  1  0.74362000  0.93708700  0.28697500  1
  H  2182  1  0.78728000  0.06058300  0.24406400  1
  H  2184  1  0.71409100  0.06106400  0.25508900  1
  H  2191  1  0.26076200  0.77695000  0.48532500  1
  H  2200  1  0.22209400  0.73871300  0.51343600  1
  H  2203  1  0.25075300  0.70831700  0.49095300  1
  H  2204  1  0.29086900  0.74791900  0.50788200  1
  H  2205  1  0.23537300  0.75230500  0.42449100  1
  H  2206  1  0.24707300  0.76331300  0.57444400  1
  H  2208  1  0.21444100  0.74403100  0.56175900  1
  H  2210  1  0.28764300  0.75490000  0.56096400  1
  H  2212  1  0.24345700  0.71166600  0.43791100  1
  H  2214  1  0.25505000  0.78467000  0.43697300  1
  H  2221  1  0.73833600  0.22189600  0.48561400  1
  H  2230  1  0.77672800  0.26045100  0.51368900  1
  H  2233  1  0.74817600  0.29060500  0.49074500  1
  H  2234  1  0.70802900  0.25099300  0.50774700  1
  H  2235  1  0.76389700  0.24615700  0.42469900  1
  H  2236  1  0.75148300  0.23598400  0.57463500  1
  H  2238  1  0.78407000  0.25545500  0.56220700  1
  H  2240  1  0.71099200  0.24416500  0.56094000  1
  H  2242  1  0.75570800  0.28688100  0.43777800  1
  H  2244  1  0.74423900  0.21382400  0.43739500  1
  H  2251  1  0.73856600  0.77720500  0.51335200  1
  H  2260  1  0.77669200  0.73840800  0.48530600  1
  H  2263  1  0.74783900  0.70841900  0.50815300  1
  H  2264  1  0.70804500  0.74831900  0.49114800  1
  H  2265  1  0.76383800  0.75270600  0.57428000  1
  H  2266  1  0.75169500  0.76311400  0.42434900  1
  H  2268  1  0.78416300  0.74347000  0.43682000  1
  H  2270  1  0.71111900  0.75499200  0.43808000  1
  H  2272  1  0.75542400  0.71202000  0.56120000  1
  H  2274  1  0.74448000  0.78521500  0.56157300  1
  H  2281  1  0.26048800  0.22177800  0.51330600  1
  H  2290  1  0.22219800  0.26044300  0.48530600  1
  H  2293  1  0.25096300  0.29053700  0.50816200  1
  H  2294  1  0.29089100  0.25083800  0.49111700  1
  H  2295  1  0.23512600  0.24615100  0.57424900  1
  H  2296  1  0.24730400  0.23595000  0.42429900  1
  H  2298  1  0.21471300  0.25528100  0.43693800  1
  H  2300  1  0.28782800  0.24408000  0.43794000  1
  H  2302  1  0.24351900  0.28686100  0.56112600  1
  H  2304  1  0.25455400  0.21369200  0.56149200  1
  H  2311  1  0.27656300  0.48466600  0.76076400  1
  H  2320  1  0.23865700  0.51285100  0.72185900  1
  H  2323  1  0.20797600  0.49079000  0.75071200  1
  H  2324  1  0.24759800  0.50759000  0.79069400  1
  H  2325  1  0.25135100  0.42380900  0.73597000  1
  H  2326  1  0.26376100  0.57376600  0.74659500  1
  H  2328  1  0.24459400  0.56105700  0.71392600  1
  H  2330  1  0.25511400  0.56061000  0.78719400  1
  H  2332  1  0.21087200  0.43764700  0.74398700  1
  H  2334  1  0.28384600  0.43613600  0.75561900  1
  H  2341  1  0.72237600  0.48479800  0.23819400  1
  H  2350  1  0.76049600  0.51296200  0.27695000  1
  H  2353  1  0.79100200  0.49051400  0.24827000  1
  H  2354  1  0.75136600  0.50739700  0.20817700  1
  H  2355  1  0.74721600  0.42387500  0.26320300  1
  H  2356  1  0.73546100  0.57382100  0.25204900  1
  H  2358  1  0.75483000  0.56135900  0.28464400  1
  H  2360  1  0.74394800  0.56048100  0.21145900  1
  H  2362  1  0.78779200  0.43738100  0.25528600  1
  H  2364  1  0.71485100  0.43628700  0.24341800  1
  H  2371  1  0.27697200  0.51400600  0.23852800  1
  H  2380  1  0.23846900  0.48597400  0.27694700  1
  H  2383  1  0.20822400  0.50855800  0.24797800  1
  H  2384  1  0.24803000  0.49154600  0.20822700  1
  H  2385  1  0.25217200  0.57502500  0.26331600  1
  H  2386  1  0.26353200  0.42507800  0.25213800  1
  H  2388  1  0.24409100  0.43760200  0.28468500  1
  H  2390  1  0.25518900  0.43849100  0.21156000  1
  H  2392  1  0.21158500  0.56166100  0.25500500  1
  H  2394  1  0.28477100  0.56227800  0.24400500  1
  H  2401  1  0.72208700  0.51400600  0.76050600  1
  H  2410  1  0.76036600  0.48623000  0.72172700  1
  H  2413  1  0.79079500  0.50868200  0.75067600  1
  H  2414  1  0.75125400  0.49138700  0.79055100  1
  H  2415  1  0.74668300  0.57512900  0.73577700  1
  H  2416  1  0.73557100  0.42515000  0.74634600  1
  H  2418  1  0.75463100  0.43802700  0.71371100  1
  H  2420  1  0.74402900  0.43828300  0.78698300  1
  H  2422  1  0.78731200  0.56174900  0.74393800  1
  H  2424  1  0.71418800  0.56227100  0.75515000  1
  H  2431  1  0.48419000  0.26086800  0.77675200  1
  H  2440  1  0.51241400  0.22196100  0.73882000  1
  H  2443  1  0.49011500  0.25053200  0.70819800  1
  H  2444  1  0.50693900  0.29078300  0.74774800  1
  H  2445  1  0.42338800  0.23559000  0.75189900  1
  H  2446  1  0.57330000  0.24688500  0.76375100  1
  H  2448  1  0.56073900  0.21421500  0.74442800  1
  H  2450  1  0.55989500  0.28745800  0.75502100  1
  H  2452  1  0.43700900  0.24343800  0.71134600  1
  H  2454  1  0.43574000  0.25547400  0.78421800  1
  H  2461  1  0.48423400  0.73807700  0.22234300  1
  H  2470  1  0.51257900  0.77674200  0.26046600  1
  H  2473  1  0.49004600  0.74828700  0.29092400  1
  H  2474  1  0.50670900  0.70800000  0.25127500  1
  H  2475  1  0.42346500  0.76352000  0.24709200  1
  H  2476  1  0.57339700  0.75156100  0.23561100  1
  H  2478  1  0.56099600  0.78415500  0.25499400  1
  H  2480  1  0.55976900  0.71100400  0.24406200  1
  H  2482  1  0.43701100  0.75555700  0.28770100  1
  H  2484  1  0.43570700  0.74350000  0.21484000  1
  H  2491  1  0.51464200  0.73833900  0.77684800  1
  H  2500  1  0.48645700  0.77690300  0.73856100  1
  H  2503  1  0.50895000  0.74817600  0.70819400  1
  H  2504  1  0.49211400  0.70815900  0.74792300  1
  H  2505  1  0.57551900  0.76346600  0.75203400  1
  H  2506  1  0.42558100  0.75195800  0.76351100  1
  H  2508  1  0.43804300  0.78452000  0.74401700  1
  H  2510  1  0.43913000  0.71136700  0.75502300  1
  H  2512  1  0.56208600  0.75541100  0.71144900  1
  H  2514  1  0.56298900  0.74386400  0.78448100  1
  H  2521  1  0.51447100  0.26061500  0.22195700  1
  H  2530  1  0.48650900  0.22198300  0.26028200  1
  H  2533  1  0.50917500  0.25068100  0.29063800  1
  H  2534  1  0.49208900  0.29076500  0.25111900  1
  H  2535  1  0.57545800  0.23538400  0.24638100  1
  H  2536  1  0.42550400  0.24697900  0.23569800  1
  H  2538  1  0.43817700  0.21435000  0.25485100  1
  H  2540  1  0.43897100  0.28755100  0.24409600  1
  H  2542  1  0.56219400  0.24352200  0.28706500  1
  H  2544  1  0.56273800  0.25500100  0.21400300  1
  H  2575  1  0.27325800  0.42405400  0.38575700  1
  H  2576  1  0.30030000  0.40759000  0.37228300  1
  H  2577  1  0.27298900  0.38515200  0.43287000  1
  H  2578  1  0.30013800  0.36864800  0.41934400  1
  H  2579  1  0.34006900  0.38219700  0.33809400  1
  H  2580  1  0.33869800  0.33983800  0.38179200  1
  H  2581  1  0.38239600  0.33846300  0.33943400  1
  H  2582  1  0.37271200  0.30019900  0.40728800  1
  H  2583  1  0.36865300  0.41955100  0.29921700  1
  H  2584  1  0.38503200  0.43294200  0.27192500  1
  H  2585  1  0.42414000  0.38600100  0.27245900  1
  H  2586  1  0.40779700  0.37266100  0.29963900  1
  H  2587  1  0.38601200  0.27311000  0.42381300  1
  H  2588  1  0.43314900  0.27248800  0.38494100  1
  H  2589  1  0.41979900  0.29969100  0.36838300  1
  H  2590  1  0.37498400  0.39658700  0.32905900  1
  H  2591  1  0.37362100  0.35980100  0.30915000  1
  H  2592  1  0.32981600  0.37481800  0.39619400  1
  H  2593  1  0.30978200  0.37343900  0.35947500  1
  H  2594  1  0.39674700  0.32954300  0.37453000  1
  H  2595  1  0.36002000  0.30953300  0.37298200  1
  H  2632  1  0.13081000  0.97993400  0.38538200  1
  H  2633  1  0.10382400  0.99645400  0.37186900  1
  H  2634  1  0.13070300  0.01844990  0.43280900  1
  H  2635  1  0.10361600  0.03502090  0.41923900  1
  H  2636  1  0.06393390  0.02180290  0.33780700  1
  H  2637  1  0.06523090  0.06405190  0.38161400  1
  H  2638  1  0.02156290  0.06549390  0.33922500  1
  H  2639  1  0.03111990  0.10360700  0.40719000  1
  H  2640  1  0.03501990  0.98428700  0.29916300  1
  H  2641  1  0.01854390  0.97085700  0.27194600  1
  H  2642  1  0.97992800  0.01819990  0.27204800  1
  H  2643  1  0.99635200  0.03157390  0.29916600  1
  H  2644  1  0.01779690  0.13068600  0.42372100  1
  H  2645  1  0.97079200  0.13143500  0.38469300  1
  H  2646  1  0.98416400  0.10424400  0.36812900  1
  H  2647  1  0.02890890  0.00745191  0.32880200  1
  H  2648  1  0.03042590  0.04422290  0.30887700  1
  H  2649  1  0.07410590  0.02899090  0.39590900  1
  H  2650  1  0.09421090  0.03057790  0.35924000  1
  H  2651  1  0.00716791  0.07434690  0.37431100  1
  H  2652  1  0.04389590  0.09436090  0.37285500  1
  H  2689  1  0.13070300  0.42377800  0.01831690  1
  H  2690  1  0.10368400  0.40728400  0.03179990  1
  H  2691  1  0.13075700  0.38511600  0.97100700  1
  H  2692  1  0.10363600  0.36857400  0.98454600  1
  H  2693  1  0.06382890  0.38188100  0.06588890  1
  H  2694  1  0.06526690  0.33955400  0.02216290  1
  H  2695  1  0.02158190  0.33806900  0.06453290  1
  H  2696  1  0.03148690  0.29962900  0.99682200  1
  H  2697  1  0.03503390  0.41928200  0.10462000  1
  H  2698  1  0.01855690  0.43271800  0.13183400  1
  H  2699  1  0.97977600  0.38550900  0.13157200  1
  H  2700  1  0.99620700  0.37212700  0.10446300  1
  H  2701  1  0.01815990  0.27257900  0.98024800  1
  H  2702  1  0.97069200  0.27233800  0.01871290  1
  H  2703  1  0.98407500  0.29949000  0.03533590  1
  H  2704  1  0.02886790  0.39618800  0.07491790  1
  H  2705  1  0.03032490  0.35940900  0.09482890  1
  H  2706  1  0.07405790  0.37463400  0.00780791  1
  H  2707  1  0.09414590  0.37313600  0.04449090  1
  H  2708  1  0.00727491  0.32917200  0.02935290  1
  H  2709  1  0.04399990  0.30917600  0.03103090  1
  H  2746  1  0.27266200  0.98000900  0.01846590  1
  H  2747  1  0.29963700  0.99655900  0.03195990  1
  H  2748  1  0.27304000  0.01818590  0.97076600  1
  H  2749  1  0.30011000  0.03479390  0.98432600  1
  H  2750  1  0.33970600  0.02175690  0.06580590  1
  H  2751  1  0.33824900  0.06413490  0.02212690  1
  H  2752  1  0.38199600  0.06552690  0.06443690  1
  H  2753  1  0.37211100  0.10400900  0.99674900  1
  H  2754  1  0.36865300  0.98428300  0.10443500  1
  H  2755  1  0.38515100  0.97087000  0.13164400  1
  H  2756  1  0.42386900  0.01813390  0.13137100  1
  H  2757  1  0.40741500  0.03148990  0.10426900  1
  H  2758  1  0.38548200  0.13104200  0.98018400  1
  H  2759  1  0.43292900  0.13121600  0.01867690  1
  H  2760  1  0.41950400  0.10408000  0.03528590  1
  H  2761  1  0.37476600  0.00743191  0.07473090  1
  H  2762  1  0.37323100  0.04415690  0.09473790  1
  H  2763  1  0.32949000  0.02895090  0.00779891  1
  H  2764  1  0.30934800  0.03060290  0.04444690  1
  H  2765  1  0.39627400  0.07442790  0.02927890  1
  H  2766  1  0.35957400  0.09447190  0.03096390  1
  H  2803  1  0.42337400  0.27286700  0.01733990  1
  H  2804  1  0.40714500  0.30017000  0.03059590  1
  H  2805  1  0.38298000  0.27106200  0.97152200  1
  H  2806  1  0.36675100  0.29849800  0.98480200  1
  H  2807  1  0.38130300  0.33919600  0.06533090  1
  H  2808  1  0.33891300  0.33799800  0.02165990  1
  H  2809  1  0.33769300  0.38164900  0.06407590  1
  H  2810  1  0.29968700  0.37278400  0.99596900  1
  H  2811  1  0.41824000  0.36682200  0.10474200  1
  H  2812  1  0.43167300  0.38301800  0.13212000  1
  H  2813  1  0.38601500  0.42359900  0.13042600  1
  H  2814  1  0.37260800  0.40740500  0.10317600  1
  H  2815  1  0.27232200  0.38608000  0.97988000  1
  H  2816  1  0.27082000  0.43193200  0.02024990  1
  H  2817  1  0.29831100  0.41860500  0.03634490  1
  H  2818  1  0.39587100  0.37387600  0.07435790  1
  H  2819  1  0.35906100  0.37291700  0.09427590  1
  H  2820  1  0.37374500  0.32895600  0.00717791  1
  H  2821  1  0.37252600  0.30900000  0.04396090  1
  H  2822  1  0.32864300  0.39617500  0.02932790  1
  H  2823  1  0.30871800  0.35937300  0.03042190  1
  H  2860  1  0.98043100  0.13100800  0.01751490  1
  H  2861  1  0.99664500  0.10370100  0.03078290  1
  H  2862  1  0.02070490  0.13264900  0.97158800  1
  H  2863  1  0.03692890  0.10521400  0.98488600  1
  H  2864  1  0.02238290  0.06455290  0.06545890  1
  H  2865  1  0.06480890  0.06577690  0.02182190  1
  H  2866  1  0.06603590  0.02214690  0.06425990  1
  H  2867  1  0.10405200  0.03080890  0.99614700  1
  H  2868  1  0.98532100  0.03668790  0.10471300  1
  H  2869  1  0.97190300  0.02048390  0.13209800  1
  H  2870  1  0.01792090  0.98030000  0.13077900  1
  H  2871  1  0.03130390  0.99649100  0.10351500  1
  H  2872  1  0.13144600  0.01749890  0.98012000  1
  H  2873  1  0.13325000  0.97202300  0.02089890  1
  H  2874  1  0.10572600  0.98536100  0.03692890  1
  H  2875  1  0.00786891  0.02977690  0.07448090  1
  H  2876  1  0.04464290  0.03092190  0.09445190  1
  H  2877  1  0.02999290  0.07483290  0.00731391  1
  H  2878  1  0.03117190  0.09475590  0.04411390  1
  H  2879  1  0.07524990  0.00755291  0.02970490  1
  H  2880  1  0.09499490  0.04445490  0.03055790  1
  H  2917  1  0.42338500  0.13058200  0.38651000  1
  H  2918  1  0.40723500  0.10321700  0.37327700  1
  H  2919  1  0.38241800  0.13289900  0.43179400  1
  H  2920  1  0.36627600  0.10539600  0.41854500  1
  H  2921  1  0.38137100  0.06426990  0.33833400  1
  H  2922  1  0.33888100  0.06553890  0.38190700  1
  H  2923  1  0.33776200  0.02181890  0.33956200  1
  H  2924  1  0.29974400  0.03056190  0.40767600  1
  H  2925  1  0.41846200  0.03643790  0.29915300  1
  H  2926  1  0.43188800  0.02026790  0.27175300  1
  H  2927  1  0.38599800  0.97994000  0.27315200  1
  H  2928  1  0.37260100  0.99610200  0.30042700  1
  H  2929  1  0.27234200  0.01726490  0.42370900  1
  H  2930  1  0.27056700  0.97173600  0.38298900  1
  H  2931  1  0.29809900  0.98505600  0.36695700  1
  H  2932  1  0.39592800  0.02947790  0.32941400  1
  H  2933  1  0.35918800  0.03057490  0.30937300  1
  H  2934  1  0.37351700  0.07470490  0.39650000  1
  H  2935  1  0.37262400  0.09447190  0.35960400  1
  H  2936  1  0.32857300  0.00729491  0.37417500  1
  H  2937  1  0.30873100  0.04414390  0.37318000  1
  H  2974  1  0.98023300  0.27294000  0.38622800  1
  H  2975  1  0.99646500  0.30024000  0.37297400  1
  H  2976  1  0.02051090  0.27125000  0.43215400  1
  H  2977  1  0.03674690  0.29868000  0.41887000  1
  H  2978  1  0.02218790  0.33934400  0.33833900  1
  H  2979  1  0.06473090  0.33801800  0.38185700  1
  H  2980  1  0.06590490  0.38168800  0.33945800  1
  H  2981  1  0.10397700  0.37291900  0.40752400  1
  H  2982  1  0.98514400  0.36712100  0.29913600  1
  H  2983  1  0.97167800  0.38331000  0.27176700  1
  H  2984  1  0.01750190  0.42371300  0.27320900  1
  H  2985  1  0.03094090  0.40752800  0.30045100  1
  H  2986  1  0.13138000  0.38619300  0.42357000  1
  H  2987  1  0.13324300  0.43169500  0.38282200  1
  H  2988  1  0.10570900  0.41839400  0.36677400  1
  H  2989  1  0.00767791  0.37410700  0.32941000  1
  H  2990  1  0.04439590  0.37300700  0.30932800  1
  H  2991  1  0.02983690  0.32907700  0.39642300  1
  H  2992  1  0.03102890  0.30909300  0.35965300  1
  H  2993  1  0.07519490  0.39623000  0.37400400  1
  H  2994  1  0.09492190  0.35931800  0.37308500  1
  H  3031  1  0.27416100  0.92323900  0.88590000  1
  H  3032  1  0.30138900  0.90697400  0.87253300  1
  H  3033  1  0.27223300  0.88260400  0.93149700  1
  H  3034  1  0.29959200  0.86634500  0.91811100  1
  H  3035  1  0.34082100  0.88138600  0.83783100  1
  H  3036  1  0.33931500  0.83881400  0.88131000  1
  H  3037  1  0.38332500  0.83782500  0.83926800  1
  H  3038  1  0.37329900  0.79945800  0.90704800  1
  H  3039  1  0.36917700  0.91903800  0.79937100  1
  H  3040  1  0.38539500  0.93265000  0.77209100  1
  H  3041  1  0.42482100  0.88597200  0.77233400  1
  H  3042  1  0.40864700  0.87241700  0.79951300  1
  H  3043  1  0.38643300  0.77229800  0.92358900  1
  H  3044  1  0.43366600  0.77148700  0.88483900  1
  H  3045  1  0.42048400  0.79876800  0.86826700  1
  H  3046  1  0.37563200  0.89598700  0.82906000  1
  H  3047  1  0.37461700  0.85926600  0.80900400  1
  H  3048  1  0.33006100  0.87336400  0.89593000  1
  H  3049  1  0.31049500  0.87261100  0.85893600  1
  H  3050  1  0.39746100  0.82875400  0.87444800  1
  H  3051  1  0.36079800  0.80865500  0.87253100  1
  H  3088  1  0.12937200  0.48027800  0.88593400  1
  H  3089  1  0.10222400  0.49662900  0.87252000  1
  H  3090  1  0.13112400  0.52069300  0.93173200  1
  H  3091  1  0.10384300  0.53704200  0.91829600  1
  H  3092  1  0.06305390  0.52241500  0.83773800  1
  H  3093  1  0.06446590  0.56488900  0.88131800  1
  H  3094  1  0.02069890  0.56612600  0.83902500  1
  H  3095  1  0.03053190  0.60434000  0.90693400  1
  H  3096  1  0.03445890  0.48472200  0.79936500  1
  H  3097  1  0.01816990  0.47108300  0.77213700  1
  H  3098  1  0.97932400  0.51823800  0.77184400  1
  H  3099  1  0.99555400  0.53181600  0.79897900  1
  H  3100  1  0.01740190  0.63151600  0.92346000  1
  H  3101  1  0.97032400  0.63249900  0.88452800  1
  H  3102  1  0.98350100  0.60520700  0.86796700  1
  H  3103  1  0.02817190  0.50798600  0.82883500  1
  H  3104  1  0.02949990  0.54468700  0.80876300  1
  H  3105  1  0.07348390  0.53018900  0.89589300  1
  H  3106  1  0.09330390  0.53108700  0.85903400  1
  H  3107  1  0.00641691  0.57515200  0.87420400  1
  H  3108  1  0.04314290  0.59515600  0.87244600  1
  H  3145  1  0.12949100  0.92318900  0.51807000  1
  H  3146  1  0.10234100  0.90680100  0.53143700  1
  H  3147  1  0.13126300  0.88288200  0.47217700  1
  H  3148  1  0.10398300  0.86649500  0.48556900  1
  H  3149  1  0.06305390  0.88108500  0.56605600  1
  H  3150  1  0.06455190  0.83856400  0.52252600  1
  H  3151  1  0.02066390  0.83740900  0.56469800  1
  H  3152  1  0.03082690  0.79887700  0.49704700  1
  H  3153  1  0.03451690  0.91875900  0.60443500  1
  H  3154  1  0.01820690  0.93241400  0.63164300  1
  H  3155  1  0.97915200  0.88543000  0.63172200  1
  H  3156  1  0.99540700  0.87183500  0.60461000  1
  H  3157  1  0.01765990  0.77174700  0.48047700  1
  H  3158  1  0.97008700  0.77136100  0.51881300  1
  H  3159  1  0.98331000  0.79859900  0.53543200  1
  H  3160  1  0.02820190  0.89556800  0.57489300  1
  H  3161  1  0.02938590  0.85885700  0.59495400  1
  H  3162  1  0.07361790  0.87328100  0.50795500  1
  H  3163  1  0.09335490  0.87237400  0.54485700  1
  H  3164  1  0.00650291  0.82839000  0.52942800  1
  H  3165  1  0.04316690  0.80830500  0.53142100  1
  H  3202  1  0.27398800  0.48050300  0.51801200  1
  H  3203  1  0.30117200  0.49684000  0.53137300  1
  H  3204  1  0.27238700  0.52071100  0.47202600  1
  H  3205  1  0.29969600  0.53705400  0.48541800  1
  H  3206  1  0.34060400  0.52245000  0.56591300  1
  H  3207  1  0.33901500  0.56504300  0.52245500  1
  H  3208  1  0.38293900  0.56617900  0.56458800  1
  H  3209  1  0.37274200  0.60476800  0.49696900  1
  H  3210  1  0.36923700  0.48476900  0.60422700  1
  H  3211  1  0.38554000  0.47114300  0.63144900  1
  H  3212  1  0.42453300  0.51818300  0.63154900  1
  H  3213  1  0.40828000  0.53174800  0.60442700  1
  H  3214  1  0.38592900  0.63188600  0.48039800  1
  H  3215  1  0.43346700  0.63228000  0.51877800  1
  H  3216  1  0.42022700  0.60505100  0.53539100  1
  H  3217  1  0.37552300  0.50800200  0.57469000  1
  H  3218  1  0.37424100  0.54466800  0.59482800  1
  H  3219  1  0.32999500  0.53028800  0.50785600  1
  H  3220  1  0.31025500  0.53121000  0.54475400  1
  H  3221  1  0.39706700  0.57525300  0.52934800  1
  H  3222  1  0.36038200  0.59530300  0.53134400  1
  H  3259  1  0.42296300  0.77382000  0.51754300  1
  H  3260  1  0.40649600  0.80098100  0.53079100  1
  H  3261  1  0.38292800  0.77201300  0.47141200  1
  H  3262  1  0.36646200  0.79930900  0.48468500  1
  H  3263  1  0.38059900  0.84000600  0.56527600  1
  H  3264  1  0.33824300  0.83875000  0.52157900  1
  H  3265  1  0.33706500  0.88253600  0.56385900  1
  H  3266  1  0.29866900  0.87283300  0.49609000  1
  H  3267  1  0.41759100  0.86728700  0.60464300  1
  H  3268  1  0.43114100  0.88332100  0.63205500  1
  H  3269  1  0.38569600  0.92414500  0.63054900  1
  H  3270  1  0.37217300  0.90811300  0.60326200  1
  H  3271  1  0.27147300  0.88610200  0.47971300  1
  H  3272  1  0.27105700  0.93328500  0.51853400  1
  H  3273  1  0.29836200  0.91996000  0.53495500  1
  H  3274  1  0.39528700  0.87444800  0.57435100  1
  H  3275  1  0.35838400  0.87388400  0.59409900  1
  H  3276  1  0.37318900  0.82972400  0.50717300  1
  H  3277  1  0.37183000  0.80977500  0.54395200  1
  H  3278  1  0.32816900  0.89684000  0.52871100  1
  H  3279  1  0.30801400  0.86019400  0.53042500  1
  H  3316  1  0.98098000  0.63005000  0.51773000  1
  H  3317  1  0.99741700  0.60287700  0.53100000  1
  H  3318  1  0.02122990  0.63200700  0.47179700  1
  H  3319  1  0.03766890  0.60470300  0.48508800  1
  H  3320  1  0.02321990  0.56373200  0.56552900  1
  H  3321  1  0.06566190  0.56509400  0.52191900  1
  H  3322  1  0.06675190  0.52119900  0.56408600  1
  H  3323  1  0.10540800  0.53118800  0.49651500  1
  H  3324  1  0.98605500  0.53620500  0.60464800  1
  H  3325  1  0.97249200  0.52016400  0.63205300  1
  H  3326  1  0.01823890  0.47966900  0.63090100  1
  H  3327  1  0.03176590  0.49569700  0.60361100  1
  H  3328  1  0.13255800  0.51790000  0.48008300  1
  H  3329  1  0.13257500  0.47035400  0.51845700  1
  H  3330  1  0.10532000  0.48370500  0.53494500  1
  H  3331  1  0.00854091  0.52919900  0.57451600  1
  H  3332  1  0.04539990  0.52985900  0.59433500  1
  H  3333  1  0.03086990  0.57423100  0.50743100  1
  H  3334  1  0.03197690  0.59399700  0.54431500  1
  H  3335  1  0.07567990  0.50700700  0.52884800  1
  H  3336  1  0.09588590  0.54360800  0.53081000  1
  H  3373  1  0.42300100  0.62967100  0.88630000  1
  H  3374  1  0.40662900  0.60243200  0.87307800  1
  H  3375  1  0.38238000  0.63198700  0.93189400  1
  H  3376  1  0.36602000  0.60461200  0.91865700  1
  H  3377  1  0.38068800  0.56347200  0.83838000  1
  H  3378  1  0.33828800  0.56477400  0.88203500  1
  H  3379  1  0.33719000  0.52090600  0.83984000  1
  H  3380  1  0.29896100  0.53044400  0.90773900  1
  H  3381  1  0.41782500  0.53598300  0.79924200  1
  H  3382  1  0.43136100  0.51997900  0.77180300  1
  H  3383  1  0.38568700  0.47940100  0.77302900  1
  H  3384  1  0.37218300  0.49539700  0.80034900  1
  H  3385  1  0.27172000  0.51720900  0.92407600  1
  H  3386  1  0.27081000  0.47044400  0.88476100  1
  H  3387  1  0.29816700  0.48372700  0.86839200  1
  H  3388  1  0.39537500  0.52891500  0.82941700  1
  H  3389  1  0.35852400  0.52960300  0.80957700  1
  H  3390  1  0.37302000  0.57395700  0.89651300  1
  H  3391  1  0.37196600  0.59370300  0.85961300  1
  H  3392  1  0.32820900  0.50660200  0.87486700  1
  H  3393  1  0.30811500  0.54328900  0.87328100  1
  H  3430  1  0.98073900  0.77394100  0.88596600  1
  H  3431  1  0.99722500  0.80109700  0.87273100  1
  H  3432  1  0.02065290  0.77221000  0.93220600  1
  H  3433  1  0.03714290  0.79949400  0.91894200  1
  H  3434  1  0.02298690  0.84021000  0.83838000  1
  H  3435  1  0.06554790  0.83877200  0.88187000  1
  H  3436  1  0.06664190  0.88262300  0.83965300  1
  H  3437  1  0.10550200  0.87256500  0.90707900  1
  H  3438  1  0.98587700  0.86761100  0.79924200  1
  H  3439  1  0.97227900  0.88361700  0.77183700  1
  H  3440  1  0.01785990  0.92429700  0.77307000  1
  H  3441  1  0.03143090  0.90829400  0.80035400  1
  H  3442  1  0.13269500  0.88583400  0.92345900  1
  H  3443  1  0.13261300  0.93343100  0.88515200  1
  H  3444  1  0.10531700  0.92009800  0.86871000  1
  H  3445  1  0.00834791  0.87471700  0.82941400  1
  H  3446  1  0.04515590  0.87404600  0.80949400  1
  H  3447  1  0.03052590  0.82986000  0.89639000  1
  H  3448  1  0.03183090  0.80990300  0.85961400  1
  H  3449  1  0.07569790  0.89681800  0.87483700  1
  H  3450  1  0.09581190  0.86016800  0.87287500  1
  H  3487  1  0.77159700  0.42429600  0.88641400  1
  H  3488  1  0.79879100  0.40799100  0.87305000  1
  H  3489  1  0.77109100  0.38512100  0.93330200  1
  H  3490  1  0.79839800  0.36877500  0.91988500  1
  H  3491  1  0.83816300  0.38242300  0.83861700  1
  H  3492  1  0.83716900  0.34019400  0.88245500  1
  H  3493  1  0.88053100  0.33873600  0.83975500  1
  H  3494  1  0.87233900  0.30089700  0.90798500  1
  H  3495  1  0.86605500  0.41913900  0.79879100  1
  H  3496  1  0.88241600  0.43233500  0.77139400  1
  H  3497  1  0.92271300  0.38644300  0.77344700  1
  H  3498  1  0.90634600  0.37326700  0.80070400  1
  H  3499  1  0.88593000  0.27366000  0.92405000  1
  H  3500  1  0.93129300  0.27211800  0.88313600  1
  H  3501  1  0.91767700  0.29948000  0.86706900  1
  H  3502  1  0.87298200  0.39685100  0.82935500  1
  H  3503  1  0.87167700  0.35999400  0.80954800  1
  H  3504  1  0.82824200  0.37517900  0.89682100  1
  H  3505  1  0.80804500  0.37366600  0.86019100  1
  H  3506  1  0.89534100  0.32976400  0.87422100  1
  H  3507  1  0.85847100  0.30994600  0.87374100  1
  H  3544  1  0.63243600  0.97966100  0.88597500  1
  H  3545  1  0.60525000  0.99597500  0.87260900  1
  H  3546  1  0.63264200  0.01852390  0.93312100  1
  H  3547  1  0.60534900  0.03488990  0.91969500  1
  H  3548  1  0.56552900  0.02132090  0.83842300  1
  H  3549  1  0.56664200  0.06359190  0.88222000  1
  H  3550  1  0.52311900  0.06496590  0.83967900  1
  H  3551  1  0.53154100  0.10288900  0.90783400  1
  H  3552  1  0.53739200  0.98450800  0.79879900  1
  H  3553  1  0.52097800  0.97133100  0.77142500  1
  H  3554  1  0.48082900  0.01735190  0.77343200  1
  H  3555  1  0.49724400  0.03050690  0.80067200  1
  H  3556  1  0.51799900  0.13013400  0.92392600  1
  H  3557  1  0.47248600  0.13162300  0.88317800  1
  H  3558  1  0.48605400  0.10425300  0.86708200  1
  H  3559  1  0.53059700  0.00687991  0.82932200  1
  H  3560  1  0.53192500  0.04370190  0.80944800  1
  H  3561  1  0.57563100  0.02857290  0.89655800  1
  H  3562  1  0.59573600  0.03018390  0.85988100  1
  H  3563  1  0.50842500  0.07398090  0.87418600  1
  H  3564  1  0.54528600  0.09380890  0.87355500  1
  H  3601  1  0.63241200  0.42395500  0.51764500  1
  H  3602  1  0.60517500  0.40767800  0.53095600  1
  H  3603  1  0.63269200  0.38505700  0.47052600  1
  H  3604  1  0.60534700  0.36873100  0.48389600  1
  H  3605  1  0.56548700  0.38227900  0.56512400  1
  H  3606  1  0.56653900  0.34006800  0.52126900  1
  H  3607  1  0.52301000  0.33870100  0.56380300  1
  H  3608  1  0.53138200  0.30076700  0.49564700  1
  H  3609  1  0.53750700  0.41903900  0.60484700  1
  H  3610  1  0.52111100  0.43223000  0.63222800  1
  H  3611  1  0.48075500  0.38639400  0.63005300  1
  H  3612  1  0.49715400  0.37322700  0.60280900  1
  H  3613  1  0.51782000  0.27349100  0.47961600  1
  H  3614  1  0.47231800  0.27211500  0.52037800  1
  H  3615  1  0.48590600  0.29951100  0.53641300  1
  H  3616  1  0.53063200  0.39677700  0.57425600  1
  H  3617  1  0.53181800  0.35991000  0.59405500  1
  H  3618  1  0.57557000  0.37511600  0.50698700  1
  H  3619  1  0.59568200  0.37339900  0.54365600  1
  H  3620  1  0.50830900  0.32974400  0.52927700  1
  H  3621  1  0.54514200  0.30986100  0.52992100  1
  H  3658  1  0.77096400  0.97988600  0.51791800  1
  H  3659  1  0.79814800  0.99622500  0.53125200  1
  H  3660  1  0.77115300  0.01826090  0.47037300  1
  H  3661  1  0.79844000  0.03465690  0.48377100  1
  H  3662  1  0.83798100  0.02153290  0.56524000  1
  H  3663  1  0.83705200  0.06361890  0.52126000  1
  H  3664  1  0.88056000  0.06500790  0.56381300  1
  H  3665  1  0.87226400  0.10276900  0.49554700  1
  H  3666  1  0.86613800  0.98469600  0.60492700  1
  H  3667  1  0.88259300  0.97153500  0.63228200  1
  H  3668  1  0.92273300  0.01756290  0.63019300  1
  H  3669  1  0.90627900  0.03069990  0.60297500  1
  H  3670  1  0.88587500  0.12997900  0.47945400  1
  H  3671  1  0.93145800  0.13127900  0.52013300  1
  H  3672  1  0.91781900  0.10394500  0.53622800  1
  H  3673  1  0.87291000  0.00701591  0.57437700  1
  H  3674  1  0.87164100  0.04389590  0.59414400  1
  H  3675  1  0.82800700  0.02849290  0.50710100  1
  H  3676  1  0.80781200  0.03042490  0.54371100  1
  H  3677  1  0.89528600  0.07378190  0.52921200  1
  H  3678  1  0.85852900  0.09380490  0.52984600  1
  H  3715  1  0.92474800  0.27207300  0.51780400  1
  H  3716  1  0.90850500  0.29926100  0.53125800  1
  H  3717  1  0.88517300  0.27140700  0.47125700  1
  H  3718  1  0.86889600  0.29870600  0.48476000  1
  H  3719  1  0.88292800  0.33881900  0.56586600  1
  H  3720  1  0.84063300  0.33750500  0.52209300  1
  H  3721  1  0.83905800  0.38100300  0.56464600  1
  H  3722  1  0.80123400  0.37213200  0.49644300  1
  H  3723  1  0.92013700  0.36793700  0.60481700  1
  H  3724  1  0.93336400  0.38459300  0.63202300  1
  H  3725  1  0.88603400  0.42322900  0.63128700  1
  H  3726  1  0.87285700  0.40660700  0.60419700  1
  H  3727  1  0.77407800  0.38556100  0.48011600  1
  H  3728  1  0.77263200  0.43157500  0.52030000  1
  H  3729  1  0.79991200  0.41811500  0.53663200  1
  H  3730  1  0.89709000  0.37404800  0.57488200  1
  H  3731  1  0.86039900  0.37213400  0.59493200  1
  H  3732  1  0.87542500  0.32859600  0.50764200  1
  H  3733  1  0.87430900  0.30860200  0.54439500  1
  H  3734  1  0.83013000  0.39559200  0.52989000  1
  H  3735  1  0.81030700  0.35873700  0.53079400  1
  H  3772  1  0.47942700  0.13234200  0.51838100  1
  H  3773  1  0.49572900  0.10521700  0.53188800  1
  H  3774  1  0.51795400  0.13195400  0.47096500  1
  H  3775  1  0.53431700  0.10473400  0.48453500  1
  H  3776  1  0.52095900  0.06519590  0.56604200  1
  H  3777  1  0.56322100  0.06646690  0.52223600  1
  H  3778  1  0.56478600  0.02297090  0.56479500  1
  H  3779  1  0.60256100  0.03157390  0.49654600  1
  H  3780  1  0.48351300  0.03560790  0.60465800  1
  H  3781  1  0.47025900  0.01884590  0.63178900  1
  H  3782  1  0.51806700  0.98080100  0.63155200  1
  H  3783  1  0.53126600  0.99751700  0.60452600  1
  H  3784  1  0.62972600  0.01808690  0.48028200  1
  H  3785  1  0.63142000  0.97245400  0.52088700  1
  H  3786  1  0.60412700  0.98596800  0.53715000  1
  H  3787  1  0.50683500  0.02977290  0.57495400  1
  H  3788  1  0.54344800  0.03193290  0.59511800  1
  H  3789  1  0.52819500  0.07530690  0.50790600  1
  H  3790  1  0.52973600  0.09545790  0.54455400  1
  H  3791  1  0.57380200  0.00830891  0.53022300  1
  H  3792  1  0.59351800  0.04522390  0.53086400  1
  H  3829  1  0.92464100  0.13174400  0.88600900  1
  H  3830  1  0.90847000  0.10451200  0.87255000  1
  H  3831  1  0.88503800  0.13232700  0.93253300  1
  H  3832  1  0.86882700  0.10499000  0.91902000  1
  H  3833  1  0.88309300  0.06480190  0.83798100  1
  H  3834  1  0.84066500  0.06615490  0.88162300  1
  H  3835  1  0.83924900  0.02259090  0.83913300  1
  H  3836  1  0.80131200  0.03131690  0.90727900  1
  H  3837  1  0.92033000  0.03572690  0.79902800  1
  H  3838  1  0.93353700  0.01911790  0.77178200  1
  H  3839  1  0.88634600  0.98031400  0.77265500  1
  H  3840  1  0.87318600  0.99689200  0.79978300  1
  H  3841  1  0.77409700  0.01786890  0.92350200  1
  H  3842  1  0.77246400  0.97218100  0.88295700  1
  H  3843  1  0.79980600  0.98565000  0.86673700  1
  H  3844  1  0.89730900  0.02955590  0.82902700  1
  H  3845  1  0.86065800  0.03143090  0.80890200  1
  H  3846  1  0.87539600  0.07512590  0.89616200  1
  H  3847  1  0.87438700  0.09504490  0.85936700  1
  H  3848  1  0.83014000  0.00799391  0.87372500  1
  H  3849  1  0.81039800  0.04489490  0.87291700  1
  H  3886  1  0.47886700  0.27209400  0.88608900  1
  H  3887  1  0.49506300  0.29930200  0.87261800  1
  H  3888  1  0.51840000  0.27157000  0.93267600  1
  H  3889  1  0.53463300  0.29888500  0.91915200  1
  H  3890  1  0.52054000  0.33890400  0.83801400  1
  H  3891  1  0.56298200  0.33748300  0.88164000  1
  H  3892  1  0.56455300  0.38094100  0.83904500  1
  H  3893  1  0.60246200  0.37221600  0.90719900  1
  H  3894  1  0.48343800  0.36793900  0.79895500  1
  H  3895  1  0.47023600  0.38459000  0.77173400  1
  H  3896  1  0.51742000  0.42340000  0.77268100  1
  H  3897  1  0.53057800  0.40677400  0.79978100  1
  H  3898  1  0.62967100  0.38563900  0.92344900  1
  H  3899  1  0.63144600  0.43127600  0.88285100  1
  H  3900  1  0.60411300  0.41782900  0.86660100  1
  H  3901  1  0.50643500  0.37412400  0.82899000  1
  H  3902  1  0.54308200  0.37217300  0.80886300  1
  H  3903  1  0.52815400  0.32870300  0.89619800  1
  H  3904  1  0.52919100  0.30865600  0.85947200  1
  H  3905  1  0.57372300  0.39557900  0.87358600  1
  H  3906  1  0.59332800  0.35860400  0.87289100  1
  H  3943  1  0.77246400  0.92340300  0.38651000  1
  H  3944  1  0.79986000  0.90731400  0.37327000  1
  H  3945  1  0.77042000  0.88260000  0.43195300  1
  H  3946  1  0.79795000  0.86651400  0.41869200  1
  H  3947  1  0.83898300  0.88163000  0.33839100  1
  H  3948  1  0.83782100  0.83914300  0.38197000  1
  H  3949  1  0.88151600  0.83810100  0.33959900  1
  H  3950  1  0.87290400  0.80002400  0.40767400  1
  H  3951  1  0.86661500  0.91864000  0.29897100  1
  H  3952  1  0.88279500  0.93205500  0.27157000  1
  H  3953  1  0.92343400  0.88645300  0.27333100  1
  H  3954  1  0.90725800  0.87306300  0.30060100  1
  H  3955  1  0.88631100  0.77268500  0.42372200  1
  H  3956  1  0.93184900  0.77107200  0.38300600  1
  H  3957  1  0.91841700  0.79854000  0.36695700  1
  H  3958  1  0.87368600  0.89627600  0.32938700  1
  H  3959  1  0.87274700  0.85948400  0.30943200  1
  H  3960  1  0.82853900  0.87373800  0.39656900  1
  H  3961  1  0.80880500  0.87281200  0.35966000  1
  H  3962  1  0.89609500  0.82892000  0.37414700  1
  H  3963  1  0.85926400  0.80904100  0.37325400  1
  H  4000  1  0.63108400  0.48006500  0.38648800  1
  H  4001  1  0.60372000  0.49619000  0.37323400  1
  H  4002  1  0.63298400  0.52070400  0.43208600  1
  H  4003  1  0.60548800  0.53683000  0.41880600  1
  H  4004  1  0.56462700  0.52191000  0.33838400  1
  H  4005  1  0.56586300  0.56441300  0.38194800  1
  H  4006  1  0.52223100  0.56557700  0.33951200  1
  H  4007  1  0.53096400  0.60365200  0.40757400  1
  H  4008  1  0.53682500  0.48493100  0.29902400  1
  H  4009  1  0.52061400  0.47155100  0.27162400  1
  H  4010  1  0.48021700  0.51737200  0.27323700  1
  H  4011  1  0.49642300  0.53072600  0.30050900  1
  H  4012  1  0.51762200  0.63100400  0.42365100  1
  H  4013  1  0.47198200  0.63264700  0.38305100  1
  H  4014  1  0.48535300  0.60517000  0.36696800  1
  H  4015  1  0.52983700  0.50739000  0.32938300  1
  H  4016  1  0.53097700  0.54414500  0.30936700  1
  H  4017  1  0.57498000  0.52971700  0.39655200  1
  H  4018  1  0.59482200  0.53070700  0.35970100  1
  H  4019  1  0.50765800  0.57477100  0.37411300  1
  H  4020  1  0.54452200  0.59458900  0.37316000  1
  H  4057  1  0.63132400  0.92336100  0.01746090  1
  H  4058  1  0.60394000  0.90722300  0.03065490  1
  H  4059  1  0.63317200  0.88289000  0.97171100  1
  H  4060  1  0.60565500  0.86675000  0.98493300  1
  H  4061  1  0.56469500  0.88157200  0.06531290  1
  H  4062  1  0.56588700  0.83913600  0.02168290  1
  H  4063  1  0.52212700  0.83808100  0.06398890  1
  H  4064  1  0.53084900  0.80000800  0.99592300  1
  H  4065  1  0.53696300  0.91858400  0.10466100  1
  H  4066  1  0.52074000  0.93198800  0.13204300  1
  H  4067  1  0.48011300  0.88637600  0.13021100  1
  H  4068  1  0.49633300  0.87300000  0.10295800  1
  H  4069  1  0.51746300  0.77264900  0.97988800  1
  H  4070  1  0.47181200  0.77114700  0.02048090  1
  H  4071  1  0.48522400  0.79863100  0.03652190  1
  H  4072  1  0.52994700  0.89622200  0.07423090  1
  H  4073  1  0.53086600  0.85943000  0.09419190  1
  H  4074  1  0.57514800  0.87385400  0.00717591  1
  H  4075  1  0.59491800  0.87269600  0.04406090  1
  H  4076  1  0.50761000  0.82897200  0.02936090  1
  H  4077  1  0.54440300  0.80902700  0.03037290  1
  H  4114  1  0.77222100  0.48042700  0.01748890  1
  H  4115  1  0.79963700  0.49652400  0.03066790  1
  H  4116  1  0.77056600  0.52074300  0.97159700  1
  H  4117  1  0.79811200  0.53684700  0.98480600  1
  H  4118  1  0.83891200  0.52220100  0.06530790  1
  H  4119  1  0.83784700  0.56450100  0.02154190  1
  H  4120  1  0.88153700  0.56563300  0.06391590  1
  H  4121  1  0.87290100  0.60354500  0.99574300  1
  H  4122  1  0.86672400  0.48517600  0.10470300  1
  H  4123  1  0.88295800  0.47181500  0.13209500  1
  H  4124  1  0.92339400  0.51760200  0.13037200  1
  H  4125  1  0.90716500  0.53093200  0.10311000  1
  H  4126  1  0.88631600  0.63085500  0.97965800  1
  H  4127  1  0.93203100  0.63231200  0.02018290  1
  H  4128  1  0.91858700  0.60487600  0.03627390  1
  H  4129  1  0.87369200  0.50755800  0.07430790  1
  H  4130  1  0.87268300  0.54438700  0.09418890  1
  H  4131  1  0.82855200  0.52976500  0.00712591  1
  H  4132  1  0.80873800  0.53104100  0.04398290  1
  H  4133  1  0.89611000  0.57458700  0.02922990  1
  H  4134  1  0.85935800  0.59461300  0.03018790  1
  H  4171  1  0.92428400  0.77295700  0.01799190  1
  H  4172  1  0.90782600  0.80001700  0.03143690  1
  H  4173  1  0.88512200  0.77238400  0.97109700  1
  H  4174  1  0.86862900  0.79955500  0.98459200  1
  H  4175  1  0.88225100  0.83965100  0.06576290  1
  H  4176  1  0.83997900  0.83827500  0.02197990  1
  H  4177  1  0.83847100  0.88192900  0.06437490  1
  H  4178  1  0.80013800  0.87214800  0.99659200  1
  H  4179  1  0.91952300  0.86839000  0.10468800  1
  H  4180  1  0.93286500  0.88487300  0.13194200  1
  H  4181  1  0.88578100  0.92380700  0.13135100  1
  H  4182  1  0.87249200  0.90736300  0.10420800  1
  H  4183  1  0.77313900  0.88555100  0.98000200  1
  H  4184  1  0.77300200  0.93301400  0.01847790  1
  H  4185  1  0.80010400  0.91955500  0.03511390  1
  H  4186  1  0.89655900  0.87462900  0.07482490  1
  H  4187  1  0.85975900  0.87314400  0.09469890  1
  H  4188  1  0.87488900  0.82936700  0.00760091  1
  H  4189  1  0.87361100  0.80938900  0.04435290  1
  H  4190  1  0.82971100  0.89626900  0.02917790  1
  H  4191  1  0.80961400  0.85959200  0.03079390  1
  H  4228  1  0.47992500  0.63148000  0.01861290  1
  H  4229  1  0.49644200  0.60447700  0.03210490  1
  H  4230  1  0.51806600  0.63102700  0.97089200  1
  H  4231  1  0.53464300  0.60393400  0.98444300  1
  H  4232  1  0.52168300  0.56436500  0.06598090  1
  H  4233  1  0.56394000  0.56576300  0.02218190  1
  H  4234  1  0.56544100  0.52206200  0.06452890  1
  H  4235  1  0.60394700  0.53198600  0.99687800  1
  H  4236  1  0.48419500  0.53515000  0.10455700  1
  H  4237  1  0.47081900  0.51855000  0.13172400  1
  H  4238  1  0.51836300  0.48017500  0.13158500  1
  H  4239  1  0.53168100  0.49672800  0.10451800  1
  H  4240  1  0.63090300  0.51853100  0.98026500  1
  H  4241  1  0.63064600  0.47080200  0.01840690  1
  H  4242  1  0.60359300  0.48432100  0.03507590  1
  H  4243  1  0.50742600  0.52920100  0.07491790  1
  H  4244  1  0.54414600  0.53090100  0.09489590  1
  H  4245  1  0.52878900  0.57456800  0.00791491  1
  H  4246  1  0.53046700  0.59470200  0.04457490  1
  H  4247  1  0.57415800  0.50777800  0.02925990  1
  H  4248  1  0.59432200  0.54440600  0.03101790  1
  H  4285  1  0.92369300  0.63155500  0.38523800  1
  H  4286  1  0.90729700  0.60446000  0.37178400  1
  H  4287  1  0.88529200  0.63126600  0.43275400  1
  H  4288  1  0.86883500  0.60407800  0.41924000  1
  H  4289  1  0.88224400  0.56416100  0.33792500  1
  H  4290  1  0.83992400  0.56554900  0.38166200  1
  H  4291  1  0.83867300  0.52167200  0.33948800  1
  H  4292  1  0.80044900  0.53129400  0.40735800  1
  H  4293  1  0.91963900  0.53534400  0.29911600  1
  H  4294  1  0.93296400  0.51885500  0.27185600  1
  H  4295  1  0.88605100  0.47971900  0.27269300  1
  H  4296  1  0.87277600  0.49617300  0.29984100  1
  H  4297  1  0.77340800  0.51788800  0.42388500  1
  H  4298  1  0.77284000  0.47085100  0.38489100  1
  H  4299  1  0.79999200  0.48430300  0.36833300  1
  H  4300  1  0.89671500  0.52912300  0.32905800  1
  H  4301  1  0.85993600  0.53044000  0.30913400  1
  H  4302  1  0.87491000  0.57460300  0.39596500  1
  H  4303  1  0.87335100  0.59452300  0.35919200  1
  H  4304  1  0.82980900  0.50738700  0.37452900  1
  H  4305  1  0.80970500  0.54406100  0.37301300  1
  H  4342  1  0.47941100  0.77302800  0.38584300  1
  H  4343  1  0.49583900  0.80010200  0.37239300  1
  H  4344  1  0.51853500  0.77253900  0.43277000  1
  H  4345  1  0.53500400  0.79972100  0.41926600  1
  H  4346  1  0.52131100  0.83978200  0.33809800  1
  H  4347  1  0.56377800  0.83823700  0.38168800  1
  H  4348  1  0.56525700  0.88189300  0.33929400  1
  H  4349  1  0.60404600  0.87184500  0.40674300  1
  H  4350  1  0.48415200  0.86842500  0.29907500  1
  H  4351  1  0.47082200  0.88490700  0.27181600  1
  H  4352  1  0.51773200  0.92405000  0.27264100  1
  H  4353  1  0.53101600  0.90759500  0.29978300  1
  H  4354  1  0.63106900  0.88524800  0.42329400  1
  H  4355  1  0.63075100  0.93302600  0.38522000  1
  H  4356  1  0.60363300  0.91956200  0.36860900  1
  H  4357  1  0.50706200  0.87473400  0.32903900  1
  H  4358  1  0.54381500  0.87324700  0.30908700  1
  H  4359  1  0.52881600  0.82947800  0.39619800  1
  H  4360  1  0.52998700  0.80946700  0.35946400  1
  H  4361  1  0.57418500  0.89617200  0.37449400  1
  H  4362  1  0.59420600  0.85945900  0.37269600  1
  H  4375  1  0.46317800  0.47914300  0.18771000  1
  H  4384  1  0.42434400  0.44093400  0.21567200  1
  H  4387  1  0.45315100  0.41050400  0.19331800  1
  H  4388  1  0.49315000  0.45009100  0.21041500  1
  H  4389  1  0.43816600  0.45443500  0.12674900  1
  H  4390  1  0.44905500  0.46567400  0.27673100  1
  H  4392  1  0.41644800  0.44646800  0.26392500  1
  H  4394  1  0.48964700  0.45730800  0.26351700  1
  H  4396  1  0.44615600  0.41383700  0.14022700  1
  H  4398  1  0.45772900  0.48685400  0.13936500  1
  H  4405  1  0.94066300  0.92440600  0.18799600  1
  H  4414  1  0.97919100  0.96296200  0.21592700  1
  H  4417  1  0.95047000  0.99313200  0.19309600  1
  H  4418  1  0.91047100  0.95350400  0.21026400  1
  H  4419  1  0.96583100  0.94874700  0.12695000  1
  H  4420  1  0.95422700  0.93833500  0.27692100  1
  H  4422  1  0.98678900  0.95773400  0.26436600  1
  H  4424  1  0.91369100  0.94645600  0.26347400  1
  H  4426  1  0.95770100  0.98942000  0.14008500  1
  H  4428  1  0.94630400  0.91635100  0.13977500  1
  H  4435  1  0.94084400  0.47943100  0.21570200  1
  H  4444  1  0.97913200  0.44065500  0.18780000  1
  H  4447  1  0.95011200  0.41063700  0.21050600  1
  H  4448  1  0.91045500  0.45053100  0.19333900  1
  H  4449  1  0.96571600  0.45484100  0.27675800  1
  H  4450  1  0.95441900  0.46551600  0.12679200  1
  H  4452  1  0.98686400  0.44594900  0.13939000  1
  H  4454  1  0.91381100  0.45744000  0.14025400  1
  H  4456  1  0.95738500  0.41420900  0.26360500  1
  H  4458  1  0.94649400  0.48742700  0.26391100  1
  H  4465  1  0.46290600  0.92429000  0.21562200  1
  H  4474  1  0.42444000  0.96292800  0.18777500  1
  H  4477  1  0.45334800  0.99305400  0.21049900  1
  H  4478  1  0.49316500  0.95336800  0.19327800  1
  H  4479  1  0.43793600  0.94872100  0.27670000  1
  H  4480  1  0.44926000  0.93828700  0.12671300  1
  H  4482  1  0.41669200  0.95754100  0.13948500  1
  H  4484  1  0.48982300  0.94636900  0.14008700  1
  H  4486  1  0.44621600  0.98939100  0.26351500  1
  H  4488  1  0.45725200  0.91621300  0.26380200  1
  H  4495  1  0.18871300  0.46286700  0.47919800  1
  H  4504  1  0.21692300  0.42444200  0.44077000  1
  H  4507  1  0.19455300  0.45333500  0.41050100  1
  H  4508  1  0.21139600  0.49312900  0.45052200  1
  H  4509  1  0.12789400  0.43786400  0.45415300  1
  H  4510  1  0.27780100  0.44912600  0.46598900  1
  H  4512  1  0.26531000  0.41670000  0.44625800  1
  H  4514  1  0.26441100  0.48973900  0.45776100  1
  H  4516  1  0.14151500  0.44620800  0.41360700  1
  H  4518  1  0.14033200  0.45732300  0.48670000  1
  H  4525  1  0.18870800  0.94076300  0.92452800  1
  H  4534  1  0.21707600  0.97895400  0.96311800  1
  H  4537  1  0.19450200  0.95017500  0.99324400  1
  H  4538  1  0.21114000  0.91035100  0.95313100  1
  H  4539  1  0.12794600  0.96593500  0.94953800  1
  H  4540  1  0.27787600  0.95397900  0.93796900  1
  H  4542  1  0.26554800  0.98635900  0.95777300  1
  H  4544  1  0.26426000  0.91341500  0.94595200  1
  H  4546  1  0.14152800  0.95748200  0.99011200  1
  H  4548  1  0.14024000  0.94632300  0.91703900  1
  H  4555  1  0.21477800  0.94096200  0.47936200  1
  H  4564  1  0.18659900  0.97908100  0.44062300  1
  H  4567  1  0.20914200  0.95005700  0.41058100  1
  H  4568  1  0.19229800  0.91047400  0.45076500  1
  H  4569  1  0.27566900  0.96581800  0.45434900  1
  H  4570  1  0.12572300  0.95437300  0.46583700  1
  H  4572  1  0.13811700  0.98669000  0.44593600  1
  H  4574  1  0.13925300  0.91374600  0.45782700  1
  H  4576  1  0.26220900  0.95731000  0.41376900  1
  H  4578  1  0.26305000  0.94661400  0.48701300  1
  H  4585  1  0.21459600  0.46261100  0.92418300  1
  H  4594  1  0.18665900  0.42445900  0.96301300  1
  H  4597  1  0.20943400  0.45345500  0.99300400  1
  H  4598  1  0.19231400  0.49310100  0.95305000  1
  H  4599  1  0.27561700  0.43764700  0.94875100  1
  H  4600  1  0.12566300  0.44925500  0.93816800  1
  H  4602  1  0.13826800  0.41684100  0.95773600  1
  H  4604  1  0.13911500  0.48983000  0.94606900  1
  H  4606  1  0.26238100  0.44624800  0.98943300  1
  H  4608  1  0.26279300  0.45686200  0.91617000  1
  H  4615  1  0.47891900  0.18810900  0.46299100  1
  H  4624  1  0.44075100  0.21632100  0.42429900  1
  H  4627  1  0.41028400  0.19423600  0.45323200  1
  H  4628  1  0.45021000  0.21101800  0.49304800  1
  H  4629  1  0.45365100  0.12726300  0.43828300  1
  H  4630  1  0.46606700  0.27721500  0.44885800  1
  H  4632  1  0.44655000  0.26457300  0.41638000  1
  H  4634  1  0.45780200  0.26407300  0.48949500  1
  H  4636  1  0.41315400  0.14111400  0.44641000  1
  H  4638  1  0.48619200  0.13960400  0.45784700  1
  H  4645  1  0.92437000  0.18849700  0.94088400  1
  H  4654  1  0.96306900  0.21646800  0.97920800  1
  H  4657  1  0.99314900  0.19373500  0.95028400  1
  H  4658  1  0.95321200  0.21084700  0.91055200  1
  H  4659  1  0.94898400  0.12744000  0.96571300  1
  H  4660  1  0.93800900  0.27738900  0.95449800  1
  H  4662  1  0.95766100  0.26490000  0.98689800  1
  H  4664  1  0.94593200  0.26404400  0.91388500  1
  H  4666  1  0.98962900  0.14065500  0.95746100  1
  H  4668  1  0.91646200  0.14017600  0.94626400  1
  H  4675  1  0.47932800  0.21520100  0.94102000  1
  H  4684  1  0.44055600  0.18715400  0.97922300  1
  H  4687  1  0.41053300  0.20977000  0.95017800  1
  H  4688  1  0.45063800  0.19276300  0.91059800  1
  H  4689  1  0.45448100  0.27622000  0.96570100  1
  H  4690  1  0.46582400  0.12627300  0.95460100  1
  H  4692  1  0.44603000  0.13873800  0.98694800  1
  H  4694  1  0.45788100  0.13966200  0.91398700  1
  H  4696  1  0.41387500  0.26284700  0.95729400  1
  H  4698  1  0.48712300  0.26344500  0.94647600  1
  H  4705  1  0.92435200  0.21519000  0.46279800  1
  H  4714  1  0.96290600  0.18740400  0.42422600  1
  H  4717  1  0.99311100  0.20988800  0.45326000  1
  H  4718  1  0.95327400  0.19259000  0.49296100  1
  H  4719  1  0.94899000  0.27631200  0.43816600  1
  H  4720  1  0.93792000  0.12633400  0.44865800  1
  H  4722  1  0.95733300  0.13915300  0.41621600  1
  H  4724  1  0.94597200  0.13943900  0.48932700  1
  H  4726  1  0.98963200  0.26293500  0.44641600  1
  H  4728  1  0.91644300  0.26341600  0.45744100  1
  H  4735  1  0.46311400  0.97930200  0.68767700  1
  H  4744  1  0.42444600  0.94106500  0.71578800  1
  H  4747  1  0.45310500  0.91066900  0.69330500  1
  H  4748  1  0.49322100  0.95027100  0.71023400  1
  H  4749  1  0.43772500  0.95465700  0.62684300  1
  H  4750  1  0.44942500  0.96566500  0.77679600  1
  H  4752  1  0.41679300  0.94638300  0.76411100  1
  H  4754  1  0.48999500  0.95725200  0.76331600  1
  H  4756  1  0.44580900  0.91401800  0.64026300  1
  H  4758  1  0.45740200  0.98702200  0.63932500  1
  H  4765  1  0.94068800  0.42424800  0.68796600  1
  H  4774  1  0.97908000  0.46280300  0.71604100  1
  H  4777  1  0.95052800  0.49295700  0.69309700  1
  H  4778  1  0.91038100  0.45334500  0.71009900  1
  H  4779  1  0.96624900  0.44850900  0.62705100  1
  H  4780  1  0.95383500  0.43833600  0.77698700  1
  H  4782  1  0.98642200  0.45780700  0.76455900  1
  H  4784  1  0.91334400  0.44651700  0.76329200  1
  H  4786  1  0.95806000  0.48923300  0.64013000  1
  H  4788  1  0.94659100  0.41617600  0.63974700  1
  H  4795  1  0.94091800  0.97955700  0.71570400  1
  H  4804  1  0.97904400  0.94076000  0.68765800  1
  H  4807  1  0.95019100  0.91077100  0.71050500  1
  H  4808  1  0.91039700  0.95067100  0.69350000  1
  H  4809  1  0.96619000  0.95505800  0.77663200  1
  H  4810  1  0.95404700  0.96546600  0.62670100  1
  H  4812  1  0.98651500  0.94582200  0.63917200  1
  H  4814  1  0.91347100  0.95734400  0.64043200  1
  H  4816  1  0.95777600  0.91437200  0.76355200  1
  H  4818  1  0.94683200  0.98756700  0.76392500  1
  H  4825  1  0.46284000  0.42413000  0.71565800  1
  H  4834  1  0.42455000  0.46279500  0.68765800  1
  H  4837  1  0.45331500  0.49288900  0.71051400  1
  H  4838  1  0.49324300  0.45319000  0.69346900  1
  H  4839  1  0.43747800  0.44850300  0.77660100  1
  H  4840  1  0.44965600  0.43830200  0.62665100  1
  H  4842  1  0.41706500  0.45763300  0.63929000  1
  H  4844  1  0.49018000  0.44643200  0.64029200  1
  H  4846  1  0.44587100  0.48921300  0.76347800  1
  H  4848  1  0.45690600  0.41604400  0.76384400  1
  H  4855  1  0.47891500  0.68701800  0.96311600  1
  H  4864  1  0.44100900  0.71520300  0.92421100  1
  H  4867  1  0.41032800  0.69314200  0.95306400  1
  H  4868  1  0.44995000  0.70994200  0.99304600  1
  H  4869  1  0.45370300  0.62616100  0.93832200  1
  H  4870  1  0.46611300  0.77611800  0.94894700  1
  H  4872  1  0.44694600  0.76340900  0.91627800  1
  H  4874  1  0.45746600  0.76296200  0.98954600  1
  H  4876  1  0.41322400  0.63999900  0.94633900  1
  H  4878  1  0.48619800  0.63848800  0.95797100  1
  H  4885  1  0.92472800  0.68715000  0.44054600  1
  H  4894  1  0.96284800  0.71531400  0.47930200  1
  H  4897  1  0.99335400  0.69286600  0.45062200  1
  H  4898  1  0.95371800  0.70974900  0.41052900  1
  H  4899  1  0.94956800  0.62622700  0.46555500  1
  H  4900  1  0.93781300  0.77617300  0.45440100  1
  H  4902  1  0.95718200  0.76371100  0.48699600  1
  H  4904  1  0.94630000  0.76283300  0.41381100  1
  H  4906  1  0.99014400  0.63973300  0.45763800  1
  H  4908  1  0.91720300  0.63863900  0.44577000  1
  H  4915  1  0.47932400  0.71635800  0.44088000  1
  H  4924  1  0.44082100  0.68832600  0.47929900  1
  H  4927  1  0.41057600  0.71091000  0.45033000  1
  H  4928  1  0.45038200  0.69389800  0.41057900  1
  H  4929  1  0.45452400  0.77737700  0.46566800  1
  H  4930  1  0.46588400  0.62743000  0.45449000  1
  H  4932  1  0.44644300  0.63995400  0.48703700  1
  H  4934  1  0.45754100  0.64084300  0.41391200  1
  H  4936  1  0.41393700  0.76401300  0.45735700  1
  H  4938  1  0.48712300  0.76463000  0.44635700  1
  H  4945  1  0.92443900  0.71635800  0.96285800  1
  H  4954  1  0.96271800  0.68858200  0.92407900  1
  H  4957  1  0.99314700  0.71103400  0.95302800  1
  H  4958  1  0.95360600  0.69373900  0.99290300  1
  H  4959  1  0.94903500  0.77748100  0.93812900  1
  H  4960  1  0.93792300  0.62750200  0.94869800  1
  H  4962  1  0.95698300  0.64037900  0.91606300  1
  H  4964  1  0.94638100  0.64063500  0.98933500  1
  H  4966  1  0.98966400  0.76410100  0.94629000  1
  H  4968  1  0.91654000  0.76462300  0.95750200  1
  H  4975  1  0.68654200  0.46322000  0.97910400  1
  H  4984  1  0.71476600  0.42431300  0.94117200  1
  H  4987  1  0.69246700  0.45288400  0.91055000  1
  H  4988  1  0.70929100  0.49313500  0.95010000  1
  H  4989  1  0.62574000  0.43794200  0.95425100  1
  H  4990  1  0.77565200  0.44923700  0.96610300  1
  H  4992  1  0.76309100  0.41656700  0.94678000  1
  H  4994  1  0.76224700  0.48981000  0.95737300  1
  H  4996  1  0.63936100  0.44579000  0.91369800  1
  H  4998  1  0.63809200  0.45782600  0.98657000  1
  H  5005  1  0.68658600  0.94042900  0.42469500  1
  H  5014  1  0.71493100  0.97909400  0.46281800  1
  H  5017  1  0.69239800  0.95063900  0.49327600  1
  H  5018  1  0.70906100  0.91035200  0.45362700  1
  H  5019  1  0.62581700  0.96587200  0.44944400  1
  H  5020  1  0.77574900  0.95391300  0.43796300  1
  H  5022  1  0.76334800  0.98650700  0.45734600  1
  H  5024  1  0.76212100  0.91335600  0.44641400  1
  H  5026  1  0.63936300  0.95790900  0.49005300  1
  H  5028  1  0.63805900  0.94585200  0.41719200  1
  H  5035  1  0.71699400  0.94069100  0.97920000  1
  H  5044  1  0.68880900  0.97925500  0.94091300  1
  H  5047  1  0.71130200  0.95052800  0.91054600  1
  H  5048  1  0.69446600  0.91051100  0.95027500  1
  H  5049  1  0.77787100  0.96581800  0.95438600  1
  H  5050  1  0.62793300  0.95431000  0.96586300  1
  H  5052  1  0.64039500  0.98687200  0.94636900  1
  H  5054  1  0.64148200  0.91371900  0.95737500  1
  H  5056  1  0.76443800  0.95776300  0.91380100  1
  H  5058  1  0.76534100  0.94621600  0.98683300  1
  H  5065  1  0.71682300  0.46296700  0.42430900  1
  H  5074  1  0.68886100  0.42433500  0.46263400  1
  H  5077  1  0.71152700  0.45303300  0.49299000  1
  H  5078  1  0.69444100  0.49311700  0.45347100  1
  H  5079  1  0.77781000  0.43773600  0.44873300  1
  H  5080  1  0.62785600  0.44933100  0.43805000  1
  H  5082  1  0.64052900  0.41670200  0.45720300  1
  H  5084  1  0.64132300  0.48990300  0.44644800  1
  H  5086  1  0.76454600  0.44587400  0.48941700  1
  H  5088  1  0.76509000  0.45735300  0.41635500  1
  C  1  1  0.06796800  0.20385500  0.20828700  1
  C  2  1  0.07608100  0.20977700  0.19046200  1
  C  3  1  0.09209200  0.20010900  0.18251400  1
  C  4  1  0.10027500  0.18394700  0.19197700  1
  C  5  1  0.09212300  0.17786200  0.20969300  1
  C  6  1  0.07618400  0.18765700  0.21770000  1
  C  7  1  0.11656500  0.17473100  0.18472100  1
  C  8  1  0.11825100  0.16871800  0.16630600  1
  C  9  1  0.13480800  0.16012800  0.15894000  1
  C  10  1  0.14280300  0.14335900  0.16745800  1
  C  11  1  0.15953600  0.13456700  0.15971300  1
  C  12  1  0.16806900  0.14257500  0.14295800  1
  C  13  1  0.16033900  0.15932300  0.13418000  1
  C  14  1  0.14358800  0.16786100  0.14219500  1
  C  15  1  0.16890600  0.16666000  0.11759600  1
  C  16  1  0.17489300  0.18507700  0.11583800  1
  C  17  1  0.18406200  0.19227900  0.09949900  1
  C  18  1  0.17789200  0.20991300  0.09123500  1
  C  19  1  0.20025500  0.18283400  0.09135500  1
  C  20  1  0.20983600  0.19068800  0.07524600  1
  C  21  1  0.20381900  0.20842500  0.06700900  1
  C  22  1  0.18761100  0.21783800  0.07520800  1
  C  23  1  0.16687100  0.11799200  0.16829000  1
  C  24  1  0.18525500  0.11629800  0.17439100  1
  C  25  1  0.19243400  0.10000400  0.18365600  1
  C  26  1  0.18292000  0.09191500  0.19983400  1
  C  27  1  0.21011200  0.09174600  0.17760900  1
  C  28  1  0.21801400  0.07577300  0.18743600  1
  C  29  1  0.20853400  0.06762900  0.20363400  1
  C  30  1  0.19076000  0.07586900  0.20953100  1
  C  52  1  0.21687900  0.05222700  0.21447000  1
  C  53  1  0.21453300  0.21681300  0.05154300  1
  C  54  1  0.05262200  0.21467500  0.21675600  1
  C  58  1  0.93121300  0.79524700  0.20806100  1
  C  59  1  0.92324500  0.78946900  0.19012500  1
  C  60  1  0.90725000  0.79915700  0.18216700  1
  C  61  1  0.89897300  0.81522700  0.19170700  1
  C  62  1  0.90700500  0.82118400  0.20952100  1
  C  63  1  0.92290800  0.81135300  0.21755300  1
  C  64  1  0.88267900  0.82443800  0.18445200  1
  C  65  1  0.88101500  0.83052600  0.16606000  1
  C  66  1  0.86445400  0.83911300  0.15870500  1
  C  67  1  0.85643600  0.85585200  0.16726100  1
  C  68  1  0.83969800  0.86464500  0.15952800  1
  C  69  1  0.83118800  0.85667400  0.14274400  1
  C  70  1  0.83894100  0.83995500  0.13392900  1
  C  71  1  0.85569500  0.83141500  0.14193400  1
  C  72  1  0.83040000  0.83264900  0.11732100  1
  C  73  1  0.82434400  0.81425400  0.11556600  1
  C  74  1  0.81516400  0.80706000  0.09922600  1
  C  75  1  0.82117700  0.78931000  0.09109400  1
  C  76  1  0.79908900  0.81661300  0.09097400  1
  C  77  1  0.78945800  0.80874000  0.07490300  1
  C  78  1  0.79530200  0.79087500  0.06682300  1
  C  79  1  0.81140400  0.78136200  0.07511200  1
  C  80  1  0.83235000  0.88119800  0.16813900  1
  C  81  1  0.81395500  0.88288300  0.17420800  1
  C  82  1  0.80676200  0.89916500  0.18348100  1
  C  83  1  0.81623300  0.90721300  0.19970500  1
  C  84  1  0.78911600  0.90745700  0.17738700  1
  C  85  1  0.78120300  0.92342300  0.18721500  1
  C  86  1  0.79063900  0.93152700  0.20345800  1
  C  87  1  0.80838100  0.92325400  0.20940500  1
  C  109  1  0.78225600  0.94691400  0.21428600  1
  C  110  1  0.78448400  0.78244600  0.05145300  1
  C  111  1  0.94647600  0.78435200  0.21657700  1
  C  115  1  0.93119200  0.20368600  0.79099800  1
  C  116  1  0.92316000  0.20952100  0.80888600  1
  C  117  1  0.90714500  0.19984800  0.81682400  1
  C  118  1  0.89890800  0.18374300  0.80731200  1
  C  119  1  0.90699000  0.17774000  0.78953700  1
  C  120  1  0.92291700  0.18755100  0.78152500  1
  C  121  1  0.88262000  0.17452100  0.81456700  1
  C  122  1  0.88095900  0.16845100  0.83296600  1
  C  123  1  0.86441500  0.15983300  0.84032500  1
  C  124  1  0.85645000  0.14305600  0.83179800  1
  C  125  1  0.83973600  0.13422800  0.83954200  1
  C  126  1  0.83119200  0.14220900  0.85630400  1
  C  127  1  0.83889000  0.15896900  0.86509000  1
  C  128  1  0.85562600  0.16754000  0.85707700  1
  C  129  1  0.83032200  0.16627800  0.88168600  1
  C  130  1  0.82427900  0.18467600  0.88343900  1
  C  131  1  0.81509400  0.19187100  0.89977500  1
  C  132  1  0.82115300  0.20958600  0.90794900  1
  C  133  1  0.79897300  0.18235700  0.90798200  1
  C  134  1  0.78934000  0.19023500  0.92405000  1
  C  135  1  0.79522800  0.20806500  0.93217100  1
  C  136  1  0.81138000  0.21753800  0.92393000  1
  C  137  1  0.83243700  0.11763800  0.83096500  1
  C  138  1  0.81406700  0.11592100  0.82482700  1
  C  139  1  0.80690300  0.09961300  0.81556900  1
  C  140  1  0.81650400  0.09142500  0.79948900  1
  C  141  1  0.78912900  0.09146700  0.82149100  1
  C  142  1  0.78121100  0.07552300  0.81163200  1
  C  143  1  0.79077200  0.06729800  0.79552500  1
  C  144  1  0.80865300  0.07540100  0.78976300  1
  C  166  1  0.78236900  0.05197500  0.78461900  1
  C  167  1  0.78440700  0.21650800  0.94753300  1
  C  168  1  0.94650500  0.21452600  0.78250200  1
  C  172  1  0.06769500  0.79514600  0.79094600  1
  C  173  1  0.07558000  0.78947900  0.80895200  1
  C  174  1  0.09156800  0.79918600  0.81690000  1
  C  175  1  0.09992100  0.81516900  0.80728100  1
  C  176  1  0.09196800  0.82101800  0.78939500  1
  C  177  1  0.07607300  0.81116500  0.78137200  1
  C  178  1  0.11620000  0.82440900  0.81454100  1
  C  179  1  0.11783800  0.83054700  0.83291900  1
  C  180  1  0.13439800  0.83913700  0.84027300  1
  C  181  1  0.14237100  0.85591200  0.83174900  1
  C  182  1  0.15910600  0.86471300  0.83947700  1
  C  183  1  0.16766400  0.85670400  0.85622000  1
  C  184  1  0.15996200  0.83994400  0.86499800  1
  C  185  1  0.14320600  0.83139900  0.85700100  1
  C  186  1  0.16855600  0.83260900  0.88156600  1
  C  187  1  0.17463400  0.81421800  0.88327500  1
  C  188  1  0.18385400  0.80701300  0.89958700  1
  C  189  1  0.17782800  0.78928500  0.90775600  1
  C  190  1  0.19997000  0.81654300  0.90778400  1
  C  191  1  0.20962200  0.80867300  0.92384300  1
  C  192  1  0.20375100  0.79084300  0.93198200  1
  C  193  1  0.18761600  0.78134600  0.92373300  1
  C  194  1  0.16642300  0.88129900  0.83090400  1
  C  195  1  0.18479200  0.88298700  0.82475400  1
  C  196  1  0.19198000  0.89928600  0.81550300  1
  C  197  1  0.18239900  0.90748700  0.79941900  1
  C  198  1  0.20975800  0.90741100  0.82143900  1
  C  199  1  0.21770300  0.92334500  0.81158400  1
  C  200  1  0.20816400  0.93158300  0.79547100  1
  C  201  1  0.19027900  0.92350100  0.78969800  1
  C  223  1  0.21659600  0.94689500  0.78457700  1
  C  224  1  0.21456400  0.78243800  0.94736500  1
  C  225  1  0.05242400  0.78424200  0.78246000  1
  C  229  1  0.20240000  0.06678100  0.79078700  1
  C  230  1  0.20884200  0.07542000  0.80817700  1
  C  231  1  0.19934300  0.09160500  0.81596800  1
  C  232  1  0.18283800  0.09941400  0.80679600  1
  C  233  1  0.17624400  0.09076300  0.78951100  1
  C  234  1  0.18587200  0.07465400  0.78165200  1
  C  235  1  0.17368700  0.11574600  0.81398500  1
  C  236  1  0.16775300  0.11745500  0.83241900  1
  C  237  1  0.15920600  0.13401800  0.83979800  1
  C  238  1  0.14246000  0.14207200  0.83129300  1
  C  239  1  0.13372700  0.15882300  0.83906200  1
  C  240  1  0.14176400  0.16730900  0.85582600  1
  C  241  1  0.15849500  0.15952300  0.86457700  1
  C  242  1  0.16697600  0.14275400  0.85654400  1
  C  243  1  0.16589400  0.16807500  0.88113000  1
  C  244  1  0.18436300  0.17389700  0.88285100  1
  C  245  1  0.19161000  0.18300800  0.89917800  1
  C  246  1  0.20888900  0.17634500  0.90778700  1
  C  247  1  0.18253000  0.19955800  0.90700200  1
  C  248  1  0.19041300  0.20904000  0.92315200  1
  C  249  1  0.20780500  0.20253400  0.93173900  1
  C  250  1  0.21683900  0.18595400  0.92386200  1
  C  251  1  0.11716300  0.16621200  0.83052300  1
  C  252  1  0.11543900  0.18466300  0.82464600  1
  C  253  1  0.09908800  0.19188900  0.81555300  1
  C  254  1  0.09118200  0.18273000  0.79908800  1
  C  255  1  0.09050700  0.20920000  0.82217600  1
  C  256  1  0.07436500  0.21708600  0.81262500  1
  C  257  1  0.06638400  0.20795400  0.79614900  1
  C  258  1  0.07497300  0.19055600  0.78965900  1
  C  280  1  0.05078900  0.21631000  0.78562400  1
  C  281  1  0.21626400  0.21313700  0.94722400  1
  C  282  1  0.21301400  0.05123500  0.78244700  1
  C  286  1  0.79664800  0.93230600  0.79090800  1
  C  287  1  0.79022600  0.92370500  0.80832500  1
  C  288  1  0.79972600  0.90752800  0.81613100  1
  C  289  1  0.81619500  0.89967100  0.80693300  1
  C  290  1  0.82276000  0.90828000  0.78961500  1
  C  291  1  0.81313800  0.92439000  0.78174900  1
  C  292  1  0.82533800  0.88333400  0.81412700  1
  C  293  1  0.83125600  0.88160800  0.83256400  1
  C  294  1  0.83979200  0.86503700  0.83994000  1
  C  295  1  0.85655000  0.85699200  0.83144900  1
  C  296  1  0.86529400  0.84025200  0.83922800  1
  C  297  1  0.85725100  0.83176700  0.85599200  1
  C  298  1  0.84050300  0.83954100  0.86472600  1
  C  299  1  0.83201200  0.85629700  0.85668000  1
  C  300  1  0.83311200  0.83099800  0.88128700  1
  C  301  1  0.81466300  0.82510900  0.88299700  1
  C  302  1  0.80742200  0.81599700  0.89933100  1
  C  303  1  0.79004500  0.82254400  0.90783700  1
  C  304  1  0.81660500  0.79955600  0.90726200  1
  C  305  1  0.80872700  0.79006600  0.92341100  1
  C  306  1  0.79125100  0.79646700  0.93190400  1
  C  307  1  0.78210700  0.81293300  0.92391700  1
  C  308  1  0.88188100  0.83288500  0.83070800  1
  C  309  1  0.88370400  0.81440000  0.82496300  1
  C  310  1  0.90009300  0.80719200  0.81592600  1
  C  311  1  0.90793600  0.81625100  0.79937400  1
  C  312  1  0.90877700  0.78999000  0.82269300  1
  C  313  1  0.92494200  0.78209700  0.81318600  1
  C  314  1  0.93284100  0.79111300  0.79660600  1
  C  315  1  0.92417400  0.80842800  0.78999300  1
  C  337  1  0.94842800  0.78270000  0.78611100  1
  C  338  1  0.78279800  0.78586700  0.94739600  1
  C  339  1  0.78603700  0.94783800  0.78253400  1
  C  343  1  0.20212400  0.93221900  0.20809600  1
  C  344  1  0.20876600  0.92340400  0.19086800  1
  C  345  1  0.19930900  0.90718800  0.18308900  1
  C  346  1  0.18266600  0.89951000  0.19211900  1
  C  347  1  0.17587600  0.90833000  0.20924100  1
  C  348  1  0.18545300  0.92447800  0.21708300  1
  C  349  1  0.17354900  0.88315600  0.18494500  1
  C  350  1  0.16774400  0.88137000  0.16647800  1
  C  351  1  0.15922200  0.86478300  0.15911700  1
  C  352  1  0.14245800  0.85673900  0.16759600  1
  C  353  1  0.13374400  0.83997300  0.15983900  1
  C  354  1  0.14181900  0.83146200  0.14310600  1
  C  355  1  0.15856700  0.83923900  0.13437900  1
  C  356  1  0.16703300  0.85601800  0.14240400  1
  C  357  1  0.16599400  0.83067000  0.11784700  1
  C  358  1  0.18444800  0.82478800  0.11618400  1
  C  359  1  0.19172100  0.81566900  0.09987100  1
  C  360  1  0.20906700  0.82226400  0.09134300  1
  C  361  1  0.18257100  0.79920200  0.09195500  1
  C  362  1  0.19046200  0.78972300  0.07580700  1
  C  363  1  0.20790600  0.79617700  0.06728400  1
  C  364  1  0.21701200  0.81267100  0.07525600  1
  C  365  1  0.11716800  0.83259300  0.16836800  1
  C  366  1  0.11539200  0.81412400  0.17417600  1
  C  367  1  0.09901500  0.80690800  0.18322700  1
  C  368  1  0.09116700  0.81598800  0.19976600  1
  C  369  1  0.09034100  0.78969400  0.17648000  1
  C  370  1  0.07417400  0.78181200  0.18599200  1
  C  371  1  0.06626500  0.79084900  0.20255600  1
  C  372  1  0.07493700  0.80816300  0.20916000  1
  C  394  1  0.05065500  0.78247000  0.21304500  1
  C  395  1  0.21633000  0.78560700  0.05176000  1
  C  396  1  0.21266700  0.94780600  0.21645100  1
  C  400  1  0.79643700  0.06692000  0.20814100  1
  C  401  1  0.79001800  0.07553800  0.19073100  1
  C  402  1  0.79952800  0.09171200  0.18293000  1
  C  403  1  0.81601000  0.09954500  0.19212600  1
  C  404  1  0.82256800  0.09092800  0.20944100  1
  C  405  1  0.81293400  0.07482200  0.21730300  1
  C  406  1  0.82517900  0.11586100  0.18492100  1
  C  407  1  0.83111000  0.11755100  0.16648400  1
  C  408  1  0.83966200  0.13410400  0.15909200  1
  C  409  1  0.85645600  0.14211400  0.16754400  1
  C  410  1  0.86520500  0.15884600  0.15975200  1
  C  411  1  0.85712400  0.16736200  0.14302300  1
  C  412  1  0.84033800  0.15962400  0.13433100  1
  C  413  1  0.83184800  0.14287000  0.14238200  1
  C  414  1  0.83289800  0.16820500  0.11781200  1
  C  415  1  0.81444200  0.17409200  0.11617100  1
  C  416  1  0.80715300  0.18322000  0.09987000  1
  C  417  1  0.78981400  0.17660800  0.09133900  1
  C  418  1  0.81627300  0.19971400  0.09197500  1
  C  419  1  0.80837100  0.20919000  0.07583100  1
  C  420  1  0.79092400  0.20273300  0.06731800  1
  C  421  1  0.78184700  0.18621300  0.07527000  1
  C  422  1  0.88181200  0.16619400  0.16825100  1
  C  423  1  0.88364800  0.18467100  0.17401700  1
  C  424  1  0.90004200  0.19185600  0.18306100  1
  C  425  1  0.90786500  0.18278000  0.19961300  1
  C  426  1  0.90874600  0.20905300  0.17630500  1
  C  427  1  0.92491600  0.21692300  0.18582600  1
  C  428  1  0.93279600  0.20789100  0.20240500  1
  C  429  1  0.92410200  0.19058700  0.20901100  1
  C  451  1  0.94838600  0.21627400  0.21292200  1
  C  452  1  0.78247700  0.21331400  0.05180900  1
  C  453  1  0.78584500  0.05135700  0.21647200  1
  C  457  1  0.06803000  0.70216500  0.70766500  1
  C  458  1  0.07667600  0.70865500  0.69029500  1
  C  459  1  0.09279800  0.69911300  0.68241700  1
  C  460  1  0.10056700  0.68254000  0.69150400  1
  C  461  1  0.09188600  0.67588100  0.70875000  1
  C  462  1  0.07582400  0.68553300  0.71667800  1
  C  463  1  0.11694300  0.67343300  0.68434100  1
  C  464  1  0.11884700  0.66771100  0.66585800  1
  C  465  1  0.13547900  0.65920200  0.65856400  1
  C  466  1  0.14348200  0.64242200  0.66705400  1
  C  467  1  0.16030700  0.63373700  0.65939100  1
  C  468  1  0.16893100  0.64186200  0.64273900  1
  C  469  1  0.16118900  0.65861600  0.63398400  1
  C  470  1  0.14434500  0.66704400  0.64191800  1
  C  471  1  0.16981200  0.66606300  0.61748300  1
  C  472  1  0.17566000  0.68453300  0.61581600  1
  C  473  1  0.18477200  0.69188300  0.59951400  1
  C  474  1  0.17845600  0.70950500  0.59133600  1
  C  475  1  0.20100800  0.68258100  0.59129500  1
  C  476  1  0.21048600  0.69055900  0.57518700  1
  C  477  1  0.20431800  0.70828100  0.56703500  1
  C  478  1  0.18807600  0.71756000  0.57531500  1
  C  479  1  0.16763400  0.61715000  0.66794900  1
  C  480  1  0.18597300  0.61548200  0.67419000  1
  C  481  1  0.19308800  0.59917700  0.68347800  1
  C  482  1  0.18349800  0.59112600  0.69963000  1
  C  483  1  0.21074800  0.59085000  0.67747400  1
  C  484  1  0.21854900  0.57483100  0.68730800  1
  C  485  1  0.20898500  0.56671100  0.70346900  1
  C  486  1  0.19123800  0.57503600  0.70933400  1
  C  508  1  0.21721000  0.55124400  0.71430200  1
  C  509  1  0.21491200  0.71679000  0.55155900  1
  C  510  1  0.05258800  0.71284400  0.71613100  1
  C  514  1  0.93071300  0.29653700  0.70779800  1
  C  515  1  0.92214600  0.29014200  0.69035200  1
  C  516  1  0.90605700  0.29972200  0.68246100  1
  C  517  1  0.89826600  0.31626400  0.69158200  1
  C  518  1  0.90686400  0.32282600  0.70890700  1
  C  519  1  0.92288100  0.31312200  0.71686300  1
  C  520  1  0.88195500  0.32543800  0.68436300  1
  C  521  1  0.88019200  0.33125700  0.66589700  1
  C  522  1  0.86363100  0.33983700  0.65853000  1
  C  523  1  0.85564100  0.35662600  0.66701100  1
  C  524  1  0.83889200  0.36538700  0.65927000  1
  C  525  1  0.83033500  0.35733200  0.64255000  1
  C  526  1  0.83806500  0.34056500  0.63380700  1
  C  527  1  0.85483400  0.33206100  0.64181700  1
  C  528  1  0.82950500  0.33316900  0.61724800  1
  C  529  1  0.82355000  0.31473500  0.61556600  1
  C  530  1  0.81446100  0.30741400  0.59923600  1
  C  531  1  0.82060200  0.28965800  0.59121300  1
  C  532  1  0.79837800  0.31685300  0.59087000  1
  C  533  1  0.78886300  0.30886000  0.57478900  1
  C  534  1  0.79483800  0.29099100  0.56681900  1
  C  535  1  0.81094400  0.28158900  0.57522400  1
  C  536  1  0.83158100  0.38198500  0.66781800  1
  C  537  1  0.81322500  0.38369200  0.67399400  1
  C  538  1  0.80611800  0.40000600  0.68327300  1
  C  539  1  0.81566600  0.40801100  0.69947400  1
  C  540  1  0.78850500  0.40838800  0.67720800  1
  C  541  1  0.78070800  0.42441400  0.68703200  1
  C  542  1  0.79023000  0.43248700  0.70324100  1
  C  543  1  0.80793000  0.42410900  0.70916800  1
  C  565  1  0.78197600  0.44795100  0.71405900  1
  C  566  1  0.78414000  0.28243800  0.55144100  1
  C  567  1  0.94613700  0.28582900  0.71625600  1
  C  571  1  0.93084200  0.70228400  0.29145900  1
  C  572  1  0.92227400  0.70863300  0.30891900  1
  C  573  1  0.90618200  0.69903200  0.31678500  1
  C  574  1  0.89839500  0.68250800  0.30762300  1
  C  575  1  0.90700200  0.67599000  0.29028400  1
  C  576  1  0.92301700  0.68571700  0.28235500  1
  C  577  1  0.88207100  0.67332400  0.31480500  1
  C  578  1  0.88027000  0.66748700  0.33326200  1
  C  579  1  0.86368000  0.65893100  0.34059100  1
  C  580  1  0.85569700  0.64214100  0.33210400  1
  C  581  1  0.83891900  0.63340200  0.33980800  1
  C  582  1  0.83032100  0.64148400  0.35649500  1
  C  583  1  0.83804000  0.65825400  0.36524200  1
  C  584  1  0.85484000  0.66673400  0.35727000  1
  C  585  1  0.82944300  0.66566700  0.38177300  1
  C  586  1  0.82352400  0.68411300  0.38344400  1
  C  587  1  0.81441300  0.69144600  0.39975500  1
  C  588  1  0.82060800  0.70916100  0.40783000  1
  C  589  1  0.79826400  0.68206200  0.40805400  1
  C  590  1  0.78873600  0.69006300  0.42412200  1
  C  591  1  0.79476600  0.70789000  0.43214700  1
  C  592  1  0.81093800  0.71723800  0.42380900  1
  C  593  1  0.83161900  0.61679700  0.33126700  1
  C  594  1  0.81328700  0.61511400  0.32500600  1
  C  595  1  0.80617400  0.59879700  0.31572800  1
  C  596  1  0.81585000  0.59063200  0.29968200  1
  C  597  1  0.78841300  0.59059400  0.32160900  1
  C  598  1  0.78059000  0.57460000  0.31175300  1
  C  599  1  0.79023900  0.56638100  0.29569400  1
  C  600  1  0.80809200  0.57456100  0.28996200  1
  C  622  1  0.78196100  0.55097400  0.28481200  1
  C  623  1  0.78406100  0.71645600  0.44751400  1
  C  624  1  0.94624900  0.71302600  0.28301700  1
  C  628  1  0.06801700  0.29666200  0.29135600  1
  C  629  1  0.07654800  0.29032400  0.30884000  1
  C  630  1  0.09265900  0.29989600  0.31670100  1
  C  631  1  0.10050400  0.31637700  0.30751100  1
  C  632  1  0.09193400  0.32288400  0.29015100  1
  C  633  1  0.07590000  0.31318400  0.28222300  1
  C  634  1  0.11683600  0.32554400  0.31470200  1
  C  635  1  0.11863800  0.33138200  0.33315900  1
  C  636  1  0.13522900  0.33993700  0.34048600  1
  C  637  1  0.14318300  0.35675100  0.33201800  1
  C  638  1  0.15995800  0.36549700  0.33972100  1
  C  639  1  0.16858100  0.35739700  0.35638600  1
  C  640  1  0.16089100  0.34060200  0.36511100  1
  C  641  1  0.14409400  0.33211400  0.35714100  1
  C  642  1  0.16951600  0.33317500  0.38162100  1
  C  643  1  0.17547400  0.31473800  0.38325700  1
  C  644  1  0.18460400  0.30740000  0.39955800  1
  C  645  1  0.17843400  0.28967500  0.40762600  1
  C  646  1  0.20073700  0.31680500  0.40786300  1
  C  647  1  0.21026800  0.30881500  0.42393400  1
  C  648  1  0.20425000  0.29098800  0.43197100  1
  C  649  1  0.18810200  0.28161300  0.42361200  1
  C  650  1  0.16724100  0.38212000  0.33119500  1
  C  651  1  0.18557000  0.38382000  0.32493100  1
  C  652  1  0.19267500  0.40014500  0.31566600  1
  C  653  1  0.18301400  0.40830600  0.29960900  1
  C  654  1  0.21042700  0.40835300  0.32156500  1
  C  655  1  0.21826300  0.42434100  0.31170700  1
  C  656  1  0.20863500  0.43255000  0.29563200  1
  C  657  1  0.19078500  0.42437100  0.28988600  1
  C  679  1  0.21694400  0.44793300  0.28474200  1
  C  680  1  0.21493400  0.28245900  0.44736800  1
  C  681  1  0.05257400  0.28596800  0.28291500  1
  C  685  1  0.20219700  0.56774700  0.29082700  1
  C  686  1  0.20845300  0.57633600  0.30831200  1
  C  687  1  0.19880900  0.59243600  0.31610300  1
  C  688  1  0.18233800  0.60020900  0.30683600  1
  C  689  1  0.17592000  0.59159600  0.28946700  1
  C  690  1  0.18569100  0.57557000  0.28161200  1
  C  691  1  0.17309500  0.61651000  0.31398700  1
  C  692  1  0.16707600  0.61821800  0.33239500  1
  C  693  1  0.15852100  0.63479700  0.33973600  1
  C  694  1  0.14179100  0.64285000  0.33119900  1
  C  695  1  0.13307600  0.65963400  0.33891800  1
  C  696  1  0.14112200  0.66816700  0.35565400  1
  C  697  1  0.15783700  0.66038100  0.36444200  1
  C  698  1  0.16628800  0.64357000  0.35646300  1
  C  699  1  0.16523800  0.66894900  0.38099400  1
  C  700  1  0.18375700  0.67458800  0.38279900  1
  C  701  1  0.19105200  0.68360800  0.39916200  1
  C  702  1  0.20830700  0.67682800  0.40773500  1
  C  703  1  0.18206900  0.70017800  0.40705700  1
  C  704  1  0.19002300  0.70956600  0.42322900  1
  C  705  1  0.20739300  0.70294400  0.43177400  1
  C  706  1  0.21632700  0.68634300  0.42383200  1
  C  707  1  0.11651600  0.66700700  0.33035500  1
  C  708  1  0.11488700  0.68537700  0.32420000  1
  C  709  1  0.09858200  0.69258100  0.31498200  1
  C  710  1  0.09041100  0.68304700  0.29885600  1
  C  711  1  0.09035700  0.71026400  0.32106000  1
  C  712  1  0.07432400  0.71814800  0.31132000  1
  C  713  1  0.06608500  0.70863500  0.29519100  1
  C  714  1  0.07430600  0.69086800  0.28924600  1
  C  736  1  0.05061500  0.71695400  0.28444700  1
  C  737  1  0.21593300  0.71345900  0.44727900  1
  C  738  1  0.21296800  0.55230500  0.28248600  1
  C  742  1  0.79715400  0.43149200  0.29111400  1
  C  743  1  0.79081900  0.42285200  0.30854300  1
  C  744  1  0.80045500  0.40675600  0.31635400  1
  C  745  1  0.81697700  0.39901900  0.30714700  1
  C  746  1  0.82347100  0.40768600  0.28983100  1
  C  747  1  0.81371800  0.42371600  0.28196400  1
  C  748  1  0.82619300  0.38269500  0.31428300  1
  C  749  1  0.83210400  0.38090000  0.33271700  1
  C  750  1  0.84063600  0.36429300  0.34002900  1
  C  751  1  0.85738200  0.35625800  0.33150700  1
  C  752  1  0.86607900  0.33945200  0.33919800  1
  C  753  1  0.85800100  0.33087700  0.35589800  1
  C  754  1  0.84127200  0.33864700  0.36467600  1
  C  755  1  0.83283400  0.35547700  0.35672000  1
  C  756  1  0.83385700  0.33005900  0.38121100  1
  C  757  1  0.81534800  0.32437600  0.38298400  1
  C  758  1  0.80803700  0.31534400  0.39933700  1
  C  759  1  0.79069400  0.32202900  0.40781000  1
  C  760  1  0.81709800  0.29886400  0.40732900  1
  C  761  1  0.80913400  0.28946900  0.42349200  1
  C  762  1  0.79168700  0.29600600  0.43194800  1
  C  763  1  0.78266800  0.31251200  0.42390400  1
  C  764  1  0.88265500  0.33210000  0.33064600  1
  C  765  1  0.88428200  0.31375400  0.32441500  1
  C  766  1  0.90059700  0.30656000  0.31520200  1
  C  767  1  0.90888100  0.31619600  0.29919300  1
  C  768  1  0.90870600  0.28877600  0.32114300  1
  C  769  1  0.92471200  0.28088000  0.31136800  1
  C  770  1  0.93304300  0.29048600  0.29534100  1
  C  771  1  0.92497500  0.30837600  0.28956300  1
  C  793  1  0.94844800  0.28212500  0.28453400  1
  C  794  1  0.78314200  0.28550100  0.44745600  1
  C  795  1  0.78638700  0.44690400  0.28270700  1
  C  799  1  0.20194100  0.43129300  0.70804500  1
  C  800  1  0.20840500  0.42252500  0.69072700  1
  C  801  1  0.19881500  0.40638600  0.68294900  1
  C  802  1  0.18220600  0.39874200  0.69207400  1
  C  803  1  0.17558400  0.40752700  0.70927800  1
  C  804  1  0.18529400  0.42359800  0.71711500  1
  C  805  1  0.17300700  0.38240900  0.68494700  1
  C  806  1  0.16711200  0.38061400  0.66650800  1
  C  807  1  0.15858500  0.36400600  0.65919400  1
  C  808  1  0.14185400  0.35595300  0.66773100  1
  C  809  1  0.13316200  0.33914300  0.66004100  1
  C  810  1  0.14123100  0.33058700  0.64332700  1
  C  811  1  0.15794400  0.33837400  0.63453900  1
  C  812  1  0.16637700  0.35520700  0.64249200  1
  C  813  1  0.16535900  0.32979300  0.61800300  1
  C  814  1  0.18386700  0.32410100  0.61624100  1
  C  815  1  0.19117900  0.31507500  0.59988700  1
  C  816  1  0.20849500  0.32179200  0.59138600  1
  C  817  1  0.18212400  0.29858800  0.59190200  1
  C  818  1  0.19008100  0.28920700  0.57572700  1
  C  819  1  0.20749900  0.29577600  0.56724100  1
  C  820  1  0.21650500  0.31229500  0.57527500  1
  C  821  1  0.11661100  0.33176900  0.66862000  1
  C  822  1  0.11495100  0.31337900  0.67471200  1
  C  823  1  0.09863800  0.30618900  0.68391900  1
  C  824  1  0.09059300  0.31562100  0.70016500  1
  C  825  1  0.09025800  0.28863600  0.67767900  1
  C  826  1  0.07419300  0.28077800  0.68738800  1
  C  827  1  0.06608200  0.29018300  0.70364500  1
  C  828  1  0.07445800  0.30782500  0.70974600  1
  C  850  1  0.05056500  0.28186700  0.71433200  1
  C  851  1  0.21600200  0.28529400  0.55169600  1
  C  852  1  0.21263300  0.44678100  0.71640500  1
  C  856  1  0.79672700  0.56791600  0.70804100  1
  C  857  1  0.79050300  0.57649500  0.69054000  1
  C  858  1  0.80016900  0.59258000  0.68274700  1
  C  859  1  0.81662300  0.60036400  0.69203600  1
  C  860  1  0.82299500  0.59177400  0.70943600  1
  C  861  1  0.81320700  0.57575600  0.71728800  1
  C  862  1  0.82589500  0.61664600  0.68487700  1
  C  863  1  0.83190500  0.61834300  0.66646600  1
  C  864  1  0.84046700  0.63491200  0.65911500  1
  C  865  1  0.85725900  0.64290500  0.66758500  1
  C  866  1  0.86598500  0.65967600  0.65984600  1
  C  867  1  0.85787700  0.66826100  0.64316700  1
  C  868  1  0.84109600  0.66053600  0.63445000  1
  C  869  1  0.83263900  0.64373300  0.64244100  1
  C  870  1  0.83364300  0.66914200  0.61794100  1
  C  871  1  0.81513100  0.67483200  0.61621900  1
  C  872  1  0.80778100  0.68386400  0.59988700  1
  C  873  1  0.79047200  0.67712000  0.59139500  1
  C  874  1  0.81679200  0.70038200  0.59191400  1
  C  875  1  0.80881100  0.70975200  0.57574500  1
  C  876  1  0.79138800  0.70316400  0.56727800  1
  C  877  1  0.78242400  0.68661700  0.57530200  1
  C  878  1  0.88259800  0.66699700  0.66834800  1
  C  879  1  0.88428600  0.68534700  0.67455000  1
  C  880  1  0.90063600  0.69251700  0.68372200  1
  C  881  1  0.90895500  0.68286400  0.69970200  1
  C  882  1  0.90873000  0.71030900  0.67778300  1
  C  883  1  0.92476100  0.71819300  0.68753000  1
  C  884  1  0.93313000  0.70856700  0.70352400  1
  C  885  1  0.92506700  0.69067800  0.70930800  1
  C  907  1  0.94854500  0.71692400  0.71432400  1
  C  908  1  0.78285500  0.71364300  0.55174300  1
  C  909  1  0.78597400  0.55245500  0.71636500  1
  C  913  1  0.56616900  0.20393300  0.70881300  1
  C  914  1  0.57441500  0.21000200  0.69110000  1
  C  915  1  0.59051900  0.20043700  0.68322200  1
  C  916  1  0.59866500  0.18423400  0.69264600  1
  C  917  1  0.59041400  0.17802800  0.71027200  1
  C  918  1  0.57438000  0.18772300  0.71821200  1
  C  919  1  0.61495600  0.17504400  0.68537900  1
  C  920  1  0.61656500  0.16898700  0.66697300  1
  C  921  1  0.63309300  0.16041300  0.65953800  1
  C  922  1  0.64117500  0.14368500  0.66805500  1
  C  923  1  0.65785900  0.13489100  0.66021100  1
  C  924  1  0.66624200  0.14285000  0.64335600  1
  C  925  1  0.65843400  0.15956500  0.63459300  1
  C  926  1  0.64173700  0.16811000  0.64270700  1
  C  927  1  0.66692100  0.16687800  0.61796500  1
  C  928  1  0.67288200  0.18529700  0.61617200  1
  C  929  1  0.68206900  0.19240300  0.59982000  1
  C  930  1  0.67554700  0.20968700  0.59111000  1
  C  931  1  0.69858500  0.18318500  0.59209000  1
  C  932  1  0.70817400  0.19093500  0.57593500  1
  C  933  1  0.70180800  0.20832800  0.56724000  1
  C  934  1  0.68525700  0.21749800  0.57502500  1
  C  935  1  0.66530300  0.11835900  0.66877600  1
  C  936  1  0.68383500  0.11659600  0.67438500  1
  C  937  1  0.69117000  0.10026500  0.68342900  1
  C  938  1  0.68222800  0.09239700  0.70003300  1
  C  939  1  0.70842400  0.09170200  0.67663600  1
  C  940  1  0.71648300  0.07563600  0.68616900  1
  C  941  1  0.70759000  0.06771800  0.70280600  1
  C  942  1  0.69022800  0.07626400  0.70944900  1
  C  964  1  0.71615800  0.05223800  0.71333700  1
  C  965  1  0.71250400  0.21664500  0.55173000  1
  C  966  1  0.55067900  0.21461900  0.71718000  1
  C  970  1  0.43301700  0.79517600  0.70849000  1
  C  971  1  0.42488400  0.78921700  0.69069100  1
  C  972  1  0.40877000  0.79877700  0.68282500  1
  C  973  1  0.40053200  0.81489100  0.69232400  1
  C  974  1  0.40870300  0.82100800  0.71001900  1
  C  975  1  0.42472900  0.81130400  0.71796200  1
  C  976  1  0.38420100  0.82404200  0.68509300  1
  C  977  1  0.38252900  0.83011200  0.66666667  1
  C  978  1  0.36595900  0.83865200  0.65931900  1
  C  979  1  0.35789100  0.85537800  0.66785100  1
  C  980  1  0.34116500  0.86414500  0.66006300  1
  C  981  1  0.33273000  0.85616400  0.64324600  1
  C  982  1  0.34052200  0.83944800  0.63447000  1
  C  983  1  0.35725800  0.83092900  0.64252800  1
  C  984  1  0.33199700  0.83212300  0.61786800  1
  C  985  1  0.32598500  0.81371600  0.61612800  1
  C  986  1  0.31675000  0.80660100  0.59980700  1
  C  987  1  0.32321200  0.78928500  0.59111600  1
  C  988  1  0.30025500  0.81585800  0.59207400  1
  C  989  1  0.29064100  0.80812100  0.57593100  1
  C  990  1  0.29695000  0.79070200  0.56725200  1
  C  991  1  0.31347100  0.78148400  0.57504500  1
  C  992  1  0.33374500  0.88068600  0.66863300  1
  C  993  1  0.31523200  0.88245100  0.67430600  1
  C  994  1  0.30792600  0.89878900  0.68335700  1
  C  995  1  0.31692600  0.90667700  0.69992200  1
  C  996  1  0.29064500  0.90734000  0.67661800  1
  C  997  1  0.28261600  0.92341100  0.68616800  1
  C  998  1  0.29156600  0.93134600  0.70276500  1
  C  999  1  0.30895500  0.92281400  0.70935200  1
  C  1021  1  0.28301500  0.94682000  0.71331500  1
  C  1022  1  0.28623300  0.78242100  0.55173700  1
  C  1023  1  0.44844800  0.78443900  0.71689700  1
  C  1027  1  0.43303900  0.20371200  0.29044700  1
  C  1028  1  0.42486100  0.20969700  0.30821900  1
  C  1029  1  0.40871800  0.20016100  0.31605100  1
  C  1030  1  0.40049000  0.18404800  0.30654400  1
  C  1031  1  0.40869300  0.17791100  0.28887200  1
  C  1032  1  0.42475100  0.18759000  0.28096400  1
  C  1033  1  0.38414300  0.17490900  0.31375200  1
  C  1034  1  0.38247100  0.16880000  0.33213600  1
  C  1035  1  0.36589000  0.16027100  0.33950000  1
  C  1036  1  0.35779600  0.14357100  0.33094200  1
  C  1037  1  0.34105700  0.13481900  0.33871500  1
  C  1038  1  0.33263000  0.14279000  0.35554100  1
  C  1039  1  0.34044700  0.15948100  0.36434200  1
  C  1040  1  0.35719900  0.16798500  0.35630000  1
  C  1041  1  0.33192900  0.16679900  0.38095100  1
  C  1042  1  0.32597900  0.18522100  0.38272400  1
  C  1043  1  0.31675900  0.19233500  0.39905200  1
  C  1044  1  0.32328700  0.20960000  0.40779300  1
  C  1045  1  0.30021400  0.18313100  0.40674000  1
  C  1046  1  0.29060800  0.19087600  0.42288700  1
  C  1047  1  0.29698300  0.20824900  0.43161200  1
  C  1048  1  0.31355900  0.21740700  0.42386800  1
  C  1049  1  0.33361600  0.11829600  0.33013000  1
  C  1050  1  0.31510200  0.11655800  0.32445400  1
  C  1051  1  0.30777300  0.10022100  0.31541900  1
  C  1052  1  0.31676000  0.09229800  0.29886500  1
  C  1053  1  0.29048800  0.09169500  0.32217900  1
  C  1054  1  0.28244700  0.07560700  0.31266700  1
  C  1055  1  0.29139000  0.06763200  0.29608600  1
  C  1056  1  0.30878000  0.07614100  0.28947300  1
  C  1078  1  0.28283600  0.05211500  0.28559800  1
  C  1079  1  0.28626900  0.21654800  0.44711800  1
  C  1080  1  0.44851100  0.21440800  0.28206700  1
  C  1084  1  0.56587700  0.79515500  0.29050100  1
  C  1085  1  0.57389600  0.78934900  0.30840400  1
  C  1086  1  0.59000900  0.79892600  0.31625300  1
  C  1087  1  0.59836000  0.81490600  0.30663000  1
  C  1088  1  0.59030100  0.82087500  0.28883300  1
  C  1089  1  0.57427600  0.81115200  0.28090900  1
  C  1090  1  0.61469700  0.82406200  0.31384500  1
  C  1091  1  0.61633600  0.83026700  0.33220000  1
  C  1092  1  0.63292900  0.83877900  0.33955900  1
  C  1093  1  0.64106800  0.85543400  0.33095500  1
  C  1094  1  0.65782400  0.86416800  0.33871200  1
  C  1095  1  0.66622200  0.85622700  0.35556700  1
  C  1096  1  0.65835900  0.83958300  0.36441300  1
  C  1097  1  0.64159300  0.83109200  0.35638500  1
  C  1098  1  0.66686200  0.83229200  0.38104000  1
  C  1099  1  0.67283000  0.81387800  0.38284300  1
  C  1100  1  0.68206500  0.80679100  0.39917800  1
  C  1101  1  0.67561700  0.78948200  0.40788900  1
  C  1102  1  0.69856600  0.81605600  0.40688600  1
  C  1103  1  0.70821100  0.80832500  0.42301500  1
  C  1104  1  0.70191700  0.79090800  0.43171300  1
  C  1105  1  0.68538300  0.78169000  0.42394900  1
  C  1106  1  0.66531600  0.88064300  0.33008100  1
  C  1107  1  0.68382600  0.88229000  0.32437000  1
  C  1108  1  0.69120700  0.89857500  0.31528000  1
  C  1109  1  0.68221800  0.90649600  0.29872600  1
  C  1110  1  0.70853200  0.90705700  0.32199400  1
  C  1111  1  0.71660500  0.92310500  0.31244300  1
  C  1112  1  0.70765300  0.93108700  0.29587000  1
  C  1113  1  0.69022900  0.92261300  0.28929700  1
  C  1135  1  0.71620600  0.94659200  0.28536400  1
  C  1136  1  0.71268800  0.78261800  0.44718200  1
  C  1137  1  0.55045500  0.78438700  0.28212300  1
  C  1141  1  0.70417900  0.06655900  0.29086600  1
  C  1142  1  0.71036600  0.07483300  0.30852600  1
  C  1143  1  0.70085200  0.09095000  0.31644200  1
  C  1144  1  0.68456200  0.09905700  0.30713700  1
  C  1145  1  0.67821700  0.09075400  0.28958400  1
  C  1146  1  0.68787200  0.07472100  0.28159400  1
  C  1147  1  0.67542000  0.11537000  0.31442000  1
  C  1148  1  0.66952200  0.11706600  0.33287000  1
  C  1149  1  0.66089600  0.13358700  0.34027300  1
  C  1150  1  0.64411900  0.14157300  0.33176000  1
  C  1151  1  0.63526900  0.15824900  0.33955700  1
  C  1152  1  0.64321300  0.16671900  0.35637300  1
  C  1153  1  0.65996600  0.15900100  0.36514400  1
  C  1154  1  0.66857800  0.14232000  0.35706700  1
  C  1155  1  0.66725400  0.16755000  0.38175000  1
  C  1156  1  0.68559000  0.17379100  0.38344100  1
  C  1157  1  0.69269100  0.18308500  0.39974600  1
  C  1158  1  0.71038100  0.17712600  0.40804100  1
  C  1159  1  0.68308200  0.19922400  0.40780300  1
  C  1160  1  0.69083900  0.20896700  0.42386100  1
  C  1161  1  0.70863600  0.20317100  0.43212100  1
  C  1162  1  0.71820800  0.18700800  0.42401500  1
  C  1163  1  0.61870800  0.16560500  0.33097100  1
  C  1164  1  0.61695200  0.18406800  0.32513500  1
  C  1165  1  0.60064300  0.19130100  0.31596400  1
  C  1166  1  0.59277400  0.18213300  0.29948400  1
  C  1167  1  0.59212900  0.20869100  0.32246400  1
  C  1168  1  0.57611300  0.21666100  0.31277000  1
  C  1169  1  0.56819400  0.20754100  0.29625600  1
  C  1170  1  0.57668700  0.19004300  0.28991000  1
  C  1192  1  0.55276300  0.21600200  0.28556800  1
  C  1193  1  0.71693600  0.21408800  0.44748500  1
  C  1194  1  0.71484100  0.05109900  0.28241200  1
  C  1198  1  0.29477200  0.93261400  0.29100800  1
  C  1199  1  0.28890400  0.92466300  0.30892000  1
  C  1200  1  0.29846800  0.90859500  0.31687900  1
  C  1201  1  0.31448200  0.90020300  0.30734600  1
  C  1202  1  0.32050700  0.90819400  0.28953500  1
  C  1203  1  0.31080500  0.92418000  0.28150900  1
  C  1204  1  0.32362700  0.88389000  0.31464400  1
  C  1205  1  0.32968500  0.88224700  0.33304800  1
  C  1206  1  0.33828000  0.86570600  0.34044000  1
  C  1207  1  0.35503600  0.85769900  0.33190800  1
  C  1208  1  0.36387500  0.84101100  0.33969400  1
  C  1209  1  0.35593600  0.83255500  0.35652100  1
  C  1210  1  0.33919400  0.84028900  0.36530300  1
  C  1211  1  0.33059400  0.85697900  0.35723500  1
  C  1212  1  0.33190600  0.83174300  0.38190900  1
  C  1213  1  0.31360200  0.82539600  0.38355100  1
  C  1214  1  0.30649400  0.81606300  0.39983900  1
  C  1215  1  0.28866200  0.82182200  0.40797300  1
  C  1216  1  0.31623000  0.80006000  0.40801500  1
  C  1217  1  0.30845100  0.79024900  0.42402100  1
  C  1218  1  0.29051800  0.79585000  0.43212200  1
  C  1219  1  0.28082100  0.81187900  0.42390300  1
  C  1220  1  0.38043200  0.83364600  0.33110000  1
  C  1221  1  0.38224300  0.81514900  0.32539200  1
  C  1222  1  0.39857000  0.80789900  0.31626600  1
  C  1223  1  0.40638800  0.81695400  0.29969800  1
  C  1224  1  0.40716400  0.79060300  0.32291300  1
  C  1225  1  0.42318900  0.78260300  0.31326100  1
  C  1226  1  0.43104000  0.79159500  0.29664500  1
  C  1227  1  0.42248900  0.80901900  0.29017000  1
  C  1249  1  0.44645900  0.78305800  0.28599500  1
  C  1250  1  0.28221000  0.78485900  0.44742900  1
  C  1251  1  0.28401800  0.94798500  0.28251400  1
  C  1255  1  0.70405200  0.93251000  0.70823200  1
  C  1256  1  0.71028000  0.92423800  0.69058600  1
  C  1257  1  0.70080100  0.90810300  0.68266300  1
  C  1258  1  0.68451700  0.89996600  0.69195400  1
  C  1259  1  0.67814000  0.90826200  0.70949900  1
  C  1260  1  0.68775500  0.92431600  0.71749300  1
  C  1261  1  0.67541200  0.88363300  0.68466800  1
  C  1262  1  0.66956800  0.88189900  0.66620500  1
  C  1263  1  0.66098800  0.86535100  0.65880600  1
  C  1264  1  0.64419300  0.85736500  0.66728100  1
  C  1265  1  0.63537800  0.84066900  0.65948600  1
  C  1266  1  0.64337900  0.83218100  0.64270600  1
  C  1267  1  0.66015600  0.83989600  0.63397400  1
  C  1268  1  0.66873100  0.85659600  0.64205100  1
  C  1269  1  0.66748700  0.83133100  0.61739700  1
  C  1270  1  0.68582800  0.82509300  0.61575200  1
  C  1271  1  0.69295700  0.81578200  0.59946700  1
  C  1272  1  0.71060600  0.82179900  0.59113100  1
  C  1273  1  0.68338100  0.79960900  0.59144100  1
  C  1274  1  0.69114000  0.78987800  0.57537900  1
  C  1275  1  0.70888100  0.79575000  0.56704900  1
  C  1276  1  0.71842100  0.81194400  0.57513200  1
  C  1277  1  0.61879600  0.83331700  0.66804000  1
  C  1278  1  0.61698200  0.81483300  0.67379100  1
  C  1279  1  0.60063400  0.80760400  0.68289300  1
  C  1280  1  0.59278800  0.81668900  0.69943100  1
  C  1281  1  0.59204500  0.79030400  0.67625100  1
  C  1282  1  0.57599300  0.78233000  0.68587700  1
  C  1283  1  0.56811400  0.79134900  0.70246500  1
  C  1284  1  0.57667200  0.80876900  0.70894400  1
  C  1306  1  0.55265900  0.78285200  0.71309500  1
  C  1307  1  0.71714900  0.78491100  0.55161000  1
  C  1308  1  0.71465900  0.94799800  0.71670700  1
  C  1312  1  0.29470800  0.06665700  0.70835200  1
  C  1313  1  0.28850300  0.07491400  0.69069100  1
  C  1314  1  0.29800100  0.09103300  0.68275500  1
  C  1315  1  0.31427600  0.09917400  0.69205500  1
  C  1316  1  0.32061800  0.09090800  0.70962600  1
  C  1317  1  0.31098700  0.07486800  0.71763100  1
  C  1318  1  0.32342200  0.11546900  0.68473400  1
  C  1319  1  0.32929900  0.11713000  0.66627200  1
  C  1320  1  0.33794100  0.13362600  0.65883500  1
  C  1321  1  0.35477300  0.14156200  0.66728400  1
  C  1322  1  0.36365400  0.15820200  0.65944300  1
  C  1323  1  0.35567700  0.16668300  0.64264800  1
  C  1324  1  0.33886300  0.15902000  0.63394400  1
  C  1325  1  0.33022500  0.14237200  0.64206200  1
  C  1326  1  0.33154500  0.16758800  0.61736000  1
  C  1327  1  0.31321500  0.17385900  0.61571300  1
  C  1328  1  0.30610300  0.18317800  0.59942700  1
  C  1329  1  0.28846000  0.17717100  0.59107400  1
  C  1330  1  0.31568300  0.19936000  0.59142700  1
  C  1331  1  0.30793800  0.20910600  0.57536400  1
  C  1332  1  0.29018700  0.20326100  0.56703800  1
  C  1333  1  0.28064800  0.18705000  0.57509000  1
  C  1334  1  0.38026400  0.16551200  0.66797500  1
  C  1335  1  0.38214400  0.18400400  0.67367900  1
  C  1336  1  0.39850700  0.19120100  0.68278100  1
  C  1337  1  0.40630800  0.18212700  0.69934700  1
  C  1338  1  0.40713900  0.20847600  0.67613000  1
  C  1339  1  0.42318900  0.21643600  0.68577500  1
  C  1340  1  0.43102400  0.20742500  0.70238800  1
  C  1341  1  0.42242700  0.19002700  0.70887200  1
  C  1363  1  0.44644600  0.21593000  0.71305800  1
  C  1364  1  0.28192100  0.21415000  0.55163300  1
  C  1365  1  0.28411200  0.05114800  0.71679400  1
  C  1369  1  0.56625300  0.70221600  0.20817500  1
  C  1370  1  0.57500200  0.70882900  0.19090300  1
  C  1371  1  0.59122600  0.69939700  0.18310800  1
  C  1372  1  0.59899800  0.68282100  0.19218200  1
  C  1373  1  0.59024600  0.67606300  0.20935300  1
  C  1374  1  0.57408200  0.68560900  0.21720300  1
  C  1375  1  0.61538200  0.67374600  0.18501000  1
  C  1376  1  0.61720600  0.66796200  0.16653800  1
  C  1377  1  0.63382000  0.65948400  0.15918300  1
  C  1378  1  0.64190100  0.64273300  0.16765700  1
  C  1379  1  0.65867800  0.63404900  0.15989100  1
  C  1380  1  0.66716300  0.64213900  0.14315200  1
  C  1381  1  0.65935200  0.65887400  0.13442600  1
  C  1382  1  0.64256100  0.66730600  0.14246200  1
  C  1383  1  0.66789800  0.66630400  0.11788400  1
  C  1384  1  0.67371000  0.68477800  0.11618100  1
  C  1385  1  0.68283100  0.69203600  0.09986200  1
  C  1386  1  0.67615200  0.70930000  0.09123400  1
  C  1387  1  0.69939300  0.68296800  0.09205200  1
  C  1388  1  0.70886500  0.69083900  0.07589000  1
  C  1389  1  0.70233300  0.70820800  0.06727300  1
  C  1390  1  0.68574900  0.71723800  0.07514600  1
  C  1391  1  0.66609600  0.61748400  0.16841300  1
  C  1392  1  0.68458200  0.61572800  0.17417400  1
  C  1393  1  0.69184300  0.59936600  0.18322000  1
  C  1394  1  0.68279700  0.59149300  0.19976500  1
  C  1395  1  0.70909400  0.59075900  0.17648000  1
  C  1396  1  0.71704300  0.57463000  0.18600200  1
  C  1397  1  0.70803600  0.56669400  0.20256900  1
  C  1398  1  0.69068600  0.57529900  0.20916700  1
  C  1420  1  0.71648000  0.55113900  0.21308800  1
  C  1421  1  0.71289600  0.71664400  0.05174300  1
  C  1422  1  0.55065900  0.71275600  0.21652700  1
  C  1426  1  0.43252100  0.29646900  0.20822600  1
  C  1427  1  0.42383300  0.28992400  0.19089900  1
  C  1428  1  0.40761300  0.29936200  0.18310800  1
  C  1429  1  0.39981400  0.31590900  0.19221400  1
  C  1430  1  0.40850900  0.32260100  0.20944000  1
  C  1431  1  0.42465600  0.31303300  0.21730000  1
  C  1432  1  0.38345700  0.32501000  0.18501900  1
  C  1433  1  0.38168900  0.33083100  0.16655300  1
  C  1434  1  0.36511500  0.33935600  0.15917000  1
  C  1435  1  0.35707700  0.35613500  0.16762700  1
  C  1436  1  0.34034000  0.36486900  0.15983200  1
  C  1437  1  0.33185300  0.35680000  0.14308400  1
  C  1438  1  0.33962000  0.34003500  0.13437900  1
  C  1439  1  0.35637500  0.33155400  0.14244000  1
  C  1440  1  0.33107800  0.33262000  0.11782900  1
  C  1441  1  0.32516800  0.31417600  0.11615800  1
  C  1442  1  0.31603000  0.30693500  0.09984200  1
  C  1443  1  0.32263100  0.28961900  0.09125600  1
  C  1444  1  0.29952800  0.31607700  0.09199100  1
  C  1445  1  0.29003800  0.30822700  0.07582900  1
  C  1446  1  0.29649000  0.29080700  0.06725600  1
  C  1447  1  0.31301400  0.28170100  0.07516900  1
  C  1448  1  0.33296300  0.38145800  0.16833700  1
  C  1449  1  0.31448700  0.38324700  0.17411800  1
  C  1450  1  0.30726700  0.39962200  0.18317200  1
  C  1451  1  0.31636000  0.40749000  0.19969200  1
  C  1452  1  0.29000800  0.40824500  0.17647300  1
  C  1453  1  0.28209600  0.42438000  0.18601300  1
  C  1454  1  0.29115000  0.43230900  0.20255700  1
  C  1455  1  0.30851000  0.42369300  0.20911200  1
  C  1477  1  0.28273000  0.44786300  0.21309700  1
  C  1478  1  0.28590200  0.28240800  0.05172400  1
  C  1479  1  0.44812000  0.28592300  0.21656300  1
  C  1483  1  0.43274100  0.70233600  0.79095200  1
  C  1484  1  0.42406400  0.70882400  0.80830600  1
  C  1485  1  0.40783300  0.69937600  0.81606300  1
  C  1486  1  0.40000900  0.68287700  0.80689100  1
  C  1487  1  0.40869900  0.67623500  0.78964500  1
  C  1488  1  0.42485700  0.68581100  0.78182000  1
  C  1489  1  0.38361600  0.67379400  0.81403100  1
  C  1490  1  0.38179600  0.66792600  0.83247600  1
  C  1491  1  0.36517600  0.65944500  0.83980400  1
  C  1492  1  0.35709200  0.64271600  0.83129200  1
  C  1493  1  0.34029500  0.63403900  0.83902200  1
  C  1494  1  0.33179200  0.64211500  0.85575900  1
  C  1495  1  0.33960100  0.65883300  0.86451200  1
  C  1496  1  0.35641400  0.66725800  0.85651600  1
  C  1497  1  0.33103900  0.66625700  0.88104900  1
  C  1498  1  0.32520300  0.68472400  0.88273000  1
  C  1499  1  0.31605300  0.69197800  0.89903200  1
  C  1500  1  0.32271700  0.70924200  0.90767400  1
  C  1501  1  0.29948100  0.68290300  0.90681400  1
  C  1502  1  0.28998500  0.69076700  0.92296400  1
  C  1503  1  0.29650000  0.70813500  0.93159500  1
  C  1504  1  0.31309300  0.71717300  0.92375100  1
  C  1505  1  0.33287800  0.61748800  0.83047700  1
  C  1506  1  0.31440700  0.61576400  0.82466000  1
  C  1507  1  0.30714600  0.59940800  0.81561000  1
  C  1508  1  0.31622700  0.59150200  0.79910100  1
  C  1509  1  0.28986900  0.59082700  0.82231900  1
  C  1510  1  0.28193400  0.57468700  0.81280400  1
  C  1511  1  0.29098100  0.56671500  0.79627800  1
  C  1512  1  0.30835400  0.57529400  0.78970900  1
  C  1534  1  0.28255000  0.55112800  0.78579400  1
  C  1535  1  0.28590700  0.71655300  0.94711200  1
  C  1536  1  0.44831200  0.71292200  0.78262500  1
  C  1540  1  0.56619500  0.29667500  0.79090800  1
  C  1541  1  0.57482700  0.29021700  0.80829700  1
  C  1542  1  0.59107700  0.29964100  0.81604600  1
  C  1543  1  0.59896600  0.31608500  0.80682900  1
  C  1544  1  0.59032100  0.32269500  0.78954800  1
  C  1545  1  0.57414500  0.31314200  0.78173300  1
  C  1546  1  0.61536700  0.32515500  0.81397200  1
  C  1547  1  0.61716500  0.33108100  0.83240200  1
  C  1548  1  0.63379200  0.33955200  0.83972800  1
  C  1549  1  0.64191100  0.35624500  0.83117800  1
  C  1550  1  0.65870700  0.36492400  0.83890800  1
  C  1551  1  0.66717000  0.35689200  0.85568500  1
  C  1552  1  0.65932300  0.34021300  0.86448000  1
  C  1553  1  0.64251500  0.33178200  0.85648300  1
  C  1554  1  0.66785200  0.33283600  0.88105300  1
  C  1555  1  0.67369600  0.31437500  0.88279500  1
  C  1556  1  0.68282900  0.30716100  0.89912700  1
  C  1557  1  0.67622400  0.28986500  0.90774600  1
  C  1558  1  0.69934800  0.31630100  0.90695000  1
  C  1559  1  0.70885500  0.30845700  0.92310500  1
  C  1560  1  0.70240100  0.29105400  0.93170900  1
  C  1561  1  0.68585600  0.28195900  0.92382900  1
  C  1562  1  0.66616000  0.38144100  0.83032600  1
  C  1563  1  0.68463300  0.38310400  0.82449900  1
  C  1564  1  0.69192900  0.39942100  0.81540100  1
  C  1565  1  0.68284700  0.40732000  0.79889000  1
  C  1566  1  0.70923600  0.40797200  0.82207000  1
  C  1567  1  0.71719100  0.42408200  0.81252400  1
  C  1568  1  0.70813600  0.43205700  0.79600200  1
  C  1569  1  0.69074100  0.42349900  0.78946400  1
  C  1591  1  0.71655800  0.44763800  0.78550500  1
  C  1592  1  0.71303000  0.28264800  0.94720300  1
  C  1593  1  0.55058600  0.28613400  0.78259200  1
  C  1597  1  0.70394900  0.56750300  0.79087500  1
  C  1598  1  0.70994000  0.57570100  0.80863900  1
  C  1599  1  0.70029200  0.59174300  0.81655300  1
  C  1600  1  0.68405800  0.59984500  0.80714400  1
  C  1601  1  0.67789900  0.59160200  0.78949900  1
  C  1602  1  0.68768400  0.57564600  0.78151000  1
  C  1603  1  0.67483800  0.61613700  0.81438700  1
  C  1604  1  0.66885400  0.61784100  0.83280900  1
  C  1605  1  0.66023100  0.63438500  0.84017100  1
  C  1606  1  0.64347000  0.64237200  0.83162700  1
  C  1607  1  0.63464800  0.65909000  0.83936900  1
  C  1608  1  0.64260700  0.66761200  0.85615100  1
  C  1609  1  0.65934500  0.65989100  0.86495700  1
  C  1610  1  0.66791900  0.64316000  0.85694000  1
  C  1611  1  0.66666667  0.66845600  0.88155900  1
  C  1612  1  0.68503200  0.67450200  0.88333500  1
  C  1613  1  0.69218700  0.68370500  0.89967700  1
  C  1614  1  0.70984000  0.67760800  0.90795100  1
  C  1615  1  0.68268500  0.69987900  0.90779400  1
  C  1616  1  0.69051000  0.70951800  0.92388200  1
  C  1617  1  0.70827300  0.70358500  0.93211900  1
  C  1618  1  0.71773800  0.68738800  0.92395600  1
  C  1619  1  0.61808700  0.66642900  0.83076700  1
  C  1620  1  0.61644000  0.68480200  0.82462300  1
  C  1621  1  0.60017000  0.69202000  0.81534200  1
  C  1622  1  0.59197000  0.68244600  0.79925400  1
  C  1623  1  0.59207100  0.70981700  0.82125800  1
  C  1624  1  0.57615900  0.71778400  0.81138800  1
  C  1625  1  0.56791500  0.70824700  0.79527600  1
  C  1626  1  0.57597900  0.69034900  0.78951300  1
  C  1648  1  0.55260400  0.71667000  0.78437800  1
  C  1649  1  0.71665500  0.71439200  0.94752000  1
  C  1650  1  0.71475900  0.55214500  0.78241800  1
  C  1654  1  0.29504800  0.43170600  0.79108200  1
  C  1655  1  0.28936800  0.42382000  0.80908400  1
  C  1656  1  0.29906300  0.40782600  0.81703800  1
  C  1657  1  0.31503000  0.39944700  0.80741000  1
  C  1658  1  0.32087800  0.40738800  0.78951900  1
  C  1659  1  0.31104700  0.42329800  0.78149900  1
  C  1660  1  0.32425600  0.38315600  0.81466900  1
  C  1661  1  0.33039400  0.38150100  0.83304100  1
  C  1662  1  0.33899900  0.36494200  0.84038800  1
  C  1663  1  0.35574900  0.35695400  0.83182400  1
  C  1664  1  0.36456400  0.34022100  0.83954500  1
  C  1665  1  0.35660600  0.33168700  0.85632000  1
  C  1666  1  0.33987700  0.33940900  0.86514100  1
  C  1667  1  0.33130800  0.35615400  0.85714700  1
  C  1668  1  0.33258700  0.33082700  0.88173400  1
  C  1669  1  0.31421600  0.32467800  0.88345800  1
  C  1670  1  0.30705600  0.31542600  0.89977200  1
  C  1671  1  0.28926300  0.32132800  0.90789800  1
  C  1672  1  0.31667600  0.29937700  0.90799500  1
  C  1673  1  0.30882800  0.28965900  0.92402500  1
  C  1674  1  0.29093400  0.29540200  0.93211200  1
  C  1675  1  0.28135000  0.31147700  0.92385000  1
  C  1676  1  0.38111800  0.33288500  0.83092900  1
  C  1677  1  0.38274900  0.31452100  0.82474400  1
  C  1678  1  0.39901900  0.30728600  0.81547400  1
  C  1679  1  0.40733000  0.31692400  0.79947900  1
  C  1680  1  0.40700200  0.28940400  0.82129400  1
  C  1681  1  0.42288800  0.28140600  0.81140600  1
  C  1682  1  0.43122600  0.29099900  0.79537900  1
  C  1683  1  0.42331000  0.30900100  0.78973700  1
  C  1705  1  0.44647900  0.28252100  0.78444500  1
  C  1706  1  0.28254500  0.28450400  0.94744500  1
  C  1707  1  0.28415300  0.44698400  0.78259200  1
  C  1711  1  0.70372200  0.43187100  0.20795600  1
  C  1712  1  0.70951200  0.42391300  0.19002000  1
  C  1713  1  0.69989300  0.40785900  0.18209500  1
  C  1714  1  0.68388900  0.39950000  0.19167500  1
  C  1715  1  0.67792100  0.40752400  0.20949100  1
  C  1716  1  0.68768000  0.42348800  0.21748800  1
  C  1717  1  0.67475000  0.38314300  0.18446300  1
  C  1718  1  0.66870100  0.38137100  0.16606700  1
  C  1719  1  0.66018300  0.36474200  0.15877700  1
  C  1720  1  0.64345700  0.35671500  0.16734900  1
  C  1721  1  0.63472400  0.33991200  0.15968900  1
  C  1722  1  0.64274600  0.33134500  0.14295800  1
  C  1723  1  0.65945300  0.33910300  0.13412800  1
  C  1724  1  0.66793600  0.35592000  0.14206400  1
  C  1725  1  0.66679300  0.33049300  0.11757200  1
  C  1726  1  0.68520500  0.32447800  0.11584600  1
  C  1727  1  0.69239000  0.31522100  0.09954900  1
  C  1728  1  0.70999800  0.32136800  0.09121000  1
  C  1729  1  0.68293300  0.29898800  0.09150300  1
  C  1730  1  0.69076100  0.28932700  0.07543000  1
  C  1731  1  0.70846000  0.29533100  0.06710200  1
  C  1732  1  0.71788400  0.31158300  0.07520300  1
  C  1733  1  0.61819200  0.33254200  0.16831900  1
  C  1734  1  0.61654700  0.31415000  0.17441000  1
  C  1735  1  0.60027700  0.30692000  0.18367300  1
  C  1736  1  0.59218000  0.31638400  0.19987700  1
  C  1737  1  0.59204300  0.28924600  0.17758300  1
  C  1738  1  0.57610200  0.28128400  0.18740800  1
  C  1739  1  0.56796600  0.29070000  0.20364700  1
  C  1740  1  0.57616500  0.30848300  0.20957700  1
  C  1762  1  0.55261100  0.28226900  0.21448000  1
  C  1763  1  0.71679800  0.28457000  0.05164200  1
  C  1764  1  0.71454900  0.44718600  0.21646700  1
  C  1768  1  0.29501700  0.56762200  0.20827900  1
  C  1769  1  0.28901300  0.57582000  0.19052200  1
  C  1770  1  0.29865400  0.59185900  0.18259500  1
  C  1771  1  0.31488300  0.59997800  0.19199700  1
  C  1772  1  0.32103600  0.59175600  0.20965800  1
  C  1773  1  0.31126200  0.57579700  0.21765300  1
  C  1774  1  0.32412000  0.61624700  0.18472400  1
  C  1775  1  0.33007600  0.61792300  0.16628800  1
  C  1776  1  0.33872100  0.63444100  0.15889700  1
  C  1777  1  0.35555400  0.64235900  0.16736400  1
  C  1778  1  0.36440700  0.65904000  0.15958000  1
  C  1779  1  0.35639900  0.66760100  0.14284000  1
  C  1780  1  0.33959000  0.65994800  0.13411000  1
  C  1781  1  0.33099000  0.64324800  0.14216500  1
  C  1782  1  0.33226000  0.66854600  0.11754000  1
  C  1783  1  0.31386500  0.67461200  0.11581400  1
  C  1784  1  0.30669500  0.68384700  0.09950000  1
  C  1785  1  0.28909100  0.67769400  0.09116200  1
  C  1786  1  0.31615600  0.70007200  0.09144600  1
  C  1787  1  0.30833500  0.70971900  0.07535900  1
  C  1788  1  0.29062100  0.70373100  0.06705300  1
  C  1789  1  0.28120300  0.68747500  0.07515500  1
  C  1790  1  0.38102700  0.66632300  0.16811200  1
  C  1791  1  0.38275400  0.68468400  0.17426800  1
  C  1792  1  0.39908100  0.69187100  0.18348100  1
  C  1793  1  0.40742700  0.68220000  0.19943800  1
  C  1794  1  0.40707000  0.70974900  0.17765600  1
  C  1795  1  0.42299500  0.71771600  0.18750600  1
  C  1796  1  0.43136500  0.70809300  0.20350100  1
  C  1797  1  0.42343700  0.69009900  0.20914900  1
  C  1819  1  0.44663000  0.71655800  0.21443400  1
  C  1820  1  0.28227200  0.71452300  0.05162100  1
  C  1821  1  0.28426700  0.55221100  0.21671600  1
  C  1825  1  0.25033200  0.24820800  0.98905400  1
  C  1826  1  0.25634200  0.26457400  0.97831600  1
  C  1827  1  0.25627600  0.26462700  0.95792800  1
  C  1828  1  0.24911400  0.24828900  0.94798400  1
  C  1829  1  0.24294500  0.23175600  0.95831200  1
  C  1830  1  0.24390200  0.23162900  0.97874900  1
  C  1833  1  0.25072600  0.24870600  0.00973900  1
  C  1834  1  0.26733100  0.25495800  0.02011000  1
  C  1835  1  0.26711900  0.25595100  0.04054600  1
  C  1836  1  0.25047100  0.24998600  0.05080800  1
  C  1837  1  0.23408600  0.24303500  0.04079400  1
  C  1838  1  0.23422700  0.24294800  0.02040800  1
  C  1855  1  0.74870500  0.75069800  0.98917800  1
  C  1856  1  0.74280500  0.73423100  0.97853600  1
  C  1857  1  0.74295100  0.73403100  0.95815100  1
  C  1858  1  0.75009100  0.75032100  0.94811400  1
  C  1859  1  0.75618900  0.76693800  0.95834600  1
  C  1860  1  0.75515000  0.76721100  0.97877900  1
  C  1863  1  0.74817000  0.75035400  0.00986500  1
  C  1864  1  0.73152700  0.74408700  0.02016600  1
  C  1865  1  0.73162300  0.74316600  0.04060600  1
  C  1866  1  0.74818700  0.74924100  0.05094000  1
  C  1867  1  0.76459200  0.75624800  0.04099900  1
  C  1868  1  0.76457400  0.75624700  0.02061000  1
  C  1885  1  0.74865900  0.24835700  0.00979700  1
  C  1886  1  0.74288100  0.26486000  0.02045000  1
  C  1887  1  0.74300600  0.26503000  0.04083500  1
  C  1888  1  0.74999300  0.24866900  0.05086400  1
  C  1889  1  0.75596500  0.23201500  0.04061700  1
  C  1890  1  0.75494300  0.23177200  0.02018300  1
  C  1893  1  0.74816700  0.24872800  0.98911200  1
  C  1894  1  0.73158000  0.25510900  0.97878900  1
  C  1895  1  0.73171600  0.25603600  0.95835000  1
  C  1896  1  0.74826800  0.24988900  0.94804000  1
  C  1897  1  0.76461700  0.24277900  0.95800500  1
  C  1898  1  0.76455500  0.24274900  0.97839300  1
  C  1915  1  0.25026900  0.75062400  0.00975000  1
  C  1916  1  0.25612000  0.73413400  0.02038300  1
  C  1917  1  0.25600000  0.73394200  0.04076900  1
  C  1918  1  0.24895200  0.75026400  0.05081600  1
  C  1919  1  0.24291900  0.76690900  0.04058800  1
  C  1920  1  0.24391900  0.76717100  0.02015400  1
  C  1923  1  0.25075000  0.75027300  0.98906600  1
  C  1924  1  0.26736500  0.74398600  0.97873000  1
  C  1925  1  0.26722600  0.74308200  0.95829100  1
  C  1926  1  0.25064600  0.74917300  0.94799100  1
  C  1927  1  0.23426100  0.75617500  0.95797300  1
  C  1928  1  0.23432900  0.75618800  0.97836000  1
  C  1945  1  0.99017700  0.25024900  0.24819800  1
  C  1946  1  0.97937300  0.25609100  0.26457700  1
  C  1947  1  0.95898500  0.25596100  0.26456800  1
  C  1948  1  0.94911000  0.24888700  0.24815300  1
  C  1949  1  0.95950500  0.24287100  0.23160600  1
  C  1950  1  0.97994000  0.24389300  0.23154500  1
  C  1953  1  0.01086100  0.25072000  0.24877400  1
  C  1954  1  0.02115900  0.26729500  0.25523200  1
  C  1955  1  0.04159300  0.26713800  0.25631000  1
  C  1956  1  0.05192600  0.25057400  0.25022800  1
  C  1957  1  0.04199100  0.23423200  0.24306100  1
  C  1958  1  0.02160500  0.23431000  0.24290900  1
  C  1975  1  0.99018000  0.74862100  0.75084400  1
  C  1976  1  0.97936900  0.74284400  0.73444500  1
  C  1977  1  0.95898000  0.74303000  0.73443500  1
  C  1978  1  0.94911600  0.75013000  0.75084500  1
  C  1979  1  0.95951500  0.75609600  0.76740600  1
  C  1980  1  0.97994500  0.75499700  0.76749200  1
  C  1983  1  0.01086400  0.74803600  0.75030100  1
  C  1984  1  0.02107700  0.73141800  0.74381200  1
  C  1985  1  0.04151100  0.73146400  0.74276700  1
  C  1986  1  0.05193200  0.74794000  0.74893600  1
  C  1987  1  0.04208500  0.76431500  0.75615100  1
  C  1988  1  0.02169700  0.76435500  0.75625400  1
  C  2005  1  0.00868400  0.74869500  0.24828300  1
  C  2006  1  0.01944400  0.74298100  0.26473700  1
  C  2007  1  0.03983000  0.74313400  0.26478300  1
  C  2008  1  0.04975200  0.75008800  0.24834500  1
  C  2009  1  0.03939700  0.75599800  0.23173800  1
  C  2010  1  0.01896400  0.75495600  0.23162100  1
  C  2013  1  0.98800000  0.74816900  0.24879300  1
  C  2014  1  0.97773100  0.73160000  0.25531200  1
  C  2015  1  0.95729600  0.73171300  0.25634100  1
  C  2016  1  0.94693500  0.74821600  0.25014700  1
  C  2017  1  0.95684100  0.76454200  0.24290300  1
  C  2018  1  0.97722900  0.76451400  0.24280100  1
  C  2035  1  0.00869300  0.25016300  0.75057800  1
  C  2036  1  0.01934300  0.25587400  0.73405200  1
  C  2037  1  0.03972600  0.25569200  0.73386400  1
  C  2038  1  0.04975600  0.24872200  0.75023000  1
  C  2039  1  0.03951100  0.24282400  0.76691100  1
  C  2040  1  0.01907900  0.24387400  0.76716400  1
  C  2043  1  0.98801000  0.25070000  0.75020500  1
  C  2044  1  0.97771200  0.26729100  0.74379300  1
  C  2045  1  0.95727300  0.26718300  0.74285800  1
  C  2046  1  0.94694000  0.25066000  0.74905000  1
  C  2047  1  0.95688200  0.23430600  0.75618000  1
  C  2048  1  0.97727000  0.23433600  0.75620200  1
  C  2065  1  0.24797200  0.98965400  0.25025400  1
  C  2066  1  0.26427900  0.97880200  0.25621400  1
  C  2067  1  0.26416300  0.95841400  0.25621500  1
  C  2068  1  0.24772100  0.94858100  0.24914100  1
  C  2069  1  0.23124600  0.95902600  0.24301400  1
  C  2070  1  0.23128500  0.97946500  0.24391900  1
  C  2073  1  0.24863400  0.01033400  0.25063200  1
  C  2074  1  0.25505000  0.02067100  0.26719700  1
  C  2075  1  0.25620200  0.04109800  0.26696300  1
  C  2076  1  0.25022300  0.05139200  0.25034000  1
  C  2077  1  0.24310600  0.04141900  0.23400000  1
  C  2078  1  0.24287400  0.02103400  0.23415400  1
  C  2095  1  0.75071500  0.98972900  0.74875500  1
  C  2096  1  0.73423700  0.97905900  0.74294400  1
  C  2097  1  0.73409900  0.95867500  0.74303000  1
  C  2098  1  0.75045500  0.94866000  0.75004300  1
  C  2099  1  0.76708000  0.95892100  0.75607200  1
  C  2100  1  0.76729700  0.97935700  0.75507700  1
  C  2103  1  0.75031400  0.01041500  0.74824400  1
  C  2104  1  0.74389800  0.02071600  0.73165700  1
  C  2105  1  0.74288000  0.04115000  0.73179800  1
  C  2106  1  0.74901300  0.05148200  0.74834200  1
  C  2107  1  0.75617500  0.04154400  0.76468300  1
  C  2108  1  0.75626300  0.02115500  0.76462700  1
  C  2125  1  0.24825100  0.00919600  0.74879400  1
  C  2126  1  0.26472500  0.01990400  0.74304200  1
  C  2127  1  0.26481100  0.04028800  0.74312300  1
  C  2128  1  0.24840000  0.05026800  0.75005800  1
  C  2129  1  0.23177800  0.03996600  0.75602300  1
  C  2130  1  0.23161800  0.01952900  0.75504000  1
  C  2133  1  0.24870300  0.98851200  0.74829300  1
  C  2134  1  0.25519800  0.97821800  0.73173200  1
  C  2135  1  0.25624100  0.95778600  0.73187900  1
  C  2136  1  0.25007700  0.94744800  0.74840900  1
  C  2137  1  0.24284200  0.95737700  0.76472200  1
  C  2138  1  0.24271700  0.97776600  0.76465900  1
  C  2155  1  0.75068100  0.00926700  0.25016500  1
  C  2156  1  0.73422200  0.01992800  0.25604900  1
  C  2157  1  0.73410400  0.04031200  0.25602900  1
  C  2158  1  0.75046500  0.05034100  0.24904600  1
  C  2159  1  0.76707800  0.04008600  0.24297400  1
  C  2160  1  0.76726800  0.01964600  0.24387300  1
  C  2163  1  0.75024700  0.98858300  0.25054600  1
  C  2164  1  0.74387700  0.97818500  0.26709100  1
  C  2165  1  0.74286000  0.95775200  0.26683300  1
  C  2166  1  0.74893000  0.94751600  0.25020500  1
  C  2167  1  0.75601100  0.95755500  0.23389100  1
  C  2168  1  0.75612100  0.97794200  0.23407200  1
  C  2185  1  0.25030600  0.74835900  0.48905100  1
  C  2186  1  0.25624500  0.76473700  0.47829600  1
  C  2187  1  0.25605300  0.76481300  0.45790800  1
  C  2188  1  0.24882200  0.74848800  0.44799100  1
  C  2189  1  0.24271400  0.73194600  0.45833900  1
  C  2190  1  0.24380200  0.73179400  0.47876700  1
  C  2193  1  0.25080500  0.74885800  0.50973600  1
  C  2194  1  0.26745300  0.75511100  0.52004100  1
  C  2195  1  0.26733900  0.75606300  0.54048200  1
  C  2196  1  0.25074300  0.75006600  0.55081000  1
  C  2197  1  0.23431500  0.74312900  0.54085800  1
  C  2198  1  0.23435700  0.74308500  0.52047200  1
  C  2215  1  0.74871200  0.25053800  0.48918100  1
  C  2216  1  0.74287000  0.23406500  0.47852000  1
  C  2217  1  0.74314200  0.23384500  0.45813600  1
  C  2218  1  0.75036300  0.25011600  0.44812700  1
  C  2219  1  0.75641000  0.26674000  0.45837800  1
  C  2220  1  0.75524200  0.26703700  0.47880400  1
  C  2223  1  0.74807600  0.25019500  0.50986600  1
  C  2224  1  0.73138600  0.24393500  0.52010200  1
  C  2225  1  0.73138800  0.24305500  0.54054500  1
  C  2226  1  0.74790300  0.24915400  0.55094200  1
  C  2227  1  0.76435400  0.25614100  0.54106100  1
  C  2228  1  0.76443200  0.25609200  0.52067500  1
  C  2245  1  0.74870200  0.74847800  0.50977400  1
  C  2246  1  0.74299300  0.76499300  0.52044200  1
  C  2247  1  0.74324900  0.76519200  0.54082600  1
  C  2248  1  0.75031400  0.74885100  0.55083100  1
  C  2249  1  0.75622900  0.73218400  0.54056900  1
  C  2250  1  0.75507000  0.73191300  0.52014300  1
  C  2253  1  0.74810100  0.74884500  0.48909000  1
  C  2254  1  0.73146900  0.75522500  0.47883500  1
  C  2255  1  0.73150300  0.75610800  0.45839300  1
  C  2256  1  0.74800200  0.74992900  0.44801700  1
  C  2257  1  0.76439400  0.74283500  0.45791800  1
  C  2258  1  0.76443600  0.74285300  0.47830500  1
  C  2275  1  0.25024600  0.25047100  0.50975300  1
  C  2276  1  0.25602000  0.23396900  0.52040600  1
  C  2277  1  0.25576600  0.23375300  0.54079000  1
  C  2278  1  0.24865000  0.25006400  0.55080900  1
  C  2279  1  0.24268600  0.26672100  0.54056100  1
  C  2280  1  0.24382200  0.26700800  0.52013500  1
  C  2283  1  0.25083500  0.25012300  0.48907100  1
  C  2284  1  0.26749600  0.24383500  0.47880500  1
  C  2285  1  0.26746000  0.24297400  0.45836200  1
  C  2286  1  0.25093400  0.24909800  0.44799500  1
  C  2287  1  0.23450400  0.25608500  0.45791100  1
  C  2288  1  0.23446800  0.25605000  0.47829800  1
  C  2305  1  0.24801500  0.48855300  0.75025600  1
  C  2306  1  0.26429300  0.47770500  0.75629700  1
  C  2307  1  0.26417900  0.45731500  0.75630900  1
  C  2308  1  0.24776300  0.44748400  0.74916900  1
  C  2309  1  0.23131400  0.45792500  0.74296200  1
  C  2310  1  0.23135500  0.47836600  0.74385100  1
  C  2313  1  0.24867300  0.50923300  0.75062400  1
  C  2314  1  0.25495200  0.51957600  0.76723700  1
  C  2315  1  0.25608200  0.54000300  0.76700900  1
  C  2316  1  0.25025000  0.55029000  0.75032900  1
  C  2317  1  0.24328800  0.54030700  0.73393000  1
  C  2318  1  0.24304300  0.51992300  0.73409500  1
  C  2335  1  0.75094100  0.48856100  0.24870300  1
  C  2336  1  0.73460400  0.47778300  0.24269500  1
  C  2337  1  0.73460100  0.45739300  0.24274300  1
  C  2338  1  0.75095100  0.44749100  0.24993600  1
  C  2339  1  0.76744400  0.45785700  0.25615000  1
  C  2340  1  0.76752900  0.47829500  0.25517900  1
  C  2343  1  0.75040200  0.50924600  0.24822600  1
  C  2344  1  0.74411100  0.51954000  0.23158400  1
  C  2345  1  0.74302000  0.53996900  0.23173600  1
  C  2346  1  0.74892500  0.55031000  0.24835700  1
  C  2347  1  0.75593900  0.54038200  0.26476700  1
  C  2348  1  0.75612100  0.51999400  0.26468800  1
  C  2365  1  0.24829300  0.51035500  0.24877900  1
  C  2366  1  0.26473800  0.52106500  0.24294500  1
  C  2367  1  0.26482400  0.54145000  0.24302200  1
  C  2368  1  0.24843600  0.55142500  0.25002700  1
  C  2369  1  0.23183900  0.54112200  0.25606800  1
  C  2370  1  0.23168400  0.52068300  0.25509300  1
  C  2373  1  0.24874700  0.48967300  0.24828700  1
  C  2374  1  0.25510500  0.47937400  0.23167400  1
  C  2375  1  0.25612700  0.45894100  0.23181300  1
  C  2376  1  0.25011400  0.44860800  0.24840000  1
  C  2377  1  0.24303300  0.45854500  0.26477700  1
  C  2378  1  0.24289200  0.47893400  0.26470500  1
  C  2395  1  0.75072100  0.51043500  0.75010400  1
  C  2396  1  0.73429300  0.52109800  0.75606800  1
  C  2397  1  0.73417700  0.54148400  0.75605300  1
  C  2398  1  0.75051400  0.55150600  0.74900100  1
  C  2399  1  0.76710200  0.54125100  0.74285400  1
  C  2400  1  0.76728400  0.52080700  0.74374100  1
  C  2403  1  0.75028200  0.48975100  0.75048100  1
  C  2404  1  0.74404500  0.47935300  0.76707500  1
  C  2405  1  0.74304300  0.45891800  0.76682700  1
  C  2406  1  0.74895900  0.44868600  0.75014300  1
  C  2407  1  0.75588800  0.45873000  0.73376500  1
  C  2408  1  0.75602100  0.47911700  0.73395500  1
  C  2425  1  0.48802900  0.25025900  0.74823500  1
  C  2426  1  0.47720900  0.25631500  0.76452400  1
  C  2427  1  0.45681900  0.25621500  0.76449300  1
  C  2428  1  0.44696300  0.24892600  0.74815600  1
  C  2429  1  0.45737400  0.24268200  0.73170100  1
  C  2430  1  0.47780900  0.24370400  0.73165100  1
  C  2433  1  0.50871300  0.25071800  0.74883200  1
  C  2434  1  0.51901800  0.26736900  0.75508500  1
  C  2435  1  0.53945000  0.26721300  0.75616100  1
  C  2436  1  0.54977800  0.25056700  0.75030900  1
  C  2437  1  0.53983300  0.23414000  0.74336100  1
  C  2438  1  0.51944900  0.23422700  0.74318400  1
  C  2455  1  0.48805400  0.74862000  0.25088500  1
  C  2456  1  0.47724300  0.74263400  0.23456200  1
  C  2457  1  0.45685300  0.74279300  0.23455200  1
  C  2458  1  0.44699100  0.75010700  0.25087400  1
  C  2459  1  0.45738800  0.75629600  0.26735700  1
  C  2460  1  0.47781800  0.75519500  0.26745400  1
  C  2463  1  0.50873700  0.74804600  0.25034000  1
  C  2464  1  0.51896500  0.73135900  0.24405400  1
  C  2465  1  0.53939800  0.73140800  0.24301300  1
  C  2466  1  0.54980700  0.74796900  0.24896200  1
  C  2467  1  0.53994400  0.76442600  0.25595900  1
  C  2468  1  0.51955700  0.76444900  0.25608500  1
  C  2485  1  0.51088900  0.74873800  0.74823900  1
  C  2486  1  0.52165900  0.74282800  0.76461700  1
  C  2487  1  0.54204600  0.74295500  0.76465200  1
  C  2488  1  0.55195500  0.75011300  0.74829000  1
  C  2489  1  0.54159300  0.75623200  0.73175900  1
  C  2490  1  0.52115900  0.75518400  0.73164400  1
  C  2493  1  0.49020800  0.74821900  0.74875800  1
  C  2494  1  0.47993400  0.73157600  0.75508000  1
  C  2495  1  0.45950100  0.73168300  0.75610700  1
  C  2496  1  0.44914000  0.74826700  0.75013600  1
  C  2497  1  0.45905400  0.76467800  0.74310300  1
  C  2498  1  0.47944100  0.76464300  0.74297100  1
  C  2515  1  0.51087900  0.25018600  0.25057700  1
  C  2516  1  0.52155500  0.25610400  0.23414300  1
  C  2517  1  0.54194000  0.25595100  0.23398800  1
  C  2518  1  0.55194100  0.24877300  0.25028600  1
  C  2519  1  0.54167000  0.24265600  0.26687500  1
  C  2520  1  0.52123700  0.24370700  0.26710400  1
  C  2523  1  0.49019600  0.25070400  0.25016900  1
  C  2524  1  0.47988900  0.26736300  0.24395000  1
  C  2525  1  0.45945000  0.26724900  0.24301000  1
  C  2526  1  0.44912400  0.25064000  0.24897400  1
  C  2527  1  0.45908000  0.23420400  0.25588800  1
  C  2528  1  0.47946600  0.23425400  0.25594600  1
  C  2545  1  0.27032000  0.40620700  0.41063900  1
  C  2546  1  0.27843300  0.41212900  0.39281400  1
  C  2547  1  0.29444400  0.40246100  0.38486600  1
  C  2548  1  0.30262700  0.38629900  0.39432900  1
  C  2549  1  0.29447500  0.38021400  0.41204500  1
  C  2550  1  0.27853600  0.39000900  0.42005200  1
  C  2551  1  0.31891700  0.37708300  0.38707300  1
  C  2552  1  0.32060300  0.37107000  0.36865800  1
  C  2553  1  0.33716000  0.36248000  0.36129200  1
  C  2554  1  0.34515500  0.34571100  0.36981000  1
  C  2555  1  0.36188800  0.33691900  0.36206500  1
  C  2556  1  0.37042100  0.34492700  0.34531000  1
  C  2557  1  0.36269100  0.36167500  0.33653200  1
  C  2558  1  0.34594000  0.37021300  0.34454700  1
  C  2559  1  0.37125800  0.36901200  0.31994800  1
  C  2560  1  0.37724500  0.38742900  0.31819000  1
  C  2561  1  0.38641400  0.39463100  0.30185100  1
  C  2562  1  0.38024400  0.41226500  0.29358700  1
  C  2563  1  0.40260700  0.38518600  0.29370700  1
  C  2564  1  0.41218800  0.39304000  0.27759800  1
  C  2565  1  0.40617100  0.41077700  0.26936100  1
  C  2566  1  0.38996300  0.42019000  0.27756000  1
  C  2567  1  0.36922300  0.32034400  0.37064200  1
  C  2568  1  0.38760700  0.31865000  0.37674300  1
  C  2569  1  0.39478600  0.30235600  0.38600800  1
  C  2570  1  0.38527200  0.29426700  0.40218600  1
  C  2571  1  0.41246400  0.29409800  0.37996100  1
  C  2572  1  0.42036600  0.27812500  0.38978800  1
  C  2573  1  0.41088600  0.26998100  0.40598600  1
  C  2574  1  0.39311200  0.27822100  0.41188300  1
  C  2596  1  0.41923100  0.25457900  0.41682200  1
  C  2597  1  0.41688500  0.41916500  0.25389500  1
  C  2598  1  0.25497400  0.41702700  0.41910800  1
  C  2602  1  0.13356500  0.99759900  0.41041300  1
  C  2603  1  0.12559700  0.99182100  0.39247700  1
  C  2604  1  0.10960200  0.00150891  0.38451900  1
  C  2605  1  0.10132500  0.01757890  0.39405900  1
  C  2606  1  0.10935700  0.02353590  0.41187300  1
  C  2607  1  0.12526000  0.01370490  0.41990500  1
  C  2608  1  0.08503090  0.02678990  0.38680400  1
  C  2609  1  0.08336690  0.03287790  0.36841200  1
  C  2610  1  0.06680590  0.04146490  0.36105700  1
  C  2611  1  0.05878790  0.05820390  0.36961300  1
  C  2612  1  0.04204990  0.06699690  0.36188000  1
  C  2613  1  0.03353990  0.05902590  0.34509600  1
  C  2614  1  0.04129290  0.04230690  0.33628100  1
  C  2615  1  0.05804690  0.03376690  0.34428600  1
  C  2616  1  0.03275190  0.03500090  0.31967300  1
  C  2617  1  0.02669590  0.01660590  0.31791800  1
  C  2618  1  0.01751590  0.00941191  0.30157800  1
  C  2619  1  0.02352890  0.99166200  0.29344600  1
  C  2620  1  0.00144091  0.01896490  0.29332600  1
  C  2621  1  0.99181000  0.01109190  0.27725500  1
  C  2622  1  0.99765400  0.99322700  0.26917500  1
  C  2623  1  0.01375590  0.98371400  0.27746400  1
  C  2624  1  0.03470190  0.08354990  0.37049100  1
  C  2625  1  0.01630690  0.08523490  0.37656000  1
  C  2626  1  0.00911391  0.10151700  0.38583300  1
  C  2627  1  0.01858490  0.10956500  0.40205700  1
  C  2628  1  0.99146800  0.10980900  0.37973900  1
  C  2629  1  0.98355500  0.12577500  0.38956700  1
  C  2630  1  0.99299100  0.13387900  0.40581000  1
  C  2631  1  0.01073290  0.12560600  0.41175700  1
  C  2653  1  0.98460800  0.14926600  0.41663800  1
  C  2654  1  0.98683600  0.98479800  0.25380500  1
  C  2655  1  0.14882800  0.98670400  0.41892900  1
  C  2659  1  0.13354400  0.40603800  0.99335000  1
  C  2660  1  0.12551200  0.41187300  0.01123790  1
  C  2661  1  0.10949700  0.40220000  0.01917590  1
  C  2662  1  0.10126000  0.38609500  0.00966391  1
  C  2663  1  0.10934200  0.38009200  0.99188900  1
  C  2664  1  0.12526900  0.38990300  0.98387700  1
  C  2665  1  0.08497190  0.37687300  0.01691890  1
  C  2666  1  0.08331090  0.37080300  0.03531790  1
  C  2667  1  0.06676690  0.36218500  0.04267690  1
  C  2668  1  0.05880190  0.34540800  0.03414990  1
  C  2669  1  0.04208790  0.33658000  0.04189390  1
  C  2670  1  0.03354390  0.34456100  0.05865590  1
  C  2671  1  0.04124190  0.36132100  0.06744190  1
  C  2672  1  0.05797790  0.36989200  0.05942890  1
  C  2673  1  0.03267390  0.36863000  0.08403790  1
  C  2674  1  0.02663090  0.38702800  0.08579090  1
  C  2675  1  0.01744590  0.39422300  0.10212700  1
  C  2676  1  0.02350490  0.41193800  0.11030100  1
  C  2677  1  0.00132491  0.38470900  0.11033400  1
  C  2678  1  0.99169200  0.39258700  0.12640200  1
  C  2679  1  0.99758000  0.41041700  0.13452300  1
  C  2680  1  0.01373190  0.41989000  0.12628200  1
  C  2681  1  0.03478890  0.31999000  0.03331690  1
  C  2682  1  0.01641890  0.31827300  0.02717890  1
  C  2683  1  0.00925491  0.30196500  0.01792090  1
  C  2684  1  0.01885590  0.29377700  0.00184091  1
  C  2685  1  0.99148100  0.29381900  0.02384290  1
  C  2686  1  0.98356300  0.27787500  0.01398390  1
  C  2687  1  0.99312400  0.26965000  0.99787700  1
  C  2688  1  0.01100490  0.27775300  0.99211500  1
  C  2710  1  0.98472100  0.25432700  0.98697100  1
  C  2711  1  0.98675900  0.41886000  0.14988500  1
  C  2712  1  0.14885700  0.41687800  0.98485400  1
  C  2716  1  0.27004700  0.99749800  0.99329800  1
  C  2717  1  0.27793200  0.99183100  0.01130390  1
  C  2718  1  0.29392000  0.00153791  0.01925190  1
  C  2719  1  0.30227300  0.01752090  0.00963291  1
  C  2720  1  0.29432000  0.02336990  0.99174700  1
  C  2721  1  0.27842500  0.01351690  0.98372400  1
  C  2722  1  0.31855200  0.02676090  0.01689290  1
  C  2723  1  0.32019000  0.03289890  0.03527090  1
  C  2724  1  0.33675000  0.04148890  0.04262490  1
  C  2725  1  0.34472300  0.05826390  0.03410090  1
  C  2726  1  0.36145800  0.06706490  0.04182890  1
  C  2727  1  0.37001600  0.05905590  0.05857190  1
  C  2728  1  0.36231400  0.04229590  0.06734990  1
  C  2729  1  0.34555800  0.03375090  0.05935290  1
  C  2730  1  0.37090800  0.03496090  0.08391790  1
  C  2731  1  0.37698600  0.01656990  0.08562690  1
  C  2732  1  0.38620600  0.00936491  0.10193900  1
  C  2733  1  0.38018000  0.99163700  0.11010800  1
  C  2734  1  0.40232200  0.01889490  0.11013600  1
  C  2735  1  0.41197400  0.01102490  0.12619500  1
  C  2736  1  0.40610300  0.99319500  0.13433400  1
  C  2737  1  0.38996800  0.98369800  0.12608500  1
  C  2738  1  0.36877500  0.08365090  0.03325590  1
  C  2739  1  0.38714400  0.08533890  0.02710590  1
  C  2740  1  0.39433200  0.10163800  0.01785490  1
  C  2741  1  0.38475100  0.10983900  0.00177091  1
  C  2742  1  0.41211000  0.10976300  0.02379090  1
  C  2743  1  0.42005500  0.12569700  0.01393590  1
  C  2744  1  0.41051600  0.13393500  0.99782300  1
  C  2745  1  0.39263100  0.12585300  0.99205000  1
  C  2767  1  0.41894800  0.14924700  0.98692900  1
  C  2768  1  0.41691600  0.98479000  0.14971700  1
  C  2769  1  0.25477600  0.98659400  0.98481200  1
  C  2773  1  0.40475200  0.26913300  0.99313900  1
  C  2774  1  0.41119400  0.27777200  0.01052890  1
  C  2775  1  0.40169500  0.29395700  0.01831990  1
  C  2776  1  0.38519000  0.30176600  0.00914791  1
  C  2777  1  0.37859600  0.29311500  0.99186300  1
  C  2778  1  0.38822400  0.27700600  0.98400400  1
  C  2779  1  0.37603900  0.31809800  0.01633690  1
  C  2780  1  0.37010500  0.31980700  0.03477090  1
  C  2781  1  0.36155800  0.33637000  0.04214990  1
  C  2782  1  0.34481200  0.34442400  0.03364490  1
  C  2783  1  0.33607900  0.36117500  0.04141390  1
  C  2784  1  0.34411600  0.36966100  0.05817790  1
  C  2785  1  0.36084700  0.36187500  0.06692890  1
  C  2786  1  0.36932800  0.34510600  0.05889590  1
  C  2787  1  0.36824600  0.37042700  0.08348190  1
  C  2788  1  0.38671500  0.37624900  0.08520290  1
  C  2789  1  0.39396200  0.38536000  0.10153000  1
  C  2790  1  0.41124100  0.37869700  0.11013900  1
  C  2791  1  0.38488200  0.40191000  0.10935400  1
  C  2792  1  0.39276500  0.41139200  0.12550400  1
  C  2793  1  0.41015700  0.40488600  0.13409100  1
  C  2794  1  0.41919100  0.38830600  0.12621400  1
  C  2795  1  0.31951500  0.36856400  0.03287490  1
  C  2796  1  0.31779100  0.38701500  0.02699790  1
  C  2797  1  0.30144000  0.39424100  0.01790490  1
  C  2798  1  0.29353400  0.38508200  0.00143991  1
  C  2799  1  0.29285900  0.41155200  0.02452790  1
  C  2800  1  0.27671700  0.41943800  0.01497690  1
  C  2801  1  0.26873600  0.41030600  0.99850100  1
  C  2802  1  0.27732500  0.39290800  0.99201100  1
  C  2824  1  0.25314100  0.41866200  0.98797600  1
  C  2825  1  0.41861600  0.41548900  0.14957600  1
  C  2826  1  0.41536600  0.25358700  0.98479900  1
  C  2830  1  0.99900000  0.13465800  0.99326000  1
  C  2831  1  0.99257800  0.12605700  0.01067690  1
  C  2832  1  0.00207791  0.10988000  0.01848290  1
  C  2833  1  0.01854690  0.10202300  0.00928491  1
  C  2834  1  0.02511190  0.11063200  0.99196700  1
  C  2835  1  0.01548990  0.12674200  0.98410100  1
  C  2836  1  0.02768990  0.08568590  0.01647890  1
  C  2837  1  0.03360790  0.08395990  0.03491590  1
  C  2838  1  0.04214390  0.06738890  0.04229190  1
  C  2839  1  0.05890190  0.05934390  0.03380090  1
  C  2840  1  0.06764590  0.04260390  0.04157990  1
  C  2841  1  0.05960290  0.03411890  0.05834390  1
  C  2842  1  0.04285490  0.04189290  0.06707790  1
  C  2843  1  0.03436390  0.05864890  0.05903190  1
  C  2844  1  0.03546390  0.03334990  0.08363890  1
  C  2845  1  0.01701490  0.02746090  0.08534890  1
  C  2846  1  0.00977391  0.01834890  0.10168300  1
  C  2847  1  0.99239700  0.02489590  0.11018900  1
  C  2848  1  0.01895690  0.00190791  0.10961400  1
  C  2849  1  0.01107890  0.99241800  0.12576300  1
  C  2850  1  0.99360300  0.99881900  0.13425600  1
  C  2851  1  0.98445900  0.01528490  0.12626900  1
  C  2852  1  0.08423290  0.03523690  0.03305990  1
  C  2853  1  0.08605590  0.01675190  0.02731490  1
  C  2854  1  0.10244500  0.00954391  0.01827790  1
  C  2855  1  0.11028800  0.01860290  0.00172591  1
  C  2856  1  0.11112900  0.99234200  0.02504490  1
  C  2857  1  0.12729400  0.98444900  0.01553790  1
  C  2858  1  0.13519300  0.99346500  0.99895800  1
  C  2859  1  0.12652600  0.01077990  0.99234500  1
  C  2881  1  0.15078000  0.98505200  0.98846300  1
  C  2882  1  0.98515000  0.98821900  0.14974800  1
  C  2883  1  0.98838900  0.15019000  0.98488600  1
  C  2887  1  0.40447600  0.13457100  0.41044800  1
  C  2888  1  0.41111800  0.12575600  0.39322000  1
  C  2889  1  0.40166100  0.10954000  0.38544100  1
  C  2890  1  0.38501800  0.10186200  0.39447100  1
  C  2891  1  0.37822800  0.11068200  0.41159300  1
  C  2892  1  0.38780500  0.12683000  0.41943500  1
  C  2893  1  0.37590100  0.08550790  0.38729700  1
  C  2894  1  0.37009600  0.08372190  0.36883000  1
  C  2895  1  0.36157400  0.06713490  0.36146900  1
  C  2896  1  0.34481000  0.05909090  0.36994800  1
  C  2897  1  0.33609600  0.04232490  0.36219100  1
  C  2898  1  0.34417100  0.03381390  0.34545800  1
  C  2899  1  0.36091900  0.04159090  0.33673100  1
  C  2900  1  0.36938500  0.05836990  0.34475600  1
  C  2901  1  0.36834600  0.03302190  0.32019900  1
  C  2902  1  0.38680000  0.02713990  0.31853600  1
  C  2903  1  0.39407300  0.01802090  0.30222300  1
  C  2904  1  0.41141900  0.02461590  0.29369500  1
  C  2905  1  0.38492300  0.00155391  0.29430700  1
  C  2906  1  0.39281400  0.99207500  0.27815900  1
  C  2907  1  0.41025800  0.99852900  0.26963600  1
  C  2908  1  0.41936400  0.01502290  0.27760800  1
  C  2909  1  0.31952000  0.03494490  0.37072000  1
  C  2910  1  0.31774400  0.01647590  0.37652800  1
  C  2911  1  0.30136700  0.00925991  0.38557900  1
  C  2912  1  0.29351900  0.01833990  0.40211800  1
  C  2913  1  0.29269300  0.99204600  0.37883200  1
  C  2914  1  0.27652600  0.98416400  0.38834400  1
  C  2915  1  0.26861700  0.99320100  0.40490800  1
  C  2916  1  0.27728900  0.01051490  0.41151200  1
  C  2938  1  0.25300700  0.98482200  0.41539700  1
  C  2939  1  0.41868200  0.98795900  0.25411200  1
  C  2940  1  0.41501900  0.15015800  0.41880300  1
  C  2944  1  0.99878900  0.26927200  0.41049300  1
  C  2945  1  0.99237000  0.27789000  0.39308300  1
  C  2946  1  0.00187991  0.29406400  0.38528200  1
  C  2947  1  0.01836190  0.30189700  0.39447800  1
  C  2948  1  0.02491990  0.29328000  0.41179300  1
  C  2949  1  0.01528590  0.27717400  0.41965500  1
  C  2950  1  0.02753090  0.31821300  0.38727300  1
  C  2951  1  0.03346190  0.31990300  0.36883600  1
  C  2952  1  0.04201390  0.33645600  0.36144400  1
  C  2953  1  0.05880790  0.34446600  0.36989600  1
  C  2954  1  0.06755690  0.36119800  0.36210400  1
  C  2955  1  0.05947590  0.36971400  0.34537500  1
  C  2956  1  0.04268990  0.36197600  0.33668300  1
  C  2957  1  0.03419990  0.34522200  0.34473400  1
  C  2958  1  0.03524990  0.37055700  0.32016400  1
  C  2959  1  0.01679390  0.37644400  0.31852300  1
  C  2960  1  0.00950491  0.38557200  0.30222200  1
  C  2961  1  0.99216600  0.37896000  0.29369100  1
  C  2962  1  0.01862490  0.40206600  0.29432700  1
  C  2963  1  0.01072290  0.41154200  0.27818300  1
  C  2964  1  0.99327600  0.40508500  0.26967000  1
  C  2965  1  0.98419900  0.38856500  0.27762200  1
  C  2966  1  0.08416390  0.36854600  0.37060300  1
  C  2967  1  0.08599990  0.38702300  0.37636900  1
  C  2968  1  0.10239400  0.39420800  0.38541300  1
  C  2969  1  0.11021700  0.38513200  0.40196500  1
  C  2970  1  0.11109800  0.41140500  0.37865700  1
  C  2971  1  0.12726800  0.41927500  0.38817800  1
  C  2972  1  0.13514800  0.41024300  0.40475700  1
  C  2973  1  0.12645400  0.39293900  0.41136300  1
  C  2995  1  0.15073800  0.41862600  0.41527400  1
  C  2996  1  0.98482900  0.41566600  0.25416100  1
  C  2997  1  0.98819700  0.25370900  0.41882400  1
  C  3001  1  0.27038200  0.90451700  0.91001700  1
  C  3002  1  0.27902800  0.91100700  0.89264700  1
  C  3003  1  0.29515000  0.90146500  0.88476900  1
  C  3004  1  0.30291900  0.88489200  0.89385600  1
  C  3005  1  0.29423800  0.87823300  0.91110200  1
  C  3006  1  0.27817600  0.88788500  0.91903000  1
  C  3007  1  0.31929500  0.87578500  0.88669300  1
  C  3008  1  0.32119900  0.87006300  0.86821000  1
  C  3009  1  0.33783100  0.86155400  0.86091600  1
  C  3010  1  0.34583400  0.84477400  0.86940600  1
  C  3011  1  0.36265900  0.83608900  0.86174300  1
  C  3012  1  0.37128300  0.84421400  0.84509100  1
  C  3013  1  0.36354100  0.86096800  0.83633600  1
  C  3014  1  0.34669700  0.86939600  0.84427000  1
  C  3015  1  0.37216400  0.86841500  0.81983500  1
  C  3016  1  0.37801200  0.88688500  0.81816800  1
  C  3017  1  0.38712400  0.89423500  0.80186600  1
  C  3018  1  0.38080800  0.91185700  0.79368800  1
  C  3019  1  0.40336000  0.88493300  0.79364700  1
  C  3020  1  0.41283800  0.89291100  0.77753900  1
  C  3021  1  0.40667000  0.91063300  0.76938700  1
  C  3022  1  0.39042800  0.91991200  0.77766700  1
  C  3023  1  0.36998600  0.81950200  0.87030100  1
  C  3024  1  0.38832500  0.81783400  0.87654200  1
  C  3025  1  0.39544000  0.80152900  0.88583000  1
  C  3026  1  0.38585000  0.79347800  0.90198200  1
  C  3027  1  0.41310000  0.79320200  0.87982600  1
  C  3028  1  0.42090100  0.77718300  0.88966000  1
  C  3029  1  0.41133700  0.76906300  0.90582100  1
  C  3030  1  0.39359000  0.77738800  0.91168600  1
  C  3052  1  0.41956200  0.75359600  0.91665400  1
  C  3053  1  0.41726400  0.91914200  0.75391100  1
  C  3054  1  0.25494000  0.91519600  0.91848300  1
  C  3058  1  0.13306500  0.49888900  0.91015000  1
  C  3059  1  0.12449800  0.49249400  0.89270400  1
  C  3060  1  0.10840900  0.50207400  0.88481300  1
  C  3061  1  0.10061800  0.51861600  0.89393400  1
  C  3062  1  0.10921600  0.52517800  0.91125900  1
  C  3063  1  0.12523300  0.51547400  0.91921500  1
  C  3064  1  0.08430690  0.52779000  0.88671500  1
  C  3065  1  0.08254390  0.53360900  0.86824900  1
  C  3066  1  0.06598290  0.54218900  0.86088200  1
  C  3067  1  0.05799290  0.55897800  0.86936300  1
  C  3068  1  0.04124390  0.56773900  0.86162200  1
  C  3069  1  0.03268690  0.55968400  0.84490200  1
  C  3070  1  0.04041690  0.54291700  0.83615900  1
  C  3071  1  0.05718590  0.53441300  0.84416900  1
  C  3072  1  0.03185690  0.53552100  0.81960000  1
  C  3073  1  0.02590190  0.51708700  0.81791800  1
  C  3074  1  0.01681290  0.50976600  0.80158800  1
  C  3075  1  0.02295390  0.49201000  0.79356500  1
  C  3076  1  0.00072991  0.51920500  0.79322200  1
  C  3077  1  0.99121500  0.51121200  0.77714100  1
  C  3078  1  0.99719000  0.49334300  0.76917100  1
  C  3079  1  0.01329590  0.48394100  0.77757600  1
  C  3080  1  0.03393290  0.58433700  0.87017000  1
  C  3081  1  0.01557690  0.58604400  0.87634600  1
  C  3082  1  0.00846991  0.60235800  0.88562500  1
  C  3083  1  0.01801790  0.61036300  0.90182600  1
  C  3084  1  0.99085700  0.61074000  0.87956000  1
  C  3085  1  0.98306000  0.62676600  0.88938400  1
  C  3086  1  0.99258200  0.63483900  0.90559300  1
  C  3087  1  0.01028190  0.62646100  0.91152000  1
  C  3109  1  0.98432800  0.65030300  0.91641100  1
  C  3110  1  0.98649200  0.48479000  0.75379300  1
  C  3111  1  0.14848900  0.48818100  0.91860800  1
  C  3115  1  0.13319400  0.90463600  0.49381100  1
  C  3116  1  0.12462600  0.91098500  0.51127100  1
  C  3117  1  0.10853400  0.90138400  0.51913700  1
  C  3118  1  0.10074700  0.88486000  0.50997500  1
  C  3119  1  0.10935400  0.87834200  0.49263600  1
  C  3120  1  0.12536900  0.88806900  0.48470700  1
  C  3121  1  0.08442290  0.87567600  0.51715700  1
  C  3122  1  0.08262190  0.86983900  0.53561400  1
  C  3123  1  0.06603190  0.86128300  0.54294300  1
  C  3124  1  0.05804890  0.84449300  0.53445600  1
  C  3125  1  0.04127090  0.83575400  0.54216000  1
  C  3126  1  0.03267290  0.84383600  0.55884700  1
  C  3127  1  0.04039190  0.86060600  0.56759400  1
  C  3128  1  0.05719190  0.86908600  0.55962200  1
  C  3129  1  0.03179490  0.86801900  0.58412500  1
  C  3130  1  0.02587590  0.88646500  0.58579600  1
  C  3131  1  0.01676490  0.89379800  0.60210700  1
  C  3132  1  0.02295990  0.91151300  0.61018200  1
  C  3133  1  0.00061591  0.88441400  0.61040600  1
  C  3134  1  0.99108800  0.89241500  0.62647400  1
  C  3135  1  0.99711800  0.91024200  0.63449900  1
  C  3136  1  0.01328990  0.91959000  0.62616100  1
  C  3137  1  0.03397090  0.81914900  0.53361900  1
  C  3138  1  0.01563890  0.81746600  0.52735800  1
  C  3139  1  0.00852591  0.80114900  0.51808000  1
  C  3140  1  0.01820190  0.79298400  0.50203400  1
  C  3141  1  0.99076500  0.79294600  0.52396100  1
  C  3142  1  0.98294200  0.77695200  0.51410500  1
  C  3143  1  0.99259100  0.76873300  0.49804600  1
  C  3144  1  0.01044390  0.77691300  0.49231400  1
  C  3166  1  0.98431300  0.75332600  0.48716400  1
  C  3167  1  0.98641300  0.91880800  0.64986600  1
  C  3168  1  0.14860100  0.91537800  0.48536900  1
  C  3172  1  0.27036900  0.49901400  0.49370800  1
  C  3173  1  0.27890000  0.49267600  0.51119200  1
  C  3174  1  0.29501100  0.50224800  0.51905300  1
  C  3175  1  0.30285600  0.51872900  0.50986300  1
  C  3176  1  0.29428600  0.52523600  0.49250300  1
  C  3177  1  0.27825200  0.51553600  0.48457500  1
  C  3178  1  0.31918800  0.52789600  0.51705400  1
  C  3179  1  0.32099000  0.53373400  0.53551100  1
  C  3180  1  0.33758100  0.54228900  0.54283800  1
  C  3181  1  0.34553500  0.55910300  0.53437000  1
  C  3182  1  0.36231000  0.56784900  0.54207300  1
  C  3183  1  0.37093300  0.55974900  0.55873800  1
  C  3184  1  0.36324300  0.54295400  0.56746300  1
  C  3185  1  0.34644600  0.53446600  0.55949300  1
  C  3186  1  0.37186800  0.53552700  0.58397300  1
  C  3187  1  0.37782600  0.51709000  0.58560900  1
  C  3188  1  0.38695600  0.50975200  0.60191000  1
  C  3189  1  0.38078600  0.49202700  0.60997800  1
  C  3190  1  0.40308900  0.51915700  0.61021500  1
  C  3191  1  0.41262000  0.51116700  0.62628600  1
  C  3192  1  0.40660200  0.49334000  0.63432300  1
  C  3193  1  0.39045400  0.48396500  0.62596400  1
  C  3194  1  0.36959300  0.58447200  0.53354700  1
  C  3195  1  0.38792200  0.58617200  0.52728300  1
  C  3196  1  0.39502700  0.60249700  0.51801800  1
  C  3197  1  0.38536600  0.61065800  0.50196100  1
  C  3198  1  0.41277900  0.61070500  0.52391700  1
  C  3199  1  0.42061500  0.62669300  0.51405900  1
  C  3200  1  0.41098700  0.63490200  0.49798400  1
  C  3201  1  0.39313700  0.62672300  0.49223800  1
  C  3223  1  0.41929600  0.65028500  0.48709400  1
  C  3224  1  0.41728600  0.48481100  0.64972000  1
  C  3225  1  0.25492600  0.48832000  0.48526700  1
  C  3229  1  0.40454900  0.77009900  0.49317900  1
  C  3230  1  0.41080500  0.77868800  0.51066400  1
  C  3231  1  0.40116100  0.79478800  0.51845500  1
  C  3232  1  0.38469000  0.80256100  0.50918800  1
  C  3233  1  0.37827200  0.79394800  0.49181900  1
  C  3234  1  0.38804300  0.77792200  0.48396400  1
  C  3235  1  0.37544700  0.81886200  0.51633900  1
  C  3236  1  0.36942800  0.82057000  0.53474700  1
  C  3237  1  0.36087300  0.83714900  0.54208800  1
  C  3238  1  0.34414300  0.84520200  0.53355100  1
  C  3239  1  0.33542800  0.86198600  0.54127000  1
  C  3240  1  0.34347400  0.87051900  0.55800600  1
  C  3241  1  0.36018900  0.86273300  0.56679400  1
  C  3242  1  0.36864000  0.84592200  0.55881500  1
  C  3243  1  0.36759000  0.87130100  0.58334600  1
  C  3244  1  0.38610900  0.87694000  0.58515100  1
  C  3245  1  0.39340400  0.88596000  0.60151400  1
  C  3246  1  0.41065900  0.87918000  0.61008700  1
  C  3247  1  0.38442100  0.90253000  0.60940900  1
  C  3248  1  0.39237500  0.91191800  0.62558100  1
  C  3249  1  0.40974500  0.90529600  0.63412600  1
  C  3250  1  0.41867900  0.88869500  0.62618400  1
  C  3251  1  0.31886800  0.86935900  0.53270700  1
  C  3252  1  0.31723900  0.88772900  0.52655200  1
  C  3253  1  0.30093400  0.89493300  0.51733400  1
  C  3254  1  0.29276300  0.88539900  0.50120800  1
  C  3255  1  0.29270900  0.91261600  0.52341200  1
  C  3256  1  0.27667600  0.92050000  0.51367200  1
  C  3257  1  0.26843700  0.91098700  0.49754300  1
  C  3258  1  0.27665800  0.89322000  0.49159800  1
  C  3280  1  0.25296700  0.91930600  0.48679900  1
  C  3281  1  0.41828500  0.91581100  0.64963100  1
  C  3282  1  0.41532000  0.75465700  0.48483800  1
  C  3286  1  0.99950600  0.63384400  0.49346600  1
  C  3287  1  0.99317100  0.62520400  0.51089500  1
  C  3288  1  0.00280691  0.60910800  0.51870600  1
  C  3289  1  0.01932890  0.60137100  0.50949900  1
  C  3290  1  0.02582290  0.61003800  0.49218300  1
  C  3291  1  0.01606990  0.62606800  0.48431600  1
  C  3292  1  0.02854490  0.58504700  0.51663500  1
  C  3293  1  0.03445590  0.58325200  0.53506900  1
  C  3294  1  0.04298790  0.56664500  0.54238100  1
  C  3295  1  0.05973390  0.55861000  0.53385900  1
  C  3296  1  0.06843090  0.54180400  0.54155000  1
  C  3297  1  0.06035290  0.53322900  0.55825000  1
  C  3298  1  0.04362390  0.54099900  0.56702800  1
  C  3299  1  0.03518590  0.55782900  0.55907200  1
  C  3300  1  0.03620890  0.53241100  0.58356300  1
  C  3301  1  0.01769990  0.52672800  0.58533600  1
  C  3302  1  0.01038890  0.51769600  0.60168900  1
  C  3303  1  0.99304600  0.52438100  0.61016200  1
  C  3304  1  0.01944990  0.50121600  0.60968100  1
  C  3305  1  0.01148590  0.49182100  0.62584400  1
  C  3306  1  0.99403900  0.49835800  0.63430000  1
  C  3307  1  0.98502000  0.51486400  0.62625600  1
  C  3308  1  0.08500690  0.53445200  0.53299800  1
  C  3309  1  0.08663390  0.51610600  0.52676700  1
  C  3310  1  0.10294900  0.50891200  0.51755400  1
  C  3311  1  0.11123300  0.51854800  0.50154500  1
  C  3312  1  0.11105800  0.49112800  0.52349500  1
  C  3313  1  0.12706400  0.48323200  0.51372000  1
  C  3314  1  0.13539500  0.49283800  0.49769300  1
  C  3315  1  0.12732700  0.51072800  0.49191500  1
  C  3337  1  0.15080000  0.48447700  0.48688600  1
  C  3338  1  0.98549400  0.48785300  0.64980800  1
  C  3339  1  0.98873900  0.64925600  0.48505900  1
  C  3343  1  0.40429300  0.63364500  0.91039700  1
  C  3344  1  0.41075700  0.62487700  0.89307900  1
  C  3345  1  0.40116700  0.60873800  0.88530100  1
  C  3346  1  0.38455800  0.60109400  0.89442600  1
  C  3347  1  0.37793600  0.60987900  0.91163000  1
  C  3348  1  0.38764600  0.62595000  0.91946700  1
  C  3349  1  0.37535900  0.58476100  0.88729900  1
  C  3350  1  0.36946400  0.58296600  0.86886000  1
  C  3351  1  0.36093700  0.56635800  0.86154600  1
  C  3352  1  0.34420600  0.55830500  0.87008300  1
  C  3353  1  0.33551400  0.54149500  0.86239300  1
  C  3354  1  0.34358300  0.53293900  0.84567900  1
  C  3355  1  0.36029600  0.54072600  0.83689100  1
  C  3356  1  0.36872900  0.55755900  0.84484400  1
  C  3357  1  0.36771100  0.53214500  0.82035500  1
  C  3358  1  0.38621900  0.52645300  0.81859300  1
  C  3359  1  0.39353100  0.51742700  0.80223900  1
  C  3360  1  0.41084700  0.52414400  0.79373800  1
  C  3361  1  0.38447600  0.50094000  0.79425400  1
  C  3362  1  0.39243300  0.49155900  0.77807900  1
  C  3363  1  0.40985100  0.49812800  0.76959300  1
  C  3364  1  0.41885700  0.51464700  0.77762700  1
  C  3365  1  0.31896300  0.53412100  0.87097200  1
  C  3366  1  0.31730300  0.51573100  0.87706400  1
  C  3367  1  0.30099000  0.50854100  0.88627100  1
  C  3368  1  0.29294500  0.51797300  0.90251700  1
  C  3369  1  0.29261000  0.49098800  0.88003100  1
  C  3370  1  0.27654500  0.48313000  0.88974000  1
  C  3371  1  0.26843400  0.49253500  0.90599700  1
  C  3372  1  0.27681000  0.51017700  0.91209800  1
  C  3394  1  0.25291700  0.48421900  0.91668400  1
  C  3395  1  0.41835400  0.48764600  0.75404800  1
  C  3396  1  0.41498500  0.64913300  0.91875700  1
  C  3400  1  0.99907900  0.77026800  0.91039300  1
  C  3401  1  0.99285500  0.77884700  0.89289200  1
  C  3402  1  0.00252091  0.79493200  0.88509900  1
  C  3403  1  0.01897490  0.80271600  0.89438800  1
  C  3404  1  0.02534690  0.79412600  0.91178800  1
  C  3405  1  0.01555890  0.77810800  0.91964000  1
  C  3406  1  0.02824690  0.81899800  0.88722900  1
  C  3407  1  0.03425690  0.82069500  0.86881800  1
  C  3408  1  0.04281890  0.83726400  0.86146700  1
  C  3409  1  0.05961090  0.84525700  0.86993700  1
  C  3410  1  0.06833690  0.86202800  0.86219800  1
  C  3411  1  0.06022890  0.87061300  0.84551900  1
  C  3412  1  0.04344790  0.86288800  0.83680200  1
  C  3413  1  0.03499090  0.84608500  0.84479300  1
  C  3414  1  0.03599490  0.87149400  0.82029300  1
  C  3415  1  0.01748290  0.87718400  0.81857100  1
  C  3416  1  0.01013290  0.88621600  0.80223900  1
  C  3417  1  0.99282400  0.87947200  0.79374700  1
  C  3418  1  0.01914390  0.90273400  0.79426600  1
  C  3419  1  0.01116290  0.91210400  0.77809700  1
  C  3420  1  0.99374000  0.90551600  0.76963000  1
  C  3421  1  0.98477600  0.88896900  0.77765400  1
  C  3422  1  0.08494990  0.86934900  0.87070000  1
  C  3423  1  0.08663790  0.88769900  0.87690200  1
  C  3424  1  0.10298800  0.89486900  0.88607400  1
  C  3425  1  0.11130700  0.88521600  0.90205400  1
  C  3426  1  0.11108200  0.91266100  0.88013500  1
  C  3427  1  0.12711300  0.92054500  0.88988200  1
  C  3428  1  0.13548200  0.91091900  0.90587600  1
  C  3429  1  0.12741900  0.89303000  0.91166000  1
  C  3451  1  0.15089700  0.91927600  0.91667600  1
  C  3452  1  0.98520700  0.91599500  0.75409500  1
  C  3453  1  0.98832600  0.75480700  0.91871700  1
  C  3457  1  0.76852100  0.40628500  0.91116500  1
  C  3458  1  0.77676700  0.41235400  0.89345200  1
  C  3459  1  0.79287100  0.40278900  0.88557400  1
  C  3460  1  0.80101700  0.38658600  0.89499800  1
  C  3461  1  0.79276600  0.38038000  0.91262400  1
  C  3462  1  0.77673200  0.39007500  0.92056400  1
  C  3463  1  0.81730800  0.37739600  0.88773100  1
  C  3464  1  0.81891700  0.37133900  0.86932500  1
  C  3465  1  0.83544500  0.36276500  0.86189000  1
  C  3466  1  0.84352700  0.34603700  0.87040700  1
  C  3467  1  0.86021100  0.33724300  0.86256300  1
  C  3468  1  0.86859400  0.34520200  0.84570800  1
  C  3469  1  0.86078600  0.36191700  0.83694500  1
  C  3470  1  0.84408900  0.37046200  0.84505900  1
  C  3471  1  0.86927300  0.36923000  0.82031700  1
  C  3472  1  0.87523400  0.38764900  0.81852400  1
  C  3473  1  0.88442100  0.39475500  0.80217200  1
  C  3474  1  0.87789900  0.41203900  0.79346200  1
  C  3475  1  0.90093700  0.38553700  0.79444200  1
  C  3476  1  0.91052600  0.39328700  0.77828700  1
  C  3477  1  0.90416000  0.41068000  0.76959200  1
  C  3478  1  0.88760900  0.41985000  0.77737700  1
  C  3479  1  0.86765500  0.32071100  0.87112800  1
  C  3480  1  0.88618700  0.31894800  0.87673700  1
  C  3481  1  0.89352200  0.30261700  0.88578100  1
  C  3482  1  0.88458000  0.29474900  0.90238500  1
  C  3483  1  0.91077600  0.29405400  0.87898800  1
  C  3484  1  0.91883500  0.27798800  0.88852100  1
  C  3485  1  0.90994200  0.27007000  0.90515800  1
  C  3486  1  0.89258000  0.27861600  0.91180100  1
  C  3508  1  0.91851000  0.25459000  0.91568900  1
  C  3509  1  0.91485600  0.41899700  0.75408200  1
  C  3510  1  0.75303100  0.41697100  0.91953200  1
  C  3514  1  0.63536900  0.99752800  0.91084200  1
  C  3515  1  0.62723600  0.99156900  0.89304300  1
  C  3516  1  0.61112200  0.00112891  0.88517700  1
  C  3517  1  0.60288400  0.01724290  0.89467600  1
  C  3518  1  0.61105500  0.02335990  0.91237100  1
  C  3519  1  0.62708100  0.01365590  0.92031400  1
  C  3520  1  0.58655300  0.02639390  0.88744500  1
  C  3521  1  0.58488100  0.03246390  0.86904800  1
  C  3522  1  0.56831100  0.04100390  0.86167100  1
  C  3523  1  0.56024300  0.05772990  0.87020300  1
  C  3524  1  0.54351700  0.06649690  0.86241500  1
  C  3525  1  0.53508200  0.05851590  0.84559800  1
  C  3526  1  0.54287400  0.04179990  0.83682200  1
  C  3527  1  0.55961000  0.03328090  0.84488000  1
  C  3528  1  0.53434900  0.03447490  0.82022000  1
  C  3529  1  0.52833700  0.01606790  0.81848000  1
  C  3530  1  0.51910200  0.00895291  0.80215900  1
  C  3531  1  0.52556400  0.99163700  0.79346800  1
  C  3532  1  0.50260700  0.01820990  0.79442600  1
  C  3533  1  0.49299300  0.01047290  0.77828300  1
  C  3534  1  0.49930200  0.99305400  0.76960400  1
  C  3535  1  0.51582300  0.98383600  0.77739700  1
  C  3536  1  0.53609700  0.08303790  0.87098500  1
  C  3537  1  0.51758400  0.08480290  0.87665800  1
  C  3538  1  0.51027800  0.10114100  0.88570900  1
  C  3539  1  0.51927800  0.10902900  0.90227400  1
  C  3540  1  0.49299700  0.10969200  0.87897000  1
  C  3541  1  0.48496800  0.12576300  0.88852000  1
  C  3542  1  0.49391800  0.13369800  0.90511700  1
  C  3543  1  0.51130700  0.12516600  0.91170400  1
  C  3565  1  0.48536700  0.14917200  0.91566700  1
  C  3566  1  0.48858500  0.98477300  0.75408900  1
  C  3567  1  0.65080000  0.98679100  0.91924900  1
  C  3571  1  0.63539100  0.40606400  0.49279900  1
  C  3572  1  0.62721300  0.41204900  0.51057100  1
  C  3573  1  0.61107000  0.40251300  0.51840300  1
  C  3574  1  0.60284200  0.38640000  0.50889600  1
  C  3575  1  0.61104500  0.38026300  0.49122400  1
  C  3576  1  0.62710300  0.38994200  0.48331600  1
  C  3577  1  0.58649500  0.37726100  0.51610400  1
  C  3578  1  0.58482300  0.37115200  0.53448800  1
  C  3579  1  0.56824200  0.36262300  0.54185200  1
  C  3580  1  0.56014800  0.34592300  0.53329400  1
  C  3581  1  0.54340900  0.33717100  0.54106700  1
  C  3582  1  0.53498200  0.34514200  0.55789300  1
  C  3583  1  0.54279900  0.36183300  0.56669400  1
  C  3584  1  0.55955100  0.37033700  0.55865200  1
  C  3585  1  0.53428100  0.36915100  0.58330300  1
  C  3586  1  0.52833100  0.38757300  0.58507600  1
  C  3587  1  0.51911100  0.39468700  0.60140400  1
  C  3588  1  0.52563900  0.41195200  0.61014500  1
  C  3589  1  0.50256600  0.38548300  0.60909200  1
  C  3590  1  0.49296000  0.39322800  0.62523900  1
  C  3591  1  0.49933500  0.41060100  0.63396400  1
  C  3592  1  0.51591100  0.41975900  0.62622000  1
  C  3593  1  0.53596800  0.32064800  0.53248200  1
  C  3594  1  0.51745400  0.31891000  0.52680600  1
  C  3595  1  0.51012500  0.30257300  0.51777100  1
  C  3596  1  0.51911200  0.29465000  0.50121700  1
  C  3597  1  0.49284000  0.29404700  0.52453100  1
  C  3598  1  0.48479900  0.27795900  0.51501900  1
  C  3599  1  0.49374200  0.26998400  0.49843800  1
  C  3600  1  0.51113200  0.27849300  0.49182500  1
  C  3622  1  0.48518800  0.25446700  0.48795000  1
  C  3623  1  0.48862100  0.41890000  0.64947000  1
  C  3624  1  0.65086300  0.41676000  0.48441900  1
  C  3628  1  0.76822900  0.99750700  0.49285300  1
  C  3629  1  0.77624800  0.99170100  0.51075600  1
  C  3630  1  0.79236100  0.00127791  0.51860500  1
  C  3631  1  0.80071200  0.01725790  0.50898200  1
  C  3632  1  0.79265300  0.02322690  0.49118500  1
  C  3633  1  0.77662800  0.01350390  0.48326100  1
  C  3634  1  0.81704900  0.02641390  0.51619700  1
  C  3635  1  0.81868800  0.03261890  0.53455200  1
  C  3636  1  0.83528100  0.04113090  0.54191100  1
  C  3637  1  0.84342000  0.05778590  0.53330700  1
  C  3638  1  0.86017600  0.06651990  0.54106400  1
  C  3639  1  0.86857400  0.05857890  0.55791900  1
  C  3640  1  0.86071100  0.04193490  0.56676500  1
  C  3641  1  0.84394500  0.03344390  0.55873700  1
  C  3642  1  0.86921400  0.03464390  0.58339200  1
  C  3643  1  0.87518200  0.01622990  0.58519500  1
  C  3644  1  0.88441700  0.00914291  0.60153000  1
  C  3645  1  0.87796900  0.99183400  0.61024100  1
  C  3646  1  0.90091800  0.01840790  0.60923800  1
  C  3647  1  0.91056300  0.01067690  0.62536700  1
  C  3648  1  0.90426900  0.99326000  0.63406500  1
  C  3649  1  0.88773500  0.98404200  0.62630100  1
  C  3650  1  0.86766800  0.08299490  0.53243300  1
  C  3651  1  0.88617800  0.08464190  0.52672200  1
  C  3652  1  0.89355900  0.10092700  0.51763200  1
  C  3653  1  0.88457000  0.10884800  0.50107800  1
  C  3654  1  0.91088400  0.10940900  0.52434600  1
  C  3655  1  0.91895700  0.12545700  0.51479500  1
  C  3656  1  0.91000500  0.13343900  0.49822200  1
  C  3657  1  0.89258100  0.12496500  0.49164900  1
  C  3679  1  0.91855800  0.14894400  0.48771600  1
  C  3680  1  0.91504000  0.98497000  0.64953400  1
  C  3681  1  0.75280700  0.98673900  0.48447500  1
  C  3685  1  0.90653100  0.26891100  0.49321800  1
  C  3686  1  0.91271800  0.27718500  0.51087800  1
  C  3687  1  0.90320400  0.29330200  0.51879400  1
  C  3688  1  0.88691400  0.30140900  0.50948900  1
  C  3689  1  0.88056900  0.29310600  0.49193600  1
  C  3690  1  0.89022400  0.27707300  0.48394600  1
  C  3691  1  0.87777200  0.31772200  0.51677200  1
  C  3692  1  0.87187400  0.31941800  0.53522200  1
  C  3693  1  0.86324800  0.33593900  0.54262500  1
  C  3694  1  0.84647100  0.34392500  0.53411200  1
  C  3695  1  0.83762100  0.36060100  0.54190900  1
  C  3696  1  0.84556500  0.36907100  0.55872500  1
  C  3697  1  0.86231800  0.36135300  0.56749600  1
  C  3698  1  0.87093000  0.34467200  0.55941900  1
  C  3699  1  0.86960600  0.36990200  0.58410200  1
  C  3700  1  0.88794200  0.37614300  0.58579300  1
  C  3701  1  0.89504300  0.38543700  0.60209800  1
  C  3702  1  0.91273300  0.37947800  0.61039300  1
  C  3703  1  0.88543400  0.40157600  0.61015500  1
  C  3704  1  0.89319100  0.41131900  0.62621300  1
  C  3705  1  0.91098800  0.40552300  0.63447300  1
  C  3706  1  0.92056000  0.38936000  0.62636700  1
  C  3707  1  0.82106000  0.36795700  0.53332300  1
  C  3708  1  0.81930400  0.38642000  0.52748700  1
  C  3709  1  0.80299500  0.39365300  0.51831600  1
  C  3710  1  0.79512600  0.38448500  0.50183600  1
  C  3711  1  0.79448100  0.41104300  0.52481600  1
  C  3712  1  0.77846500  0.41901300  0.51512200  1
  C  3713  1  0.77054600  0.40989300  0.49860800  1
  C  3714  1  0.77903900  0.39239500  0.49226200  1
  C  3736  1  0.75511500  0.41835400  0.48792000  1
  C  3737  1  0.91928800  0.41644000  0.64983700  1
  C  3738  1  0.91719300  0.25345100  0.48476400  1
  C  3742  1  0.49712400  0.13496600  0.49336000  1
  C  3743  1  0.49125600  0.12701500  0.51127200  1
  C  3744  1  0.50082000  0.11094700  0.51923100  1
  C  3745  1  0.51683400  0.10255500  0.50969800  1
  C  3746  1  0.52285900  0.11054600  0.49188700  1
  C  3747  1  0.51315700  0.12653200  0.48386100  1
  C  3748  1  0.52597900  0.08624190  0.51699600  1
  C  3749  1  0.53203700  0.08459890  0.53540000  1
  C  3750  1  0.54063200  0.06805790  0.54279200  1
  C  3751  1  0.55738800  0.06005090  0.53426000  1
  C  3752  1  0.56622700  0.04336290  0.54204600  1
  C  3753  1  0.55828800  0.03490690  0.55887300  1
  C  3754  1  0.54154600  0.04264090  0.56765500  1
  C  3755  1  0.53294600  0.05933090  0.55958700  1
  C  3756  1  0.53425800  0.03409490  0.58426100  1
  C  3757  1  0.51595400  0.02774790  0.58590300  1
  C  3758  1  0.50884600  0.01841490  0.60219100  1
  C  3759  1  0.49101400  0.02417390  0.61032500  1
  C  3760  1  0.51858200  0.00241191  0.61036700  1
  C  3761  1  0.51080300  0.99260100  0.62637300  1
  C  3762  1  0.49287000  0.99820200  0.63447400  1
  C  3763  1  0.48317300  0.01423090  0.62625500  1
  C  3764  1  0.58278400  0.03599790  0.53345200  1
  C  3765  1  0.58459500  0.01750090  0.52774400  1
  C  3766  1  0.60092200  0.01025090  0.51861800  1
  C  3767  1  0.60874000  0.01930590  0.50205000  1
  C  3768  1  0.60951600  0.99295500  0.52526500  1
  C  3769  1  0.62554100  0.98495500  0.51561300  1
  C  3770  1  0.63339200  0.99394700  0.49899700  1
  C  3771  1  0.62484100  0.01137090  0.49252200  1
  C  3793  1  0.64881100  0.98541000  0.48834700  1
  C  3794  1  0.48456200  0.98721100  0.64978100  1
  C  3795  1  0.48637000  0.15033700  0.48486600  1
  C  3799  1  0.90640400  0.13486200  0.91058400  1
  C  3800  1  0.91263200  0.12659000  0.89293800  1
  C  3801  1  0.90315300  0.11045500  0.88501500  1
  C  3802  1  0.88686900  0.10231800  0.89430600  1
  C  3803  1  0.88049200  0.11061400  0.91185100  1
  C  3804  1  0.89010700  0.12666800  0.91984500  1
  C  3805  1  0.87776400  0.08598490  0.88702000  1
  C  3806  1  0.87192000  0.08425090  0.86855700  1
  C  3807  1  0.86334000  0.06770290  0.86115800  1
  C  3808  1  0.84654500  0.05971690  0.86963300  1
  C  3809  1  0.83773000  0.04302090  0.86183800  1
  C  3810  1  0.84573100  0.03453290  0.84505800  1
  C  3811  1  0.86250800  0.04224790  0.83632600  1
  C  3812  1  0.87108300  0.05894790  0.84440300  1
  C  3813  1  0.86983900  0.03368290  0.81974900  1
  C  3814  1  0.88818000  0.02744490  0.81810400  1
  C  3815  1  0.89530900  0.01813390  0.80181900  1
  C  3816  1  0.91295800  0.02415090  0.79348300  1
  C  3817  1  0.88573300  0.00196091  0.79379300  1
  C  3818  1  0.89349200  0.99223000  0.77773100  1
  C  3819  1  0.91123300  0.99810200  0.76940100  1
  C  3820  1  0.92077300  0.01429590  0.77748400  1
  C  3821  1  0.82114800  0.03566890  0.87039200  1
  C  3822  1  0.81933400  0.01718490  0.87614300  1
  C  3823  1  0.80298600  0.00995591  0.88524500  1
  C  3824  1  0.79514000  0.01904090  0.90178300  1
  C  3825  1  0.79439700  0.99265600  0.87860300  1
  C  3826  1  0.77834500  0.98468200  0.88822900  1
  C  3827  1  0.77046600  0.99370100  0.90481700  1
  C  3828  1  0.77902400  0.01112090  0.91129600  1
  C  3850  1  0.75501100  0.98520400  0.91544700  1
  C  3851  1  0.91950100  0.98726300  0.75396200  1
  C  3852  1  0.91701100  0.15035000  0.91905900  1
  C  3856  1  0.49706000  0.26900900  0.91070400  1
  C  3857  1  0.49085500  0.27726600  0.89304300  1
  C  3858  1  0.50035300  0.29338500  0.88510700  1
  C  3859  1  0.51662800  0.30152600  0.89440700  1
  C  3860  1  0.52297000  0.29326000  0.91197800  1
  C  3861  1  0.51333900  0.27722000  0.91998300  1
  C  3862  1  0.52577400  0.31782100  0.88708600  1
  C  3863  1  0.53165100  0.31948200  0.86862400  1
  C  3864  1  0.54029300  0.33597800  0.86118700  1
  C  3865  1  0.55712500  0.34391400  0.86963600  1
  C  3866  1  0.56600600  0.36055400  0.86179500  1
  C  3867  1  0.55802900  0.36903500  0.84500000  1
  C  3868  1  0.54121500  0.36137200  0.83629600  1
  C  3869  1  0.53257700  0.34472400  0.84441400  1
  C  3870  1  0.53389700  0.36994000  0.81971200  1
  C  3871  1  0.51556700  0.37621100  0.81806500  1
  C  3872  1  0.50845500  0.38553000  0.80177900  1
  C  3873  1  0.49081200  0.37952300  0.79342600  1
  C  3874  1  0.51803500  0.40171200  0.79377900  1
  C  3875  1  0.51029000  0.41145800  0.77771600  1
  C  3876  1  0.49253900  0.40561300  0.76939000  1
  C  3877  1  0.48300000  0.38940200  0.77744200  1
  C  3878  1  0.58261600  0.36786400  0.87032700  1
  C  3879  1  0.58449600  0.38635600  0.87603100  1
  C  3880  1  0.60085900  0.39355300  0.88513300  1
  C  3881  1  0.60866000  0.38447900  0.90169900  1
  C  3882  1  0.60949100  0.41082800  0.87848200  1
  C  3883  1  0.62554100  0.41878800  0.88812700  1
  C  3884  1  0.63337600  0.40977700  0.90474000  1
  C  3885  1  0.62477900  0.39237900  0.91122400  1
  C  3907  1  0.64879800  0.41828200  0.91541000  1
  C  3908  1  0.48427300  0.41650200  0.75398500  1
  C  3909  1  0.48646400  0.25350000  0.91914600  1
  C  3913  1  0.76860500  0.90456800  0.41052700  1
  C  3914  1  0.77735400  0.91118100  0.39325500  1
  C  3915  1  0.79357800  0.90174900  0.38546000  1
  C  3916  1  0.80135000  0.88517300  0.39453400  1
  C  3917  1  0.79259800  0.87841500  0.41170500  1
  C  3918  1  0.77643400  0.88796100  0.41955500  1
  C  3919  1  0.81773400  0.87609800  0.38736200  1
  C  3920  1  0.81955800  0.87031400  0.36889000  1
  C  3921  1  0.83617200  0.86183600  0.36153500  1
  C  3922  1  0.84425300  0.84508500  0.37000900  1
  C  3923  1  0.86103000  0.83640100  0.36224300  1
  C  3924  1  0.86951500  0.84449100  0.34550400  1
  C  3925  1  0.86170400  0.86122600  0.33677800  1
  C  3926  1  0.84491300  0.86965800  0.34481400  1
  C  3927  1  0.87025000  0.86865600  0.32023600  1
  C  3928  1  0.87606200  0.88713000  0.31853300  1
  C  3929  1  0.88518300  0.89438800  0.30221400  1
  C  3930  1  0.87850400  0.91165200  0.29358600  1
  C  3931  1  0.90174500  0.88532000  0.29440400  1
  C  3932  1  0.91121700  0.89319100  0.27824200  1
  C  3933  1  0.90468500  0.91056000  0.26962500  1
  C  3934  1  0.88810100  0.91959000  0.27749800  1
  C  3935  1  0.86844800  0.81983600  0.37076500  1
  C  3936  1  0.88693400  0.81808000  0.37652600  1
  C  3937  1  0.89419500  0.80171800  0.38557200  1
  C  3938  1  0.88514900  0.79384500  0.40211700  1
  C  3939  1  0.91144600  0.79311100  0.37883200  1
  C  3940  1  0.91939500  0.77698200  0.38835400  1
  C  3941  1  0.91038800  0.76904600  0.40492100  1
  C  3942  1  0.89303800  0.77765100  0.41151900  1
  C  3964  1  0.91883200  0.75349100  0.41544000  1
  C  3965  1  0.91524800  0.91899600  0.25409500  1
  C  3966  1  0.75301100  0.91510800  0.41887900  1
  C  3970  1  0.63487300  0.49882100  0.41057800  1
  C  3971  1  0.62618500  0.49227600  0.39325100  1
  C  3972  1  0.60996500  0.50171400  0.38546000  1
  C  3973  1  0.60216600  0.51826100  0.39456600  1
  C  3974  1  0.61086100  0.52495300  0.41179200  1
  C  3975  1  0.62700800  0.51538500  0.41965200  1
  C  3976  1  0.58580900  0.52736200  0.38737100  1
  C  3977  1  0.58404100  0.53318300  0.36890500  1
  C  3978  1  0.56746700  0.54170800  0.36152200  1
  C  3979  1  0.55942900  0.55848700  0.36997900  1
  C  3980  1  0.54269200  0.56722100  0.36218400  1
  C  3981  1  0.53420500  0.55915200  0.34543600  1
  C  3982  1  0.54197200  0.54238700  0.33673100  1
  C  3983  1  0.55872700  0.53390600  0.34479200  1
  C  3984  1  0.53343000  0.53497200  0.32018100  1
  C  3985  1  0.52752000  0.51652800  0.31851000  1
  C  3986  1  0.51838200  0.50928700  0.30219400  1
  C  3987  1  0.52498300  0.49197100  0.29360800  1
  C  3988  1  0.50188000  0.51842900  0.29434300  1
  C  3989  1  0.49239000  0.51057900  0.27818100  1
  C  3990  1  0.49884200  0.49315900  0.26960800  1
  C  3991  1  0.51536600  0.48405300  0.27752100  1
  C  3992  1  0.53531500  0.58381000  0.37068900  1
  C  3993  1  0.51683900  0.58559900  0.37647000  1
  C  3994  1  0.50961900  0.60197400  0.38552400  1
  C  3995  1  0.51871200  0.60984200  0.40204400  1
  C  3996  1  0.49236000  0.61059700  0.37882500  1
  C  3997  1  0.48444800  0.62673200  0.38836500  1
  C  3998  1  0.49350200  0.63466100  0.40490900  1
  C  3999  1  0.51086200  0.62604500  0.41146400  1
  C  4021  1  0.48508200  0.65021500  0.41544900  1
  C  4022  1  0.48825400  0.48476000  0.25407600  1
  C  4023  1  0.65047200  0.48827500  0.41891500  1
  C  4027  1  0.63509300  0.90468800  0.99330400  1
  C  4028  1  0.62641600  0.91117600  0.01065790  1
  C  4029  1  0.61018500  0.90172800  0.01841490  1
  C  4030  1  0.60236100  0.88522900  0.00924291  1
  C  4031  1  0.61105100  0.87858700  0.99199700  1
  C  4032  1  0.62720900  0.88816300  0.98417200  1
  C  4033  1  0.58596800  0.87614600  0.01638290  1
  C  4034  1  0.58414800  0.87027800  0.03482790  1
  C  4035  1  0.56752800  0.86179700  0.04215590  1
  C  4036  1  0.55944400  0.84506800  0.03364390  1
  C  4037  1  0.54264700  0.83639100  0.04137390  1
  C  4038  1  0.53414400  0.84446700  0.05811090  1
  C  4039  1  0.54195300  0.86118500  0.06686390  1
  C  4040  1  0.55876600  0.86961000  0.05886790  1
  C  4041  1  0.53339100  0.86860900  0.08340090  1
  C  4042  1  0.52755500  0.88707600  0.08508190  1
  C  4043  1  0.51840500  0.89433000  0.10138400  1
  C  4044  1  0.52506900  0.91159400  0.11002600  1
  C  4045  1  0.50183300  0.88525500  0.10916600  1
  C  4046  1  0.49233700  0.89311900  0.12531600  1
  C  4047  1  0.49885200  0.91048700  0.13394700  1
  C  4048  1  0.51544500  0.91952500  0.12610300  1
  C  4049  1  0.53523000  0.81984000  0.03282890  1
  C  4050  1  0.51675900  0.81811600  0.02701190  1
  C  4051  1  0.50949800  0.80176000  0.01796190  1
  C  4052  1  0.51857900  0.79385400  0.00145291  1
  C  4053  1  0.49222100  0.79317900  0.02467090  1
  C  4054  1  0.48428600  0.77703900  0.01515590  1
  C  4055  1  0.49333300  0.76906700  0.99863000  1
  C  4056  1  0.51070600  0.77764600  0.99206100  1
  C  4078  1  0.48490200  0.75348000  0.98814600  1
  C  4079  1  0.48825900  0.91890500  0.14946400  1
  C  4080  1  0.65066400  0.91527400  0.98497700  1
  C  4084  1  0.76854700  0.49902700  0.99326000  1
  C  4085  1  0.77717900  0.49256900  0.01064890  1
  C  4086  1  0.79342900  0.50199300  0.01839790  1
  C  4087  1  0.80131800  0.51843700  0.00918091  1
  C  4088  1  0.79267300  0.52504700  0.99190000  1
  C  4089  1  0.77649700  0.51549400  0.98408500  1
  C  4090  1  0.81771900  0.52750700  0.01632390  1
  C  4091  1  0.81951700  0.53343300  0.03475390  1
  C  4092  1  0.83614400  0.54190400  0.04207990  1
  C  4093  1  0.84426300  0.55859700  0.03352990  1
  C  4094  1  0.86105900  0.56727600  0.04125990  1
  C  4095  1  0.86952200  0.55924400  0.05803690  1
  C  4096  1  0.86167500  0.54256500  0.06683190  1
  C  4097  1  0.84486700  0.53413400  0.05883490  1
  C  4098  1  0.87020400  0.53518800  0.08340490  1
  C  4099  1  0.87604800  0.51672700  0.08514690  1
  C  4100  1  0.88518100  0.50951300  0.10147900  1
  C  4101  1  0.87857600  0.49221700  0.11009800  1
  C  4102  1  0.90170000  0.51865300  0.10930200  1
  C  4103  1  0.91120700  0.51080900  0.12545700  1
  C  4104  1  0.90475300  0.49340600  0.13406100  1
  C  4105  1  0.88820800  0.48431100  0.12618100  1
  C  4106  1  0.86851200  0.58379300  0.03267790  1
  C  4107  1  0.88698500  0.58545600  0.02685090  1
  C  4108  1  0.89428100  0.60177300  0.01775290  1
  C  4109  1  0.88519900  0.60967200  0.00124191  1
  C  4110  1  0.91158800  0.61032400  0.02442190  1
  C  4111  1  0.91954300  0.62643400  0.01487590  1
  C  4112  1  0.91048800  0.63440900  0.99835400  1
  C  4113  1  0.89309300  0.62585100  0.99181600  1
  C  4135  1  0.91891000  0.64999000  0.98785700  1
  C  4136  1  0.91538200  0.48500000  0.14955500  1
  C  4137  1  0.75293800  0.48848600  0.98494400  1
  C  4141  1  0.90630100  0.76985500  0.99322700  1
  C  4142  1  0.91229200  0.77805300  0.01099090  1
  C  4143  1  0.90264400  0.79409500  0.01890490  1
  C  4144  1  0.88641000  0.80219700  0.00949591  1
  C  4145  1  0.88025100  0.79395400  0.99185100  1
  C  4146  1  0.89003600  0.77799800  0.98386200  1
  C  4147  1  0.87719000  0.81848900  0.01673890  1
  C  4148  1  0.87120600  0.82019300  0.03516090  1
  C  4149  1  0.86258300  0.83673700  0.04252290  1
  C  4150  1  0.84582200  0.84472400  0.03397890  1
  C  4151  1  0.83700000  0.86144200  0.04172090  1
  C  4152  1  0.84495900  0.86996400  0.05850290  1
  C  4153  1  0.86169700  0.86224300  0.06730890  1
  C  4154  1  0.87027100  0.84551200  0.05929190  1
  C  4155  1  0.86898900  0.87080800  0.08391090  1
  C  4156  1  0.88738400  0.87685400  0.08568690  1
  C  4157  1  0.89453900  0.88605700  0.10202900  1
  C  4158  1  0.91219200  0.87996000  0.11030300  1
  C  4159  1  0.88503700  0.90223100  0.11014600  1
  C  4160  1  0.89286200  0.91187000  0.12623400  1
  C  4161  1  0.91062500  0.90593700  0.13447100  1
  C  4162  1  0.92009000  0.88974000  0.12630800  1
  C  4163  1  0.82043900  0.86878100  0.03311890  1
  C  4164  1  0.81879200  0.88715400  0.02697490  1
  C  4165  1  0.80252200  0.89437200  0.01769390  1
  C  4166  1  0.79432200  0.88479800  0.00160591  1
  C  4167  1  0.79442300  0.91216900  0.02360990  1
  C  4168  1  0.77851100  0.92013600  0.01373990  1
  C  4169  1  0.77026700  0.91059900  0.99762800  1
  C  4170  1  0.77833100  0.89270100  0.99186500  1
  C  4192  1  0.75495600  0.91902200  0.98673000  1
  C  4193  1  0.91900700  0.91674400  0.14987200  1
  C  4194  1  0.91711100  0.75449700  0.98477000  1
  C  4198  1  0.49740000  0.63405800  0.99343400  1
  C  4199  1  0.49172000  0.62617200  0.01143590  1
  C  4200  1  0.50141500  0.61017800  0.01938990  1
  C  4201  1  0.51738200  0.60179900  0.00976191  1
  C  4202  1  0.52323000  0.60974000  0.99187100  1
  C  4203  1  0.51339900  0.62565000  0.98385100  1
  C  4204  1  0.52660800  0.58550800  0.01702090  1
  C  4205  1  0.53274600  0.58385300  0.03539290  1
  C  4206  1  0.54135100  0.56729400  0.04273990  1
  C  4207  1  0.55810100  0.55930600  0.03417590  1
  C  4208  1  0.56691600  0.54257300  0.04189690  1
  C  4209  1  0.55895800  0.53403900  0.05867190  1
  C  4210  1  0.54222900  0.54176100  0.06749290  1
  C  4211  1  0.53366000  0.55850600  0.05949890  1
  C  4212  1  0.53493900  0.53317900  0.08408590  1
  C  4213  1  0.51656800  0.52703000  0.08580990  1
  C  4214  1  0.50940800  0.51777800  0.10212400  1
  C  4215  1  0.49161500  0.52368000  0.11025000  1
  C  4216  1  0.51902800  0.50172900  0.11034700  1
  C  4217  1  0.51118000  0.49201100  0.12637700  1
  C  4218  1  0.49328600  0.49775400  0.13446400  1
  C  4219  1  0.48370200  0.51382900  0.12620200  1
  C  4220  1  0.58347000  0.53523700  0.03328090  1
  C  4221  1  0.58510100  0.51687300  0.02709590  1
  C  4222  1  0.60137100  0.50963800  0.01782590  1
  C  4223  1  0.60968200  0.51927600  0.00183091  1
  C  4224  1  0.60935400  0.49175600  0.02364590  1
  C  4225  1  0.62524000  0.48375800  0.01375790  1
  C  4226  1  0.63357800  0.49335100  0.99773100  1
  C  4227  1  0.62566200  0.51135300  0.99208900  1
  C  4249  1  0.64883100  0.48487300  0.98679700  1
  C  4250  1  0.48489700  0.48685600  0.14979700  1
  C  4251  1  0.48650500  0.64933600  0.98494400  1
  C  4255  1  0.90607400  0.63422300  0.41030800  1
  C  4256  1  0.91186400  0.62626500  0.39237200  1
  C  4257  1  0.90224500  0.61021100  0.38444700  1
  C  4258  1  0.88624100  0.60185200  0.39402700  1
  C  4259  1  0.88027300  0.60987600  0.41184300  1
  C  4260  1  0.89003200  0.62584000  0.41984000  1
  C  4261  1  0.87710200  0.58549500  0.38681500  1
  C  4262  1  0.87105300  0.58372300  0.36841900  1
  C  4263  1  0.86253500  0.56709400  0.36112900  1
  C  4264  1  0.84580900  0.55906700  0.36970100  1
  C  4265  1  0.83707600  0.54226400  0.36204100  1
  C  4266  1  0.84509800  0.53369700  0.34531000  1
  C  4267  1  0.86180500  0.54145500  0.33648000  1
  C  4268  1  0.87028800  0.55827200  0.34441600  1
  C  4269  1  0.86914500  0.53284500  0.31992400  1
  C  4270  1  0.88755700  0.52683000  0.31819800  1
  C  4271  1  0.89474200  0.51757300  0.30190100  1
  C  4272  1  0.91235000  0.52372000  0.29356200  1
  C  4273  1  0.88528500  0.50134000  0.29385500  1
  C  4274  1  0.89311300  0.49167900  0.27778200  1
  C  4275  1  0.91081200  0.49768300  0.26945400  1
  C  4276  1  0.92023600  0.51393500  0.27755500  1
  C  4277  1  0.82054400  0.53489400  0.37067100  1
  C  4278  1  0.81889900  0.51650200  0.37676200  1
  C  4279  1  0.80262900  0.50927200  0.38602500  1
  C  4280  1  0.79453200  0.51873600  0.40222900  1
  C  4281  1  0.79439500  0.49159800  0.37993500  1
  C  4282  1  0.77845400  0.48363600  0.38976000  1
  C  4283  1  0.77031800  0.49305200  0.40599900  1
  C  4284  1  0.77851700  0.51083500  0.41192900  1
  C  4306  1  0.75496300  0.48462100  0.41683200  1
  C  4307  1  0.91915000  0.48692200  0.25399400  1
  C  4308  1  0.91690100  0.64953800  0.41881900  1
  C  4312  1  0.49736900  0.76997400  0.41063100  1
  C  4313  1  0.49136500  0.77817200  0.39287400  1
  C  4314  1  0.50100600  0.79421100  0.38494700  1
  C  4315  1  0.51723500  0.80233000  0.39434900  1
  C  4316  1  0.52338800  0.79410800  0.41201000  1
  C  4317  1  0.51361400  0.77814900  0.42000500  1
  C  4318  1  0.52647200  0.81859900  0.38707600  1
  C  4319  1  0.53242800  0.82027500  0.36864000  1
  C  4320  1  0.54107300  0.83679300  0.36124900  1
  C  4321  1  0.55790600  0.84471100  0.36971600  1
  C  4322  1  0.56675900  0.86139200  0.36193200  1
  C  4323  1  0.55875100  0.86995300  0.34519200  1
  C  4324  1  0.54194200  0.86230000  0.33646200  1
  C  4325  1  0.53334200  0.84560000  0.34451700  1
  C  4326  1  0.53461200  0.87089800  0.31989200  1
  C  4327  1  0.51621700  0.87696400  0.31816600  1
  C  4328  1  0.50904700  0.88619900  0.30185200  1
  C  4329  1  0.49144300  0.88004600  0.29351400  1
  C  4330  1  0.51850800  0.90242400  0.29379800  1
  C  4331  1  0.51068700  0.91207100  0.27771100  1
  C  4332  1  0.49297300  0.90608300  0.26940500  1
  C  4333  1  0.48355500  0.88982700  0.27750700  1
  C  4334  1  0.58337900  0.86867500  0.37046400  1
  C  4335  1  0.58510600  0.88703600  0.37662000  1
  C  4336  1  0.60143300  0.89422300  0.38583300  1
  C  4337  1  0.60977900  0.88455200  0.40179000  1
  C  4338  1  0.60942200  0.91210100  0.38000800  1
  C  4339  1  0.62534700  0.92006800  0.38985800  1
  C  4340  1  0.63371700  0.91044500  0.40585300  1
  C  4341  1  0.62578900  0.89245100  0.41150100  1
  C  4363  1  0.64898200  0.91891000  0.41678600  1
  C  4364  1  0.48462400  0.91687500  0.25397300  1
  C  4365  1  0.48661900  0.75456300  0.41906800  1
  C  4369  1  0.45268400  0.45056000  0.19140600  1
  C  4370  1  0.45869400  0.46692600  0.18066800  1
  C  4371  1  0.45862800  0.46697900  0.16028000  1
  C  4372  1  0.45146600  0.45064100  0.15033600  1
  C  4373  1  0.44529700  0.43410800  0.16066400  1
  C  4374  1  0.44625400  0.43398100  0.18110100  1
  C  4377  1  0.45307800  0.45105800  0.21209100  1
  C  4378  1  0.46968300  0.45731000  0.22246200  1
  C  4379  1  0.46947100  0.45830300  0.24289800  1
  C  4380  1  0.45282300  0.45233800  0.25316000  1
  C  4381  1  0.43643800  0.44538700  0.24314600  1
  C  4382  1  0.43657900  0.44530000  0.22276000  1
  C  4399  1  0.95105700  0.95305000  0.19153000  1
  C  4400  1  0.94515700  0.93658300  0.18088800  1
  C  4401  1  0.94530300  0.93638300  0.16050300  1
  C  4402  1  0.95244300  0.95267300  0.15046600  1
  C  4403  1  0.95854100  0.96929000  0.16069800  1
  C  4404  1  0.95750200  0.96956300  0.18113100  1
  C  4407  1  0.95052200  0.95270600  0.21221700  1
  C  4408  1  0.93387900  0.94643900  0.22251800  1
  C  4409  1  0.93397500  0.94551800  0.24295800  1
  C  4410  1  0.95053900  0.95159300  0.25329200  1
  C  4411  1  0.96694400  0.95860000  0.24335100  1
  C  4412  1  0.96692600  0.95859900  0.22296200  1
  C  4429  1  0.95101100  0.45070900  0.21214900  1
  C  4430  1  0.94523300  0.46721200  0.22280200  1
  C  4431  1  0.94535800  0.46738200  0.24318700  1
  C  4432  1  0.95234500  0.45102100  0.25321600  1
  C  4433  1  0.95831700  0.43436700  0.24296900  1
  C  4434  1  0.95729500  0.43412400  0.22253500  1
  C  4437  1  0.95051900  0.45108000  0.19146400  1
  C  4438  1  0.93393200  0.45746100  0.18114100  1
  C  4439  1  0.93406800  0.45838800  0.16070200  1
  C  4440  1  0.95062000  0.45224100  0.15039200  1
  C  4441  1  0.96696900  0.44513100  0.16035700  1
  C  4442  1  0.96690700  0.44510100  0.18074500  1
  C  4459  1  0.45262100  0.95297600  0.21210200  1
  C  4460  1  0.45847200  0.93648600  0.22273500  1
  C  4461  1  0.45835200  0.93629400  0.24312100  1
  C  4462  1  0.45130400  0.95261600  0.25316800  1
  C  4463  1  0.44527100  0.96926100  0.24294000  1
  C  4464  1  0.44627100  0.96952300  0.22250600  1
  C  4467  1  0.45310200  0.95262500  0.19141800  1
  C  4468  1  0.46971700  0.94633800  0.18108200  1
  C  4469  1  0.46957800  0.94543400  0.16064300  1
  C  4470  1  0.45299800  0.95152500  0.15034300  1
  C  4471  1  0.43661300  0.95852700  0.16032500  1
  C  4472  1  0.43668100  0.95854000  0.18071200  1
  C  4489  1  0.19252900  0.45260100  0.45055000  1
  C  4490  1  0.18172500  0.45844300  0.46692900  1
  C  4491  1  0.16133700  0.45831300  0.46692000  1
  C  4492  1  0.15146200  0.45123900  0.45050500  1
  C  4493  1  0.16185700  0.44522300  0.43395800  1
  C  4494  1  0.18229200  0.44624500  0.43389700  1
  C  4497  1  0.21321300  0.45307200  0.45112600  1
  C  4498  1  0.22351100  0.46964700  0.45758400  1
  C  4499  1  0.24394500  0.46949000  0.45866200  1
  C  4500  1  0.25427800  0.45292600  0.45258000  1
  C  4501  1  0.24434300  0.43658400  0.44541300  1
  C  4502  1  0.22395700  0.43666200  0.44526100  1
  C  4519  1  0.19253200  0.95097300  0.95319600  1
  C  4520  1  0.18172100  0.94519600  0.93679700  1
  C  4521  1  0.16133200  0.94538200  0.93678700  1
  C  4522  1  0.15146800  0.95248200  0.95319700  1
  C  4523  1  0.16186700  0.95844800  0.96975800  1
  C  4524  1  0.18229700  0.95734900  0.96984400  1
  C  4527  1  0.21321600  0.95038800  0.95265300  1
  C  4528  1  0.22342900  0.93377000  0.94616400  1
  C  4529  1  0.24386300  0.93381600  0.94511900  1
  C  4530  1  0.25428400  0.95029200  0.95128800  1
  C  4531  1  0.24443700  0.96666700  0.95850300  1
  C  4532  1  0.22404900  0.96670700  0.95860600  1
  C  4549  1  0.21103600  0.95104700  0.45063500  1
  C  4550  1  0.22179600  0.94533300  0.46708900  1
  C  4551  1  0.24218200  0.94548600  0.46713500  1
  C  4552  1  0.25210400  0.95244000  0.45069700  1
  C  4553  1  0.24174900  0.95835000  0.43409000  1
  C  4554  1  0.22131600  0.95730800  0.43397300  1
  C  4557  1  0.19035200  0.95052100  0.45114500  1
  C  4558  1  0.18008300  0.93395200  0.45766400  1
  C  4559  1  0.15964800  0.93406500  0.45869300  1
  C  4560  1  0.14928700  0.95056800  0.45249900  1
  C  4561  1  0.15919300  0.96689400  0.44525500  1
  C  4562  1  0.17958100  0.96686600  0.44515300  1
  C  4579  1  0.21104500  0.45251500  0.95293000  1
  C  4580  1  0.22169500  0.45822600  0.93640400  1
  C  4581  1  0.24207800  0.45804400  0.93621600  1
  C  4582  1  0.25210800  0.45107400  0.95258200  1
  C  4583  1  0.24186300  0.44517600  0.96926300  1
  C  4584  1  0.22143100  0.44622600  0.96951600  1
  C  4587  1  0.19036200  0.45305200  0.95255700  1
  C  4588  1  0.18006400  0.46964300  0.94614500  1
  C  4589  1  0.15962500  0.46953500  0.94521000  1
  C  4590  1  0.14929200  0.45301200  0.95140200  1
  C  4591  1  0.15923400  0.43665800  0.95853200  1
  C  4592  1  0.17962200  0.43668800  0.95855400  1
  C  4609  1  0.45032400  0.19200600  0.45260600  1
  C  4610  1  0.46663100  0.18115400  0.45856600  1
  C  4611  1  0.46651500  0.16076600  0.45856700  1
  C  4612  1  0.45007300  0.15093300  0.45149300  1
  C  4613  1  0.43359800  0.16137800  0.44536600  1
  C  4614  1  0.43363700  0.18181700  0.44627100  1
  C  4617  1  0.45098600  0.21268600  0.45298400  1
  C  4618  1  0.45740200  0.22302300  0.46954900  1
  C  4619  1  0.45855400  0.24345000  0.46931500  1
  C  4620  1  0.45257500  0.25374400  0.45269200  1
  C  4621  1  0.44545800  0.24377100  0.43635200  1
  C  4622  1  0.44522600  0.22338600  0.43650600  1
  C  4639  1  0.95306700  0.19208100  0.95110700  1
  C  4640  1  0.93658900  0.18141100  0.94529600  1
  C  4641  1  0.93645100  0.16102700  0.94538200  1
  C  4642  1  0.95280700  0.15101200  0.95239500  1
  C  4643  1  0.96943200  0.16127300  0.95842400  1
  C  4644  1  0.96964900  0.18170900  0.95742900  1
  C  4647  1  0.95266600  0.21276700  0.95059600  1
  C  4648  1  0.94625000  0.22306800  0.93400900  1
  C  4649  1  0.94523200  0.24350200  0.93415000  1
  C  4650  1  0.95136500  0.25383400  0.95069400  1
  C  4651  1  0.95852700  0.24389600  0.96703500  1
  C  4652  1  0.95861500  0.22350700  0.96697900  1
  C  4669  1  0.45060300  0.21154800  0.95114600  1
  C  4670  1  0.46707700  0.22225600  0.94539400  1
  C  4671  1  0.46716300  0.24264000  0.94547500  1
  C  4672  1  0.45075200  0.25262000  0.95241000  1
  C  4673  1  0.43413000  0.24231800  0.95837500  1
  C  4674  1  0.43397000  0.22188100  0.95739200  1
  C  4677  1  0.45105500  0.19086400  0.95064500  1
  C  4678  1  0.45755000  0.18057000  0.93408400  1
  C  4679  1  0.45859300  0.16013800  0.93423100  1
  C  4680  1  0.45242900  0.14980000  0.95076100  1
  C  4681  1  0.44519400  0.15972900  0.96707400  1
  C  4682  1  0.44506900  0.18011800  0.96701100  1
  C  4699  1  0.95303300  0.21161900  0.45251700  1
  C  4700  1  0.93657400  0.22228000  0.45840100  1
  C  4701  1  0.93645600  0.24266400  0.45838100  1
  C  4702  1  0.95281700  0.25269300  0.45139800  1
  C  4703  1  0.96943000  0.24243800  0.44532600  1
  C  4704  1  0.96962000  0.22199800  0.44622500  1
  C  4707  1  0.95259900  0.19093500  0.45289800  1
  C  4708  1  0.94622900  0.18053700  0.46944300  1
  C  4709  1  0.94521200  0.16010400  0.46918500  1
  C  4710  1  0.95128200  0.14986800  0.45255700  1
  C  4711  1  0.95836300  0.15990700  0.43624300  1
  C  4712  1  0.95847300  0.18029400  0.43642400  1
  C  4729  1  0.45265800  0.95071100  0.69140300  1
  C  4730  1  0.45859700  0.96708900  0.68064800  1
  C  4731  1  0.45840500  0.96716500  0.66026000  1
  C  4732  1  0.45117400  0.95084000  0.65034300  1
  C  4733  1  0.44506600  0.93429800  0.66069100  1
  C  4734  1  0.44615400  0.93414600  0.68111900  1
  C  4737  1  0.45315700  0.95121000  0.71208800  1
  C  4738  1  0.46980500  0.95746300  0.72239300  1
  C  4739  1  0.46969100  0.95841500  0.74283400  1
  C  4740  1  0.45309500  0.95241800  0.75316200  1
  C  4741  1  0.43666700  0.94548100  0.74321000  1
  C  4742  1  0.43670900  0.94543700  0.72282400  1
  C  4759  1  0.95106400  0.45289000  0.69153300  1
  C  4760  1  0.94522200  0.43641700  0.68087200  1
  C  4761  1  0.94549400  0.43619700  0.66048800  1
  C  4762  1  0.95271500  0.45246800  0.65047900  1
  C  4763  1  0.95876200  0.46909200  0.66073000  1
  C  4764  1  0.95759400  0.46938900  0.68115600  1
  C  4767  1  0.95042800  0.45254700  0.71221800  1
  C  4768  1  0.93373800  0.44628700  0.72245400  1
  C  4769  1  0.93374000  0.44540700  0.74289700  1
  C  4770  1  0.95025500  0.45150600  0.75329400  1
  C  4771  1  0.96670600  0.45849300  0.74341300  1
  C  4772  1  0.96678400  0.45844400  0.72302700  1
  C  4789  1  0.95105400  0.95083000  0.71212600  1
  C  4790  1  0.94534500  0.96734500  0.72279400  1
  C  4791  1  0.94560100  0.96754400  0.74317800  1
  C  4792  1  0.95266600  0.95120300  0.75318300  1
  C  4793  1  0.95858100  0.93453600  0.74292100  1
  C  4794  1  0.95742200  0.93426500  0.72249500  1
  C  4797  1  0.95045300  0.95119700  0.69144200  1
  C  4798  1  0.93382100  0.95757700  0.68118700  1
  C  4799  1  0.93385500  0.95846000  0.66074500  1
  C  4800  1  0.95035400  0.95228100  0.65036900  1
  C  4801  1  0.96674600  0.94518700  0.66027000  1
  C  4802  1  0.96678800  0.94520500  0.68065700  1
  C  4819  1  0.45259800  0.45282300  0.71210500  1
  C  4820  1  0.45837200  0.43632100  0.72275800  1
  C  4821  1  0.45811800  0.43610500  0.74314200  1
  C  4822  1  0.45100200  0.45241600  0.75316100  1
  C  4823  1  0.44503800  0.46907300  0.74291300  1
  C  4824  1  0.44617400  0.46936000  0.72248700  1
  C  4827  1  0.45318700  0.45247500  0.69142300  1
  C  4828  1  0.46984800  0.44618700  0.68115700  1
  C  4829  1  0.46981200  0.44532600  0.66071400  1
  C  4830  1  0.45328600  0.45145000  0.65034700  1
  C  4831  1  0.43685600  0.45843700  0.66026300  1
  C  4832  1  0.43682000  0.45840200  0.68065000  1
  C  4849  1  0.45036700  0.69090500  0.95260800  1
  C  4850  1  0.46664500  0.68005700  0.95864900  1
  C  4851  1  0.46653100  0.65966700  0.95866100  1
  C  4852  1  0.45011500  0.64983600  0.95152100  1
  C  4853  1  0.43366600  0.66027700  0.94531400  1
  C  4854  1  0.43370700  0.68071800  0.94620300  1
  C  4857  1  0.45102500  0.71158500  0.95297600  1
  C  4858  1  0.45730400  0.72192800  0.96958900  1
  C  4859  1  0.45843400  0.74235500  0.96936100  1
  C  4860  1  0.45260200  0.75264200  0.95268100  1
  C  4861  1  0.44564000  0.74265900  0.93628200  1
  C  4862  1  0.44539500  0.72227500  0.93644700  1
  C  4879  1  0.95329300  0.69091300  0.45105500  1
  C  4880  1  0.93695600  0.68013500  0.44504700  1
  C  4881  1  0.93695300  0.65974500  0.44509500  1
  C  4882  1  0.95330300  0.64984300  0.45228800  1
  C  4883  1  0.96979600  0.66020900  0.45850200  1
  C  4884  1  0.96988100  0.68064700  0.45753100  1
  C  4887  1  0.95275400  0.71159800  0.45057800  1
  C  4888  1  0.94646300  0.72189200  0.43393600  1
  C  4889  1  0.94537200  0.74232100  0.43408800  1
  C  4890  1  0.95127700  0.75266200  0.45070900  1
  C  4891  1  0.95829100  0.74273400  0.46711900  1
  C  4892  1  0.95847300  0.72234600  0.46704000  1
  C  4909  1  0.45064500  0.71270700  0.45113100  1
  C  4910  1  0.46709000  0.72341700  0.44529700  1
  C  4911  1  0.46717600  0.74380200  0.44537400  1
  C  4912  1  0.45078800  0.75377700  0.45237900  1
  C  4913  1  0.43419100  0.74347400  0.45842000  1
  C  4914  1  0.43403600  0.72303500  0.45744500  1
  C  4917  1  0.45109900  0.69202500  0.45063900  1
  C  4918  1  0.45745700  0.68172600  0.43402600  1
  C  4919  1  0.45847900  0.66129300  0.43416500  1
  C  4920  1  0.45246600  0.65096000  0.45075200  1
  C  4921  1  0.44538500  0.66089700  0.46712900  1
  C  4922  1  0.44524400  0.68128600  0.46705700  1
  C  4939  1  0.95307300  0.71278700  0.95245600  1
  C  4940  1  0.93664500  0.72345000  0.95842000  1
  C  4941  1  0.93652900  0.74383600  0.95840500  1
  C  4942  1  0.95286600  0.75385800  0.95135300  1
  C  4943  1  0.96945400  0.74360300  0.94520600  1
  C  4944  1  0.96963600  0.72315900  0.94609300  1
  C  4947  1  0.95263400  0.69210300  0.95283300  1
  C  4948  1  0.94639700  0.68170500  0.96942700  1
  C  4949  1  0.94539500  0.66127000  0.96917900  1
  C  4950  1  0.95131100  0.65103800  0.95249500  1
  C  4951  1  0.95824000  0.66108200  0.93611700  1
  C  4952  1  0.95837300  0.68146900  0.93630700  1
  C  4969  1  0.69038100  0.45261100  0.95058700  1
  C  4970  1  0.67956100  0.45866700  0.96687600  1
  C  4971  1  0.65917100  0.45856700  0.96684500  1
  C  4972  1  0.64931500  0.45127800  0.95050800  1
  C  4973  1  0.65972600  0.44503400  0.93405300  1
  C  4974  1  0.68016100  0.44605600  0.93400300  1
  C  4977  1  0.71106500  0.45307000  0.95118400  1
  C  4978  1  0.72137000  0.46972100  0.95743700  1
  C  4979  1  0.74180200  0.46956500  0.95851300  1
  C  4980  1  0.75213000  0.45291900  0.95266100  1
  C  4981  1  0.74218500  0.43649200  0.94571300  1
  C  4982  1  0.72180100  0.43657900  0.94553600  1
  C  4999  1  0.69040600  0.95097200  0.45323700  1
  C  5000  1  0.67959500  0.94498600  0.43691400  1
  C  5001  1  0.65920500  0.94514500  0.43690400  1
  C  5002  1  0.64934300  0.95245900  0.45322600  1
  C  5003  1  0.65974000  0.95864800  0.46970900  1
  C  5004  1  0.68017000  0.95754700  0.46980600  1
  C  5007  1  0.71108900  0.95039800  0.45269200  1
  C  5008  1  0.72131700  0.93371100  0.44640600  1
  C  5009  1  0.74175000  0.93376000  0.44536500  1
  C  5010  1  0.75215900  0.95032100  0.45131400  1
  C  5011  1  0.74229600  0.96677800  0.45831100  1
  C  5012  1  0.72190900  0.96680100  0.45843700  1
  C  5029  1  0.71324100  0.95109000  0.95059100  1
  C  5030  1  0.72401100  0.94518000  0.96696900  1
  C  5031  1  0.74439800  0.94530700  0.96700400  1
  C  5032  1  0.75430700  0.95246500  0.95064200  1
  C  5033  1  0.74394500  0.95858400  0.93411100  1
  C  5034  1  0.72351100  0.95753600  0.93399600  1
  C  5037  1  0.69256000  0.95057100  0.95111000  1
  C  5038  1  0.68228600  0.93392800  0.95743200  1
  C  5039  1  0.66185300  0.93403500  0.95845900  1
  C  5040  1  0.65149200  0.95061900  0.95248800  1
  C  5041  1  0.66140600  0.96703000  0.94545500  1
  C  5042  1  0.68179300  0.96699500  0.94532300  1
  C  5059  1  0.71323100  0.45253800  0.45292900  1
  C  5060  1  0.72390700  0.45845600  0.43649500  1
  C  5061  1  0.74429200  0.45830300  0.43634000  1
  C  5062  1  0.75429300  0.45112500  0.45263800  1
  C  5063  1  0.74402200  0.44500800  0.46922700  1
  C  5064  1  0.72358900  0.44605900  0.46945600  1
  C  5067  1  0.69254800  0.45305600  0.45252100  1
  C  5068  1  0.68224100  0.46971500  0.44630200  1
  C  5069  1  0.66180200  0.46960100  0.44536200  1
  C  5070  1  0.65147600  0.45299200  0.45132600  1
  C  5071  1  0.66143200  0.43655600  0.45824000  1
  C  5072  1  0.68181800  0.43660600  0.45829800  1
  N  1847  1  0.21850500  0.23612600  0.05084900  1
  N  1849  1  0.28262600  0.26298800  0.05058000  1
  N  1851  1  0.23569100  0.21630500  0.94833800  1
  N  1853  1  0.26333200  0.28007100  0.94777300  1
  N  1877  1  0.78007400  0.76321600  0.05114500  1
  N  1879  1  0.71609900  0.73607400  0.05057700  1
  N  1881  1  0.76342900  0.78232000  0.94826400  1
  N  1883  1  0.73593800  0.71849500  0.94810200  1
  N  1907  1  0.78008500  0.23575700  0.94787700  1
  N  1909  1  0.71625200  0.26323200  0.94835400  1
  N  1911  1  0.76304900  0.21653400  0.05066000  1
  N  1913  1  0.73611300  0.28062400  0.05087900  1
  N  1937  1  0.21875100  0.76317300  0.94787300  1
  N  1939  1  0.28272700  0.73598700  0.94828700  1
  N  1941  1  0.23574000  0.78233600  0.05065500  1
  N  1943  1  0.26293600  0.71835600  0.05079500  1
  N  1967  1  0.05212200  0.21874700  0.23606100  1
  N  1969  1  0.05156500  0.28261900  0.26351300  1
  N  1971  1  0.94958800  0.23569500  0.21608000  1
  N  1973  1  0.94877000  0.26293500  0.28000600  1
  N  1997  1  0.05231800  0.77968100  0.76327100  1
  N  1999  1  0.05140300  0.71593000  0.73558100  1
  N  2001  1  0.94960700  0.76328000  0.78293400  1
  N  2003  1  0.94874800  0.73608700  0.71899800  1
  N  2027  1  0.94666900  0.77995400  0.23581200  1
  N  2029  1  0.94734600  0.71624000  0.26359500  1
  N  2031  1  0.04935000  0.76303600  0.21617700  1
  N  2033  1  0.04998200  0.73622300  0.28029300  1
  N  2057  1  0.94675500  0.21884900  0.76326100  1
  N  2059  1  0.94729700  0.28267800  0.73569800  1
  N  2061  1  0.04956300  0.23571700  0.78237900  1
  N  2063  1  0.04976700  0.26255200  0.71825800  1
  N  2087  1  0.23619100  0.05151100  0.21844500  1
  N  2089  1  0.26339300  0.05109000  0.28242700  1
  N  2091  1  0.21565800  0.94916300  0.23589700  1
  N  2093  1  0.27951200  0.94815600  0.26331000  1
  N  2117  1  0.76315100  0.05169400  0.78016000  1
  N  2119  1  0.73562400  0.05111300  0.71634300  1
  N  2121  1  0.78254500  0.94886300  0.76315000  1
  N  2123  1  0.71857000  0.94861700  0.73603900  1
  N  2147  1  0.23582800  0.94722100  0.78017800  1
  N  2149  1  0.26357600  0.94782500  0.71645400  1
  N  2151  1  0.21623500  0.04996900  0.76302400  1
  N  2153  1  0.28033700  0.05037100  0.73614300  1
  N  2177  1  0.76295300  0.94752700  0.21830900  1
  N  2179  1  0.73565500  0.94769800  0.28225300  1
  N  2181  1  0.78255000  0.05014100  0.23587100  1
  N  2183  1  0.71857000  0.05034900  0.26305500  1
  N  2207  1  0.21881500  0.73611900  0.55096100  1
  N  2209  1  0.28291800  0.76301500  0.55046900  1
  N  2211  1  0.23537900  0.71651500  0.44838900  1
  N  2213  1  0.26303100  0.78027800  0.44773100  1
  N  2237  1  0.77976000  0.26320100  0.55125400  1
  N  2239  1  0.71578700  0.23605800  0.55047100  1
  N  2241  1  0.76374700  0.28209300  0.44832200  1
  N  2243  1  0.73619500  0.21829300  0.44806500  1
  N  2267  1  0.77978500  0.73571700  0.44774100  1
  N  2269  1  0.71596300  0.76321800  0.44844500  1
  N  2271  1  0.76340100  0.71673000  0.55059200  1
  N  2273  1  0.73643200  0.78080800  0.55088900  1
  N  2297  1  0.21907500  0.26318000  0.44776100  1
  N  2299  1  0.28303500  0.23596700  0.44840700  1
  N  2301  1  0.23543100  0.28213100  0.55060200  1
  N  2303  1  0.26261700  0.21814500  0.55083900  1
  N  2327  1  0.23650900  0.55039600  0.71831400  1
  N  2329  1  0.26312700  0.55000700  0.78253200  1
  N  2331  1  0.21572900  0.44805600  0.73584000  1
  N  2333  1  0.27952700  0.44705700  0.76341600  1
  N  2357  1  0.76275700  0.55054700  0.28030400  1
  N  2359  1  0.73592500  0.54992600  0.21620400  1
  N  2361  1  0.78293400  0.44789100  0.26331300  1
  N  2363  1  0.71920900  0.44720200  0.23563300  1
  N  2387  1  0.23616100  0.44839000  0.28029500  1
  N  2389  1  0.26331300  0.44897100  0.21632700  1
  N  2391  1  0.21629700  0.55112600  0.26307600  1
  N  2393  1  0.28035000  0.55153700  0.23603900  1
  N  2417  1  0.76268700  0.44870100  0.71812400  1
  N  2419  1  0.73598700  0.44885700  0.78230800  1
  N  2421  1  0.78257600  0.55130600  0.73575000  1
  N  2423  1  0.71864500  0.55152600  0.76308500  1
  N  2447  1  0.54995900  0.21859800  0.73649600  1
  N  2449  1  0.54942900  0.28275900  0.76320500  1
  N  2451  1  0.44747200  0.23536100  0.71622900  1
  N  2453  1  0.44659300  0.26334100  0.77986000  1
  N  2477  1  0.55016700  0.77985800  0.26293000  1
  N  2479  1  0.54930000  0.71582100  0.23596800  1
  N  2481  1  0.44747900  0.76362800  0.28282000  1
  N  2483  1  0.44662500  0.73570700  0.21917200  1
  N  2507  1  0.44888200  0.78014300  0.73615000  1
  N  2509  1  0.44954900  0.71614900  0.76321500  1
  N  2511  1  0.55153600  0.76341000  0.71625200  1
  N  2513  1  0.55220400  0.73592100  0.78010800  1
  N  2537  1  0.44896000  0.21868300  0.26282000  1
  N  2539  1  0.44946500  0.28279800  0.23599600  1
  N  2541  1  0.55169900  0.23541600  0.28230300  1
  N  2543  1  0.55200300  0.26295500  0.21845600  1
  N  4391  1  0.42085700  0.43847800  0.25320100  1
  N  4393  1  0.48497800  0.46534000  0.25293200  1
  N  4395  1  0.43804300  0.41865700  0.15069000  1
  N  4397  1  0.46568400  0.48242300  0.15012500  1
  N  4421  1  0.98242600  0.96556800  0.25349700  1
  N  4423  1  0.91845100  0.93842600  0.25292900  1
  N  4425  1  0.96578100  0.98467200  0.15061600  1
  N  4427  1  0.93829000  0.92084700  0.15045400  1
  N  4451  1  0.98243700  0.43810900  0.15022900  1
  N  4453  1  0.91860400  0.46558400  0.15070600  1
  N  4455  1  0.96540100  0.41888600  0.25301200  1
  N  4457  1  0.93846500  0.48297600  0.25323100  1
  N  4481  1  0.42110300  0.96552500  0.15022500  1
  N  4483  1  0.48507900  0.93833900  0.15063900  1
  N  4485  1  0.43809200  0.98468800  0.25300700  1
  N  4487  1  0.46528800  0.92070800  0.25314700  1
  N  4511  1  0.25447400  0.42109900  0.43841300  1
  N  4513  1  0.25391700  0.48497100  0.46586500  1
  N  4515  1  0.15194000  0.43804700  0.41843200  1
  N  4517  1  0.15112200  0.46528700  0.48235800  1
  N  4541  1  0.25467000  0.98203300  0.96562300  1
  N  4543  1  0.25375500  0.91828200  0.93793300  1
  N  4545  1  0.15195900  0.96563200  0.98528600  1
  N  4547  1  0.15110000  0.93843900  0.92135000  1
  N  4571  1  0.14902100  0.98230600  0.43816400  1
  N  4573  1  0.14969800  0.91859200  0.46594700  1
  N  4575  1  0.25170200  0.96538800  0.41852900  1
  N  4577  1  0.25233400  0.93857500  0.48264500  1
  N  4601  1  0.14910700  0.42120100  0.96561300  1
  N  4603  1  0.14964900  0.48503000  0.93805000  1
  N  4605  1  0.25191500  0.43806900  0.98473100  1
  N  4607  1  0.25211900  0.46490400  0.92061000  1
  N  4631  1  0.43854300  0.25386300  0.42079700  1
  N  4633  1  0.46574500  0.25344200  0.48477900  1
  N  4635  1  0.41801000  0.15151500  0.43824900  1
  N  4637  1  0.48186400  0.15050800  0.46566200  1
  N  4661  1  0.96550300  0.25404600  0.98251200  1
  N  4663  1  0.93797600  0.25346500  0.91869500  1
  N  4665  1  0.98489700  0.15121500  0.96550200  1
  N  4667  1  0.92092200  0.15096900  0.93839100  1
  N  4691  1  0.43818000  0.14957300  0.98253000  1
  N  4693  1  0.46592800  0.15017700  0.91880600  1
  N  4695  1  0.41858700  0.25232100  0.96537600  1
  N  4697  1  0.48268900  0.25272300  0.93849500  1
  N  4721  1  0.96530500  0.14987900  0.42066100  1
  N  4723  1  0.93800700  0.15005000  0.48460500  1
  N  4725  1  0.98490200  0.25249300  0.43822300  1
  N  4727  1  0.92092200  0.25270100  0.46540700  1
  N  4751  1  0.42116700  0.93847100  0.75331300  1
  N  4753  1  0.48527000  0.96536700  0.75282100  1
  N  4755  1  0.43773100  0.91886700  0.65074100  1
  N  4757  1  0.46538300  0.98263000  0.65008300  1
  N  4781  1  0.98211200  0.46555300  0.75360600  1
  N  4783  1  0.91813900  0.43841000  0.75282300  1
  N  4785  1  0.96609900  0.48444500  0.65067400  1
  N  4787  1  0.93854700  0.42064500  0.65041700  1
  N  4811  1  0.98213700  0.93806900  0.65009300  1
  N  4813  1  0.91831500  0.96557000  0.65079700  1
  N  4815  1  0.96575300  0.91908200  0.75294400  1
  N  4817  1  0.93878400  0.98316000  0.75324100  1
  N  4841  1  0.42142700  0.46553200  0.65011300  1
  N  4843  1  0.48538700  0.43831900  0.65075900  1
  N  4845  1  0.43778300  0.48448300  0.75295400  1
  N  4847  1  0.46496900  0.42049700  0.75319100  1
  N  4871  1  0.43886100  0.75274800  0.92066600  1
  N  4873  1  0.46547900  0.75235900  0.98488400  1
  N  4875  1  0.41808100  0.65040800  0.93819200  1
  N  4877  1  0.48187900  0.64940900  0.96576800  1
  N  4901  1  0.96510900  0.75289900  0.48265600  1
  N  4903  1  0.93827700  0.75227800  0.41855600  1
  N  4905  1  0.98528600  0.65024300  0.46566500  1
  N  4907  1  0.92156100  0.64955400  0.43798500  1
  N  4931  1  0.43851300  0.65074200  0.48264700  1
  N  4933  1  0.46566500  0.65132300  0.41867900  1
  N  4935  1  0.41864900  0.75347800  0.46542800  1
  N  4937  1  0.48270200  0.75388900  0.43839100  1
  N  4961  1  0.96503900  0.65105300  0.92047600  1
  N  4963  1  0.93833900  0.65120900  0.98466000  1
  N  4965  1  0.98492800  0.75365800  0.93810200  1
  N  4967  1  0.92099700  0.75387800  0.96543700  1
  N  4991  1  0.75231100  0.42095000  0.93884800  1
  N  4993  1  0.75178100  0.48511100  0.96555700  1
  N  4995  1  0.64982400  0.43771300  0.91858100  1
  N  4997  1  0.64894500  0.46569300  0.98221200  1
  N  5021  1  0.75251900  0.98221000  0.46528200  1
  N  5023  1  0.75165200  0.91817300  0.43832000  1
  N  5025  1  0.64983100  0.96598000  0.48517200  1
  N  5027  1  0.64897700  0.93805900  0.42152400  1
  N  5051  1  0.65123400  0.98249500  0.93850200  1
  N  5053  1  0.65190100  0.91850100  0.96556700  1
  N  5055  1  0.75388800  0.96576200  0.91860400  1
  N  5057  1  0.75455600  0.93827300  0.98246000  1
  N  5081  1  0.65131200  0.42103500  0.46517200  1
  N  5083  1  0.65181700  0.48515000  0.43834800  1
  N  5085  1  0.75405100  0.43776800  0.48465500  1
  N  5087  1  0.75435500  0.46530700  0.42080800  1
  O  55  1  0.22376400  0.20461000  0.03928500  1
  O  56  1  0.04020700  0.22379000  0.20462700  1
  O  57  1  0.20466000  0.03995000  0.22365200  1
  O  112  1  0.77549000  0.79461000  0.03898800  1
  O  113  1  0.95901200  0.77534400  0.20449500  1
  O  114  1  0.79446100  0.95914600  0.22354800  1
  O  169  1  0.77532700  0.20435800  0.95995000  1
  O  170  1  0.95894300  0.22363500  0.79461100  1
  O  171  1  0.79455300  0.03954500  0.77560200  1
  O  226  1  0.22373000  0.79460400  0.95970700  1
  O  227  1  0.03984400  0.77531000  0.79454900  1
  O  228  1  0.20443900  0.95930400  0.77549200  1
  O  283  1  0.20422200  0.22293000  0.95920300  1
  O  284  1  0.22262800  0.03924100  0.79461700  1
  O  285  1  0.03877000  0.20417900  0.77599200  1
  O  340  1  0.79487100  0.77620700  0.95944900  1
  O  341  1  0.77642700  0.95984600  0.79469200  1
  O  342  1  0.96033500  0.79478800  0.77628500  1
  O  397  1  0.20425300  0.77596200  0.03969900  1
  O  398  1  0.22256800  0.95959700  0.20431300  1
  O  399  1  0.03869700  0.79460700  0.22275000  1
  O  454  1  0.79456600  0.22290900  0.03971800  1
  O  455  1  0.77615000  0.03941500  0.20431500  1
  O  456  1  0.96030300  0.20416700  0.22271000  1
  O  511  1  0.22411900  0.70468000  0.53919000  1
  O  512  1  0.04064500  0.72266100  0.70407200  1
  O  513  1  0.20489600  0.53902600  0.72343800  1
  O  568  1  0.77519700  0.29450900  0.53884600  1
  O  569  1  0.95812600  0.27609000  0.70418200  1
  O  570  1  0.79428300  0.46011500  0.72327400  1
  O  625  1  0.77502200  0.70440100  0.46005400  1
  O  626  1  0.95819800  0.72283300  0.29507400  1
  O  627  1  0.79425100  0.53859700  0.27586600  1
  O  682  1  0.22405600  0.29452600  0.45983900  1
  O  683  1  0.04060300  0.27621900  0.29499900  1
  O  684  1  0.20468600  0.46027700  0.27570300  1
  O  739  1  0.20396200  0.72329200  0.45929500  1
  O  740  1  0.22258100  0.54031600  0.29466000  1
  O  741  1  0.03827400  0.70472800  0.27536200  1
  O  796  1  0.79513400  0.27578400  0.45954400  1
  O  797  1  0.77661900  0.45881700  0.29483400  1
  O  798  1  0.96088500  0.29432700  0.27555000  1
  O  853  1  0.20399200  0.27561000  0.53959900  1
  O  854  1  0.22253200  0.45857000  0.70426100  1
  O  855  1  0.03838800  0.29412400  0.72360200  1
  O  910  1  0.79486700  0.72328400  0.53961200  1
  O  911  1  0.77627200  0.54053100  0.70419500  1
  O  912  1  0.96105000  0.70470500  0.72318500  1
  O  967  1  0.72226200  0.20444500  0.53988200  1
  O  968  1  0.53832700  0.22370900  0.70496600  1
  O  969  1  0.70417700  0.04017300  0.72309900  1
  O  1024  1  0.27659300  0.79465200  0.53982400  1
  O  1025  1  0.46090300  0.77544100  0.70472100  1
  O  1026  1  0.29499300  0.95885300  0.72311900  1
  O  1081  1  0.27654100  0.20434200  0.45898300  1
  O  1082  1  0.46088500  0.22347700  0.29427200  1
  O  1083  1  0.29485000  0.04002200  0.27591000  1
  O  1138  1  0.72248400  0.79479600  0.45901800  1
  O  1139  1  0.53792900  0.77550100  0.29430500  1
  O  1140  1  0.70419900  0.95869000  0.27567100  1
  O  1195  1  0.70469500  0.22328800  0.45972800  1
  O  1196  1  0.72413100  0.03880500  0.29453500  1
  O  1197  1  0.54073300  0.20395300  0.27584600  1
  O  1252  1  0.29443600  0.77584600  0.45981900  1
  O  1253  1  0.27511900  0.96059200  0.29460100  1
  O  1254  1  0.45839100  0.79505200  0.27608600  1
  O  1309  1  0.70485100  0.77569900  0.53943400  1
  O  1310  1  0.72390700  0.96030400  0.70456500  1
  O  1311  1  0.54066700  0.79489500  0.72287000  1
  O  1366  1  0.29419700  0.22338300  0.53945000  1
  O  1367  1  0.27484600  0.03885600  0.70464800  1
  O  1368  1  0.45838600  0.20391900  0.72293000  1
  O  1423  1  0.72263000  0.70453600  0.03978100  1
  O  1424  1  0.53874200  0.72249300  0.20437800  1
  O  1425  1  0.70439700  0.53909100  0.22274600  1
  O  1480  1  0.27631400  0.29454600  0.03967600  1
  O  1481  1  0.46007700  0.27626400  0.20439300  1
  O  1482  1  0.29481700  0.45985200  0.22281800  1
  O  1537  1  0.27622000  0.70443700  0.95910300  1
  O  1538  1  0.46024800  0.72263300  0.79477200  1
  O  1539  1  0.29466600  0.53907000  0.77619100  1
  O  1594  1  0.72278100  0.29473400  0.95917100  1
  O  1595  1  0.53862900  0.27649100  0.79477500  1
  O  1596  1  0.70444300  0.45969100  0.77589100  1
  O  1651  1  0.70447200  0.72366400  0.95976700  1
  O  1652  1  0.72401400  0.53982400  0.79453800  1
  O  1653  1  0.54018700  0.70452600  0.77528700  1
  O  1708  1  0.29470700  0.27542500  0.95985200  1
  O  1709  1  0.27527400  0.45960300  0.79467900  1
  O  1710  1  0.45899300  0.29462600  0.77543600  1
  O  1765  1  0.70456000  0.27528700  0.03945900  1
  O  1766  1  0.72351100  0.45973200  0.20436100  1
  O  1767  1  0.54033400  0.29442200  0.22375200  1
  O  1822  1  0.29447700  0.72382300  0.03941700  1
  O  1823  1  0.27502400  0.53991200  0.20456300  1
  O  1824  1  0.45920300  0.70443000  0.22332300  1
  O  1832  1  0.24892300  0.24820000  0.92826800  1
  O  1839  1  0.25047000  0.25017300  0.07052500  1
  O  1841  1  0.23872800  0.21511600  0.98819800  1
  O  1842  1  0.28395200  0.25990100  0.01072700  1
  O  1862  1  0.75034400  0.75026000  0.92839800  1
  O  1869  1  0.74807300  0.74910500  0.07065800  1
  O  1871  1  0.76022300  0.78381100  0.98813200  1
  O  1872  1  0.71498100  0.73903000  0.01071000  1
  O  1892  1  0.75021400  0.24870200  0.07058000  1
  O  1899  1  0.74819500  0.25005500  0.92832400  1
  O  1901  1  0.75991200  0.21515100  0.01081500  1
  O  1902  1  0.71505200  0.26026100  0.98822600  1
  O  1922  1  0.24872400  0.75020700  0.07053200  1
  O  1929  1  0.25071500  0.74905500  0.92827500  1
  O  1931  1  0.23887500  0.78378000  0.01080400  1
  O  1932  1  0.28391800  0.73890400  0.98815600  1
  O  1952  1  0.92939300  0.24865100  0.24799800  1
  O  1959  1  0.07164100  0.25063200  0.25050200  1
  O  1961  1  0.98944700  0.23885600  0.21502300  1
  O  1962  1  0.01170700  0.28384300  0.26028400  1
  O  1982  1  0.92939900  0.75043100  0.75098900  1
  O  1989  1  0.07164800  0.74774700  0.74872700  1
  O  1991  1  0.98944700  0.75997100  0.78403500  1
  O  1992  1  0.01154600  0.71493700  0.73869000  1
  O  2012  1  0.06946800  0.75031100  0.24824500  1
  O  2019  1  0.92722000  0.74810200  0.25037900  1
  O  2021  1  0.00949900  0.75987800  0.21504100  1
  O  2022  1  0.98721300  0.71510400  0.26048300  1
  O  2042  1  0.06947200  0.24845600  0.75018300  1
  O  2049  1  0.92722300  0.25077000  0.74891900  1
  O  2051  1  0.00971600  0.23894000  0.78379700  1
  O  2052  1  0.98717800  0.28379600  0.73862300  1
  O  2072  1  0.24746000  0.92886400  0.24902900  1
  O  2079  1  0.25055400  0.07110700  0.25032700  1
  O  2081  1  0.21482400  0.98902900  0.23878700  1
  O  2082  1  0.26000800  0.01126600  0.28380300  1
  O  2102  1  0.75045400  0.92894300  0.75022800  1
  O  2109  1  0.74877700  0.07119900  0.74826500  1
  O  2111  1  0.78390100  0.98874200  0.76007100  1
  O  2112  1  0.73876800  0.01126700  0.71512700  1
  O  2132  1  0.24834600  0.06998500  0.75021400  1
  O  2139  1  0.25035100  0.92773100  0.74833900  1
  O  2141  1  0.21502100  0.01010800  0.75998700  1
  O  2142  1  0.26036000  0.98767400  0.71521800  1
  O  2162  1  0.75047700  0.07005800  0.24892700  1
  O  2169  1  0.74870200  0.92780100  0.25015800  1
  O  2171  1  0.78384800  0.01026200  0.23879500  1
  O  2172  1  0.73880800  0.98754200  0.28369000  1
  O  2192  1  0.24850700  0.74841900  0.42827500  1
  O  2199  1  0.25084400  0.75018500  0.57052700  1
  O  2201  1  0.23866800  0.71527300  0.48822600  1
  O  2202  1  0.28402700  0.76007400  0.51058900  1
  O  2222  1  0.75074000  0.25003800  0.42841200  1
  O  2229  1  0.74768900  0.24908900  0.57066000  1
  O  2231  1  0.76028800  0.28363800  0.48816400  1
  O  2232  1  0.71488300  0.23887100  0.51057700  1
  O  2252  1  0.75066500  0.74890600  0.57054600  1
  O  2259  1  0.74782200  0.75002400  0.42829900  1
  O  2261  1  0.76000200  0.71528200  0.51077200  1
  O  2262  1  0.71498900  0.76039400  0.48834300  1
  O  2282  1  0.24829200  0.24998700  0.57052400  1
  O  2289  1  0.25111000  0.24905000  0.42827900  1
  O  2291  1  0.23882600  0.28362500  0.51077500  1
  O  2292  1  0.28400100  0.23873300  0.48830500  1
  O  2312  1  0.24750200  0.42776800  0.74906300  1
  O  2319  1  0.25057200  0.57000500  0.75031200  1
  O  2321  1  0.21492100  0.48793800  0.73864900  1
  O  2322  1  0.25979400  0.51017500  0.78387800  1
  O  2342  1  0.75109500  0.42777300  0.25010000  1
  O  2349  1  0.74863000  0.57002500  0.24828900  1
  O  2351  1  0.78402000  0.48778800  0.26034200  1
  O  2352  1  0.73919300  0.51009100  0.21499300  1
  O  2372  1  0.24838100  0.57114100  0.25018400  1
  O  2379  1  0.25038200  0.42889200  0.24833500  1
  O  2381  1  0.21511400  0.51124900  0.26011000  1
  O  2382  1  0.26015100  0.48882900  0.21512500  1
  O  2402  1  0.75053300  0.57122300  0.74888700  1
  O  2409  1  0.74873500  0.42897000  0.75009400  1
  O  2411  1  0.78383300  0.51141000  0.73859400  1
  O  2412  1  0.73909300  0.48871000  0.78370700  1
  O  2432  1  0.42724700  0.24869500  0.74798400  1
  O  2439  1  0.56949300  0.25062000  0.75057900  1
  O  2441  1  0.48733800  0.23848300  0.71519800  1
  O  2442  1  0.50957700  0.28398200  0.75994100  1
  O  2462  1  0.42727500  0.75040500  0.25101600  1
  O  2469  1  0.56952400  0.74778700  0.24875300  1
  O  2471  1  0.48732500  0.76035700  0.28393700  1
  O  2472  1  0.50945100  0.71481200  0.23911100  1
  O  2492  1  0.57167000  0.75034100  0.74818300  1
  O  2499  1  0.42942400  0.74815600  0.75036800  1
  O  2501  1  0.51167900  0.76027800  0.71512300  1
  O  2502  1  0.48940800  0.71502000  0.76006700  1
  O  2522  1  0.57165600  0.24851300  0.25026900  1
  O  2529  1  0.42940800  0.25073700  0.24883500  1
  O  2531  1  0.51184200  0.23859200  0.28366600  1
  O  2532  1  0.48933700  0.28393400  0.23896700  1
  O  2599  1  0.42611600  0.40696200  0.24163700  1
  O  2600  1  0.24255900  0.42614200  0.40697900  1
  O  2601  1  0.40701200  0.24230200  0.42600400  1
  O  2656  1  0.97784200  0.99696200  0.24134000  1
  O  2657  1  0.16136400  0.97769600  0.40684700  1
  O  2658  1  0.99681300  0.16149800  0.42590000  1
  O  2713  1  0.97767900  0.40671000  0.16230200  1
  O  2714  1  0.16129500  0.42598700  0.99696300  1
  O  2715  1  0.99690500  0.24189700  0.97795400  1
  O  2770  1  0.42608200  0.99695600  0.16205900  1
  O  2771  1  0.24219600  0.97766200  0.99690100  1
  O  2772  1  0.40679100  0.16165600  0.97784400  1
  O  2827  1  0.40657400  0.42528200  0.16155500  1
  O  2828  1  0.42498000  0.24159300  0.99696900  1
  O  2829  1  0.24112200  0.40653100  0.97834400  1
  O  2884  1  0.99722300  0.97855900  0.16180100  1
  O  2885  1  0.97877900  0.16219800  0.99704400  1
  O  2886  1  0.16268700  0.99714000  0.97863700  1
  O  2941  1  0.40660500  0.97831400  0.24205100  1
  O  2942  1  0.42492000  0.16194900  0.40666500  1
  O  2943  1  0.24104900  0.99695900  0.42510200  1
  O  2998  1  0.99691800  0.42526100  0.24207000  1
  O  2999  1  0.97850200  0.24176700  0.40666700  1
  O  3000  1  0.16265500  0.40651900  0.42506200  1
  O  3055  1  0.42647100  0.90703200  0.74154200  1
  O  3056  1  0.24299700  0.92501300  0.90642400  1
  O  3057  1  0.40724800  0.74137800  0.92579000  1
  O  3112  1  0.97754900  0.49686100  0.74119800  1
  O  3113  1  0.16047800  0.47844200  0.90653400  1
  O  3114  1  0.99663500  0.66246700  0.92562600  1
  O  3169  1  0.97737400  0.90675300  0.66240600  1
  O  3170  1  0.16055000  0.92518500  0.49742600  1
  O  3171  1  0.99660300  0.74094900  0.47821800  1
  O  3226  1  0.42640800  0.49687800  0.66219100  1
  O  3227  1  0.24295500  0.47857100  0.49735100  1
  O  3228  1  0.40703800  0.66262900  0.47805500  1
  O  3283  1  0.40631400  0.92564400  0.66164700  1
  O  3284  1  0.42493300  0.74266800  0.49701200  1
  O  3285  1  0.24062600  0.90708000  0.47771400  1
  O  3340  1  0.99748600  0.47813600  0.66189600  1
  O  3341  1  0.97897100  0.66116900  0.49718600  1
  O  3342  1  0.16323700  0.49667900  0.47790200  1
  O  3397  1  0.40634400  0.47796200  0.74195100  1
  O  3398  1  0.42488400  0.66092200  0.90661300  1
  O  3399  1  0.24074000  0.49647600  0.92595400  1
  O  3454  1  0.99721900  0.92563600  0.74196400  1
  O  3455  1  0.97862400  0.74288300  0.90654700  1
  O  3456  1  0.16340200  0.90705700  0.92553700  1
  O  3511  1  0.92461400  0.40679700  0.74223400  1
  O  3512  1  0.74067900  0.42606100  0.90731800  1
  O  3513  1  0.90652900  0.24252500  0.92545100  1
  O  3568  1  0.47894500  0.99700400  0.74217600  1
  O  3569  1  0.66325500  0.97779300  0.90707300  1
  O  3570  1  0.49734500  0.16120500  0.92547100  1
  O  3625  1  0.47889300  0.40669400  0.66133500  1
  O  3626  1  0.66323700  0.42582900  0.49662400  1
  O  3627  1  0.49720200  0.24237400  0.47826200  1
  O  3682  1  0.92483600  0.99714800  0.66137000  1
  O  3683  1  0.74028100  0.97785300  0.49665700  1
  O  3684  1  0.90655100  0.16104200  0.47802300  1
  O  3739  1  0.90704700  0.42564000  0.66208000  1
  O  3740  1  0.92648300  0.24115700  0.49688700  1
  O  3741  1  0.74308500  0.40630500  0.47819800  1
  O  3796  1  0.49678800  0.97819800  0.66217100  1
  O  3797  1  0.47747100  0.16294400  0.49695300  1
  O  3798  1  0.66074300  0.99740400  0.47843800  1
  O  3853  1  0.90720300  0.97805100  0.74178600  1
  O  3854  1  0.92625900  0.16265600  0.90691700  1
  O  3855  1  0.74301900  0.99724700  0.92522200  1
  O  3910  1  0.49654900  0.42573500  0.74180200  1
  O  3911  1  0.47719800  0.24120800  0.90700000  1
  O  3912  1  0.66073800  0.40627100  0.92528200  1
  O  3967  1  0.92498200  0.90688800  0.24213300  1
  O  3968  1  0.74109400  0.92484500  0.40673000  1
  O  3969  1  0.90674900  0.74144300  0.42509800  1
  O  4024  1  0.47866600  0.49689800  0.24202800  1
  O  4025  1  0.66242900  0.47861600  0.40674500  1
  O  4026  1  0.49716900  0.66220400  0.42517000  1
  O  4081  1  0.47857200  0.90678900  0.16145500  1
  O  4082  1  0.66260000  0.92498500  0.99712400  1
  O  4083  1  0.49701800  0.74142200  0.97854300  1
  O  4138  1  0.92513300  0.49708600  0.16152300  1
  O  4139  1  0.74098100  0.47884300  0.99712700  1
  O  4140  1  0.90679500  0.66204300  0.97824300  1
  O  4195  1  0.90682400  0.92601600  0.16211900  1
  O  4196  1  0.92636600  0.74217600  0.99689000  1
  O  4197  1  0.74253900  0.90687800  0.97763900  1
  O  4252  1  0.49705900  0.47777700  0.16220400  1
  O  4253  1  0.47762600  0.66195500  0.99703100  1
  O  4254  1  0.66134500  0.49697800  0.97778800  1
  O  4309  1  0.90691200  0.47763900  0.24181100  1
  O  4310  1  0.92586300  0.66208400  0.40671300  1
  O  4311  1  0.74268600  0.49677400  0.42610400  1
  O  4366  1  0.49682900  0.92617500  0.24176900  1
  O  4367  1  0.47737600  0.74226400  0.40691500  1
  O  4368  1  0.66155500  0.90678200  0.42567500  1
  O  4376  1  0.45127500  0.45055200  0.13062000  1
  O  4383  1  0.45282200  0.45252500  0.27287700  1
  O  4385  1  0.44108000  0.41746800  0.19055000  1
  O  4386  1  0.48630400  0.46225300  0.21307900  1
  O  4406  1  0.95269600  0.95261200  0.13075000  1
  O  4413  1  0.95042500  0.95145700  0.27301000  1
  O  4415  1  0.96257500  0.98616300  0.19048400  1
  O  4416  1  0.91733300  0.94138200  0.21306200  1
  O  4436  1  0.95256600  0.45105400  0.27293200  1
  O  4443  1  0.95054700  0.45240700  0.13067600  1
  O  4445  1  0.96226400  0.41750300  0.21316700  1
  O  4446  1  0.91740400  0.46261300  0.19057800  1
  O  4466  1  0.45107600  0.95255900  0.27288400  1
  O  4473  1  0.45306700  0.95140700  0.13062700  1
  O  4475  1  0.44122700  0.98613200  0.21315600  1
  O  4476  1  0.48627000  0.94125600  0.19050800  1
  O  4496  1  0.13174500  0.45100300  0.45035000  1
  O  4503  1  0.27399300  0.45298400  0.45285400  1
  O  4505  1  0.19179900  0.44120800  0.41737500  1
  O  4506  1  0.21405900  0.48619500  0.46263600  1
  O  4526  1  0.13175100  0.95278300  0.95334100  1
  O  4533  1  0.27400000  0.95009900  0.95107900  1
  O  4535  1  0.19179900  0.96232300  0.98638700  1
  O  4536  1  0.21389800  0.91728900  0.94104200  1
  O  4556  1  0.27182000  0.95266300  0.45059700  1
  O  4563  1  0.12957200  0.95045400  0.45273100  1
  O  4565  1  0.21185100  0.96223000  0.41739300  1
  O  4566  1  0.18956500  0.91745600  0.46283500  1
  O  4586  1  0.27182400  0.45080800  0.95253500  1
  O  4593  1  0.12957500  0.45312200  0.95127100  1
  O  4595  1  0.21206800  0.44129200  0.98614900  1
  O  4596  1  0.18953000  0.48614800  0.94097500  1
  O  4616  1  0.44981200  0.13121600  0.45138100  1
  O  4623  1  0.45290600  0.27345900  0.45267900  1
  O  4625  1  0.41717600  0.19138100  0.44113900  1
  O  4626  1  0.46236000  0.21361800  0.48615500  1
  O  4646  1  0.95280600  0.13129500  0.95258000  1
  O  4653  1  0.95112900  0.27355100  0.95061700  1
  O  4655  1  0.98625300  0.19109400  0.96242300  1
  O  4656  1  0.94112000  0.21361900  0.91747900  1
  O  4676  1  0.45069800  0.27233700  0.95256600  1
  O  4683  1  0.45270300  0.13008300  0.95069100  1
  O  4685  1  0.41737300  0.21246000  0.96233900  1
  O  4686  1  0.46271200  0.19002600  0.91757000  1
  O  4706  1  0.95282900  0.27241000  0.45127900  1
  O  4713  1  0.95105400  0.13015300  0.45251000  1
  O  4715  1  0.98620000  0.21261400  0.44114700  1
  O  4716  1  0.94116000  0.18989400  0.48604200  1
  O  4736  1  0.45085900  0.95077100  0.63062700  1
  O  4743  1  0.45319600  0.95253700  0.77287900  1
  O  4745  1  0.44102000  0.91762500  0.69057800  1
  O  4746  1  0.48637900  0.96242600  0.71294100  1
  O  4766  1  0.95309200  0.45239000  0.63076400  1
  O  4773  1  0.95004100  0.45144100  0.77301200  1
  O  4775  1  0.96264000  0.48599000  0.69051600  1
  O  4776  1  0.91723500  0.44122300  0.71292900  1
  O  4796  1  0.95301700  0.95125800  0.77289800  1
  O  4803  1  0.95017400  0.95237600  0.63065100  1
  O  4805  1  0.96235400  0.91763400  0.71312400  1
  O  4806  1  0.91734100  0.96274600  0.69069500  1
  O  4826  1  0.45064400  0.45233900  0.77287600  1
  O  4833  1  0.45346200  0.45140200  0.63063100  1
  O  4835  1  0.44117800  0.48597700  0.71312700  1
  O  4836  1  0.48635300  0.44108500  0.69065700  1
  O  4856  1  0.44985400  0.63012000  0.95141500  1
  O  4863  1  0.45292400  0.77235700  0.95266400  1
  O  4865  1  0.41727300  0.69029000  0.94100100  1
  O  4866  1  0.46214600  0.71252700  0.98623000  1
  O  4886  1  0.95344700  0.63012500  0.45245200  1
  O  4893  1  0.95098200  0.77237700  0.45064100  1
  O  4895  1  0.98637200  0.69014000  0.46269400  1
  O  4896  1  0.94154500  0.71244300  0.41734500  1
  O  4916  1  0.45073300  0.77349300  0.45253600  1
  O  4923  1  0.45273400  0.63124400  0.45068700  1
  O  4925  1  0.41746600  0.71360100  0.46246200  1
  O  4926  1  0.46250300  0.69118100  0.41747700  1
  O  4946  1  0.95288500  0.77357500  0.95123900  1
  O  4953  1  0.95108700  0.63132200  0.95244600  1
  O  4955  1  0.98618500  0.71376200  0.94094600  1
  O  4956  1  0.94144500  0.69106200  0.98605900  1
  O  4976  1  0.62959900  0.45104700  0.95033600  1
  O  4983  1  0.77184500  0.45297200  0.95293100  1
  O  4985  1  0.68969000  0.44083500  0.91755000  1
  O  4986  1  0.71192900  0.48633400  0.96229300  1
  O  5006  1  0.62962700  0.95275700  0.45336800  1
  O  5013  1  0.77187600  0.95013900  0.45110500  1
  O  5015  1  0.68967700  0.96270900  0.48628900  1
  O  5016  1  0.71180300  0.91716400  0.44146300  1
  O  5036  1  0.77402200  0.95269300  0.95053500  1
  O  5043  1  0.63177600  0.95050800  0.95272000  1
  O  5045  1  0.71403100  0.96263000  0.91747500  1
  O  5046  1  0.69176000  0.91737200  0.96241900  1
  O  5066  1  0.77400800  0.45086500  0.45262100  1
  O  5073  1  0.63176000  0.45308900  0.45118700  1
  O  5075  1  0.71419400  0.44094400  0.48601800  1
  O  5076  1  0.69168900  0.48628600  0.44131900  1
