# generated using pymatgen
data_H15(C11N)2
_symmetry_space_group_name_H-M   'P 1'
_cell_length_a   25.04100000
_cell_length_b   106.36600000
_cell_length_c   106.36600000
_cell_angle_alpha   90.00000000
_cell_angle_beta   90.31520000
_cell_angle_gamma   89.68480000
_symmetry_Int_Tables_number   1
_chemical_formula_structural   H15(C11N)2
_chemical_formula_sum   'H960 C1408 N128'
_cell_volume   283298.43760127
_cell_formula_units_Z   64
loop_
 _symmetry_equiv_pos_site_id
 _symmetry_equiv_pos_as_xyz
  1  'x, y, z'
loop_
 _atom_site_type_symbol
 _atom_site_label
 _atom_site_symmetry_multiplicity
 _atom_site_fract_x
 _atom_site_fract_y
 _atom_site_fract_z
 _atom_site_occupancy
  C  1  1  0.84801700  0.89360050  0.05678600  1
  C  2  1  0.81990400  0.89831300  0.04615200  1
  C  3  1  0.78693600  0.89062600  0.03858500  1
  C  4  1  0.77608200  0.87831550  0.04273800  1
  C  5  1  0.79915100  0.87351400  0.05391500  1
  C  6  1  0.83628700  0.88108750  0.06049300  1
  C  10  1  0.88935100  0.90092400  0.06284000  1
  C  11  1  0.91905500  0.90997700  0.05599800  1
  C  12  1  0.96003700  0.91726000  0.06149300  1
  C  13  1  0.97397100  0.91473900  0.07413200  1
  C  14  1  0.94771300  0.90540000  0.08119100  1
  C  15  1  0.90447400  0.89896600  0.07558150  1
  C  19  1  0.96732500  0.90171900  0.09285900  1
  C  20  1  0.78642900  0.86161500  0.05835300  1
  C  21  1  0.77436800  0.89393200  0.02628300  1
  C  22  1  0.98419500  0.92681200  0.05460200  1
  C  27  1  0.85989800  0.56608700  0.89482600  1
  C  28  1  0.83165200  0.56141050  0.90535100  1
  C  29  1  0.79881300  0.56917700  0.91286700  1
  C  30  1  0.78812200  0.58154100  0.90873800  1
  C  31  1  0.81123700  0.58631700  0.89763800  1
  C  32  1  0.84830100  0.57864950  0.89113050  1
  C  36  1  0.90125600  0.55866900  0.88887850  1
  C  37  1  0.93097200  0.54954600  0.89580250  1
  C  38  1  0.97198700  0.54216750  0.89041800  1
  C  39  1  0.98593500  0.54465000  0.87781700  1
  C  40  1  0.95966600  0.55405500  0.87068900  1
  C  41  1  0.91640300  0.56059700  0.87617950  1
  C  45  1  0.97932100  0.55767550  0.85907450  1
  C  46  1  0.79861800  0.59827400  0.89320350  1
  C  47  1  0.78614500  0.56585750  0.92511900  1
  C  48  1  0.99618000  0.53256300  0.89737250  1
  C  53  1  0.35547000  0.81037300  0.81146450  1
  C  54  1  0.32718100  0.79985150  0.80672250  1
  C  55  1  0.29392100  0.79241100  0.81438250  1
  C  56  1  0.28290300  0.79663000  0.82667250  1
  C  57  1  0.30610500  0.80772600  0.83149200  1
  C  58  1  0.34357100  0.81414500  0.82395650  1
  C  62  1  0.39715100  0.81624400  0.80419450  1
  C  63  1  0.42706300  0.80924500  0.79524200  1
  C  64  1  0.46834900  0.81456150  0.78800400  1
  C  65  1  0.48235400  0.82716950  0.79046950  1
  C  66  1  0.45588900  0.83437200  0.79971800  1
  C  67  1  0.41237500  0.82894600  0.80610950  1
  C  71  1  0.47545300  0.84601600  0.80333100  1
  C  72  1  0.29333000  0.81222500  0.84338050  1
  C  73  1  0.28105600  0.78016150  0.81105250  1
  C  74  1  0.49263300  0.80754750  0.77851900  1
  C  79  1  0.36342100  0.65001350  0.13832000  1
  C  80  1  0.33522700  0.66063000  0.14296750  1
  C  81  1  0.30217600  0.66818800  0.13520700  1
  C  82  1  0.29103200  0.66398050  0.12290100  1
  C  83  1  0.31387700  0.65276300  0.11818700  1
  C  84  1  0.35131700  0.64623400  0.12581950  1
  C  88  1  0.40520600  0.64407300  0.14570250  1
  C  89  1  0.43497800  0.65103600  0.15472700  1
  C  90  1  0.47624300  0.64566300  0.16211050  1
  C  91  1  0.49050900  0.63303100  0.15970800  1
  C  92  1  0.46425500  0.62585900  0.15038450  1
  C  93  1  0.42068700  0.63134600  0.14384950  1
  C  97  1  0.48416100  0.61419850  0.14682100  1
  C  98  1  0.30063900  0.64823200  0.10632100  1
  C  99  1  0.28984300  0.68051550  0.13844700  1
  C  100  1  0.50028500  0.65266600  0.17165150  1
  C  105  1  0.90239800  0.56353350  0.05515700  1
  C  106  1  0.92873200  0.55832150  0.04458700  1
  C  107  1  0.96458100  0.56536050  0.03721900  1
  C  108  1  0.97871100  0.57751200  0.04132200  1
  C  109  1  0.95649200  0.58280150  0.05232400  1
  C  110  1  0.91747000  0.57583450  0.05887600  1
  C  114  1  0.85974400  0.55687250  0.06124600  1
  C  115  1  0.82554200  0.54878350  0.05430200  1
  C  116  1  0.78407300  0.54187350  0.05997100  1
  C  117  1  0.77473100  0.54373750  0.07292900  1
  C  118  1  0.80663200  0.55195250  0.08011600  1
  C  119  1  0.84925600  0.55828550  0.07426500  1
  C  123  1  0.79260300  0.55423800  0.09242100  1
  C  124  1  0.97132700  0.59467100  0.05651200  1
  C  125  1  0.97779600  0.56165600  0.02511900  1
  C  126  1  0.75675500  0.53281750  0.05304600  1
  C  131  1  0.89123300  0.89562050  0.89627700  1
  C  132  1  0.91688000  0.90064800  0.90706500  1
  C  133  1  0.95292500  0.89349950  0.91446250  1
  C  134  1  0.96810400  0.88146000  0.91016750  1
  C  135  1  0.94664400  0.87638200  0.89895650  1
  C  136  1  0.90730300  0.88341850  0.89237950  1
  C  140  1  0.84836900  0.90236050  0.89012150  1
  C  141  1  0.81350200  0.91031600  0.89705200  1
  C  142  1  0.77184100  0.91730800  0.89132100  1
  C  143  1  0.76300200  0.91566300  0.87829450  1
  C  144  1  0.79557800  0.90758600  0.87110800  1
  C  145  1  0.83836500  0.90117150  0.87703500  1
  C  149  1  0.78203100  0.90549900  0.85871000  1
  C  150  1  0.96257700  0.86464400  0.89457800  1
  C  151  1  0.96550400  0.89698700  0.92669050  1
  C  152  1  0.74399400  0.92627400  0.89826600  1
  C  157  1  0.39517800  0.64985950  0.80901050  1
  C  158  1  0.42098500  0.66044300  0.80374250  1
  C  159  1  0.45751000  0.66780050  0.81069600  1
  C  160  1  0.47290500  0.66365050  0.82278450  1
  C  161  1  0.45126600  0.65262700  0.82810650  1
  C  162  1  0.41152000  0.64609750  0.82124700  1
  C  166  1  0.35184200  0.64379400  0.80246950  1
  C  167  1  0.31673700  0.65077800  0.79454250  1
  C  168  1  0.27467600  0.64512750  0.78771150  1
  C  169  1  0.26573100  0.63214650  0.78948300  1
  C  170  1  0.29854500  0.62492250  0.79755050  1
  C  171  1  0.34167900  0.63075650  0.80381650  1
  C  175  1  0.28510300  0.61256800  0.79971600  1
  C  176  1  0.46731400  0.64840300  0.83991300  1
  C  177  1  0.47036500  0.67990650  0.80696900  1
  C  178  1  0.24674500  0.65207800  0.77871950  1
  C  183  1  0.39146000  0.81029800  0.14393200  1
  C  184  1  0.41930700  0.79987800  0.14915200  1
  C  185  1  0.45688300  0.79284850  0.14217500  1
  C  186  1  0.47086300  0.79712850  0.13008900  1
  C  187  1  0.44696700  0.80799550  0.12479500  1
  C  188  1  0.40650800  0.81421800  0.13170500  1
  C  192  1  0.34731500  0.81600950  0.15047650  1
  C  193  1  0.31363700  0.80873550  0.15831550  1
  C  194  1  0.27068700  0.81404150  0.16509600  1
  C  195  1  0.25937100  0.82695650  0.16335350  1
  C  196  1  0.29079800  0.83446200  0.15539650  1
  C  197  1  0.33486700  0.82897350  0.14918900  1
  C  201  1  0.27516300  0.84672500  0.15325700  1
  C  202  1  0.46132300  0.81232550  0.11294950  1
  C  203  1  0.47159100  0.78078300  0.14575250  1
  C  204  1  0.24385300  0.80682900  0.17394900  1
  C  209  1  0.90695100  0.06488850  0.89586850  1
  C  210  1  0.93352800  0.06037550  0.90680800  1
  C  211  1  0.96605100  0.06814500  0.91439950  1
  C  212  1  0.97783700  0.08034550  0.91006750  1
  C  213  1  0.95602300  0.08496750  0.89868550  1
  C  214  1  0.91941400  0.07732550  0.89203050  1
  C  218  1  0.86648400  0.05746600  0.88957800  1
  C  219  1  0.83623700  0.04837600  0.89624700  1
  C  220  1  0.79588100  0.04108600  0.89051600  1
  C  221  1  0.78307000  0.04361250  0.87782000  1
  C  222  1  0.80984700  0.05297950  0.87091250  1
  C  223  1  0.85256100  0.05940200  0.87674850  1
  C  227  1  0.79063300  0.05679300  0.85924650  1
  C  228  1  0.96943100  0.09676650  0.89410700  1
  C  229  1  0.97799500  0.06499400  0.92677500  1
  C  230  1  0.77022000  0.03168000  0.89727600  1
  C  235  1  0.91914000  0.39418650  0.05727000  1
  C  236  1  0.94661900  0.39884950  0.04662100  1
  C  237  1  0.98029700  0.39117650  0.03920000  1
  C  238  1  0.99266200  0.37895850  0.04353000  1
  C  239  1  0.97001300  0.37419700  0.05467900  1
  C  240  1  0.93212100  0.38172450  0.06108100  1
  C  244  1  0.87710700  0.40143400  0.06322200  1
  C  245  1  0.84694300  0.41056050  0.05639200  1
  C  246  1  0.80475200  0.41755950  0.06178700  1
  C  247  1  0.78992700  0.41469800  0.07424400  1
  C  248  1  0.81694800  0.40535500  0.08127500  1
  C  249  1  0.86142100  0.39923400  0.07584700  1
  C  253  1  0.79624600  0.40112800  0.09255500  1
  C  254  1  0.98288600  0.36226600  0.05912800  1
  C  255  1  0.99239000  0.39437950  0.02687800  1
  C  256  1  0.77925500  0.42703000  0.05494400  1
  C  261  1  0.39182700  0.15546300  0.13670100  1
  C  262  1  0.41641600  0.16684550  0.14057900  1
  C  263  1  0.44795700  0.17428050  0.13248250  1
  C  264  1  0.46052500  0.16941300  0.12051550  1
  C  265  1  0.44029700  0.15771950  0.11647300  1
  C  266  1  0.40465100  0.15121750  0.12440050  1
  C  270  1  0.35450700  0.14885550  0.14473850  1
  C  271  1  0.32634100  0.15517100  0.15449250  1
  C  272  1  0.29014300  0.14904900  0.16257400  1
  C  273  1  0.27880500  0.13628250  0.16018000  1
  C  274  1  0.30335800  0.12967650  0.15024200  1
  C  275  1  0.34237700  0.13591200  0.14303300  1
  C  279  1  0.28579000  0.11778350  0.14685250  1
  C  280  1  0.45606800  0.15239500  0.10517650  1
  C  281  1  0.46176300  0.18658550  0.13550550  1
  C  282  1  0.26766900  0.15547700  0.17269850  1
  C  287  1  0.41257800  0.31024750  0.81195600  1
  C  288  1  0.44044300  0.29950200  0.80747900  1
  C  289  1  0.47346000  0.29204000  0.81533900  1
  C  290  1  0.48482200  0.29641850  0.82757150  1
  C  291  1  0.46221300  0.30772350  0.83212650  1
  C  292  1  0.42485900  0.31417650  0.82440750  1
  C  296  1  0.37106100  0.31620200  0.80447350  1
  C  297  1  0.34170800  0.30928300  0.79533250  1
  C  298  1  0.30067400  0.31467350  0.78788500  1
  C  299  1  0.28613300  0.32727750  0.79034050  1
  C  300  1  0.31192400  0.33440700  0.79976200  1
  C  301  1  0.35535800  0.32891850  0.80633950  1
  C  305  1  0.29153300  0.34600200  0.80338700  1
  C  306  1  0.47555300  0.31240650  0.84392850  1
  C  307  1  0.48555300  0.27965650  0.81229650  1
  C  308  1  0.27695700  0.30771400  0.77826050  1
  C  313  1  0.87638000  0.39637650  0.89552200  1
  C  314  1  0.85232000  0.40138300  0.90649100  1
  C  315  1  0.81749900  0.39425700  0.91405250  1
  C  316  1  0.80228300  0.38220750  0.90986550  1
  C  317  1  0.82253800  0.37709450  0.89858150  1
  C  318  1  0.86047800  0.38413950  0.89177400  1
  C  322  1  0.91749300  0.40316650  0.88898200  1
  C  323  1  0.95280500  0.41130900  0.89554850  1
  C  324  1  0.99306300  0.41822750  0.88942700  1
  C  325  1  0.00004600  0.41635950  0.87639050  1
  C  326  1  0.96692900  0.40812150  0.86955300  1
  C  327  1  0.92551800  0.40177800  0.87585250  1
  C  331  1  0.97933700  0.40565600  0.85718700  1
  C  332  1  0.80673600  0.36533150  0.89432050  1
  C  333  1  0.80563400  0.39783450  0.92626050  1
  C  334  1  0.02232000  0.42715550  0.89603950  1
  C  339  1  0.87115700  0.06316200  0.05825900  1
  C  340  1  0.84669500  0.05830900  0.04722900  1
  C  341  1  0.81041400  0.06544100  0.03987800  1
  C  342  1  0.79369400  0.07727400  0.04442200  1
  C  343  1  0.81398800  0.08218700  0.05582000  1
  C  344  1  0.85370000  0.07521200  0.06233900  1
  C  348  1  0.91384000  0.05640350  0.06454200  1
  C  349  1  0.94858400  0.04825900  0.05778200  1
  C  350  1  0.98996900  0.04130450  0.06366400  1
  C  351  1  0.99901500  0.04319200  0.07664100  1
  C  352  1  0.96674600  0.05146950  0.08366800  1
  C  353  1  0.92396800  0.05777700  0.07761900  1
  C  357  1  0.98104300  0.05395150  0.09595750  1
  C  358  1  0.79676800  0.09375250  0.06039300  1
  C  359  1  0.79826200  0.06210650  0.02757900  1
  C  360  1  0.01806300  0.03225000  0.05692500  1
  C  365  1  0.38032600  0.30129800  0.13999450  1
  C  366  1  0.34371700  0.29485750  0.14775250  1
  C  367  1  0.29522700  0.29009450  0.14295650  1
  C  368  1  0.28222400  0.29217500  0.13021600  1
  C  369  1  0.31702400  0.29883700  0.12219000  1
  C  370  1  0.36615900  0.30313900  0.12720250  1
  C  374  1  0.42856100  0.30633950  0.14522050  1
  C  375  1  0.45831300  0.29954750  0.15438650  1
  C  376  1  0.50247700  0.30487250  0.16073800  1
  C  377  1  0.51827400  0.31715350  0.15735700  1
  C  378  1  0.49009100  0.32412900  0.14818250  1
  C  379  1  0.44538500  0.31867700  0.14220400  1
  C  383  1  0.50553900  0.33631950  0.14583350  1
  C  384  1  0.30222400  0.30203600  0.10996550  1
  C  385  1  0.25954700  0.28371050  0.15053100  1
  C  386  1  0.52464800  0.29876950  0.17110350  1
  C  391  1  0.36912000  0.14944650  0.80992450  1
  C  392  1  0.34338500  0.16033550  0.80507200  1
  C  393  1  0.30774100  0.16764500  0.81232700  1
  C  394  1  0.29299700  0.16317150  0.82429200  1
  C  395  1  0.31450000  0.15186200  0.82919150  1
  C  396  1  0.35350900  0.14538000  0.82206700  1
  C  400  1  0.41165900  0.14336300  0.80309700  1
  C  401  1  0.44590500  0.15036000  0.79513300  1
  C  402  1  0.48732200  0.14471200  0.78810200  1
  C  403  1  0.49667700  0.13170000  0.78973150  1
  C  404  1  0.46475000  0.12444450  0.79780400  1
  C  405  1  0.42209900  0.13028500  0.80423500  1
  C  409  1  0.47904700  0.11209400  0.79993450  1
  C  410  1  0.29906900  0.14731000  0.84085950  1
  C  411  1  0.29535900  0.17994850  0.80905900  1
  C  412  1  0.51469400  0.15173550  0.77918100  1
  C  417  1  0.85878300  0.39403450  0.55533500  1
  C  418  1  0.83116400  0.39852300  0.54452950  1
  C  419  1  0.79835800  0.39070700  0.53705600  1
  C  420  1  0.78701200  0.37851300  0.54146900  1
  C  421  1  0.80952300  0.37394550  0.55280300  1
  C  422  1  0.84661500  0.38161550  0.55928150  1
  C  426  1  0.89993700  0.40147000  0.56135100  1
  C  427  1  0.92939900  0.41053550  0.55446000  1
  C  428  1  0.97014500  0.41792550  0.55990600  1
  C  429  1  0.98420300  0.41549900  0.57255300  1
  C  430  1  0.95832900  0.40614150  0.57966200  1
  C  431  1  0.91521800  0.39961650  0.57410400  1
  C  435  1  0.97837200  0.40252200  0.59131200  1
  C  436  1  0.79634600  0.36217200  0.55749100  1
  C  437  1  0.78601800  0.39379450  0.52467950  1
  C  438  1  0.99401200  0.42747950  0.55296000  1
  C  443  1  0.84591400  0.06550450  0.39476750  1
  C  444  1  0.81751400  0.06088500  0.40529850  1
  C  445  1  0.78373400  0.06862900  0.41262050  1
  C  446  1  0.77187200  0.08084550  0.40821550  1
  C  447  1  0.79512800  0.08553500  0.39710250  1
  C  448  1  0.83331700  0.07795500  0.39085500  1
  C  452  1  0.88848700  0.05822250  0.38907250  1
  C  453  1  0.91793300  0.04912600  0.39611200  1
  C  454  1  0.96047400  0.04202900  0.39099450  1
  C  455  1  0.97639400  0.04478650  0.37858500  1
  C  456  1  0.95018500  0.05411400  0.37135850  1
  C  457  1  0.90537000  0.06032850  0.37652300  1
  C  461  1  0.97160400  0.05813350  0.36007600  1
  C  462  1  0.78257500  0.09744950  0.39255350  1
  C  463  1  0.77139700  0.06550750  0.42495550  1
  C  464  1  0.98445000  0.03245550  0.39802100  1
  C  469  1  0.37646500  0.30468350  0.31444450  1
  C  470  1  0.35265900  0.29321100  0.31055850  1
  C  471  1  0.32160100  0.28566550  0.31865450  1
  C  472  1  0.30886100  0.29046150  0.33064050  1
  C  473  1  0.32846900  0.30220500  0.33470600  1
  C  474  1  0.36356700  0.30885350  0.32676500  1
  C  478  1  0.41319700  0.31145700  0.30640400  1
  C  479  1  0.44204700  0.30524700  0.29669350  1
  C  480  1  0.47785300  0.31154050  0.28865850  1
  C  481  1  0.48814900  0.32435600  0.29102800  1
  C  482  1  0.46284500  0.33086600  0.30092500  1
  C  483  1  0.42418700  0.32446100  0.30809700  1
  C  487  1  0.47973000  0.34279150  0.30439650  1
  C  488  1  0.31268300  0.30742550  0.34604750  1
  C  489  1  0.30826800  0.27334450  0.31559950  1
  C  490  1  0.50183100  0.30520300  0.27870000  1
  C  495  1  0.35588100  0.14871850  0.64007800  1
  C  496  1  0.32898500  0.15958650  0.64458850  1
  C  497  1  0.29618100  0.16715600  0.63678100  1
  C  498  1  0.28438100  0.16285300  0.62454350  1
  C  499  1  0.30634100  0.15150500  0.61992850  1
  C  500  1  0.34328500  0.14488750  0.62761300  1
  C  504  1  0.39679500  0.14251200  0.64753500  1
  C  505  1  0.42697900  0.14923900  0.65667200  1
  C  506  1  0.46763300  0.14358200  0.66403050  1
  C  507  1  0.48090800  0.13091850  0.66151400  1
  C  508  1  0.45419100  0.12396100  0.65210750  1
  C  509  1  0.41114700  0.12971300  0.64561450  1
  C  513  1  0.47368400  0.11232700  0.64833050  1
  C  514  1  0.29273100  0.14692250  0.60810650  1
  C  515  1  0.28439300  0.17953250  0.63989450  1
  C  516  1  0.49305100  0.15037450  0.67351100  1
  C  521  1  0.89168400  0.06334700  0.55548800  1
  C  522  1  0.91675500  0.05839700  0.54462300  1
  C  523  1  0.95202700  0.06557650  0.53723300  1
  C  524  1  0.96699300  0.07758650  0.54158200  1
  C  525  1  0.94604100  0.08260500  0.55284100  1
  C  526  1  0.90747000  0.07553150  0.55942300  1
  C  530  1  0.84960700  0.05656600  0.56168750  1
  C  531  1  0.81487600  0.04855400  0.55479950  1
  C  532  1  0.77388500  0.04155600  0.56056150  1
  C  533  1  0.76550300  0.04327350  0.57357600  1
  C  534  1  0.79794900  0.05140150  0.58072300  1
  C  535  1  0.84012200  0.05780100  0.57477200  1
  C  539  1  0.78461600  0.05359050  0.59308600  1
  C  540  1  0.96163100  0.09432900  0.55726100  1
  C  541  1  0.96407800  0.06214350  0.52498300  1
  C  542  1  0.74603800  0.03258550  0.55364800  1
  C  547  1  0.89679100  0.39601800  0.39402400  1
  C  548  1  0.92227400  0.40088250  0.40491800  1
  C  549  1  0.95911900  0.39374300  0.41210650  1
  C  550  1  0.97566800  0.38194700  0.40743350  1
  C  551  1  0.95465400  0.37707400  0.39608550  1
  C  552  1  0.91421900  0.38402550  0.38978450  1
  C  556  1  0.85303800  0.40270050  0.38808800  1
  C  557  1  0.81869000  0.41065600  0.39517350  1
  C  558  1  0.77643700  0.41762200  0.38965700  1
  C  559  1  0.76609300  0.41589200  0.37670600  1
  C  560  1  0.79790100  0.40778650  0.36936600  1
  C  561  1  0.84153600  0.40147050  0.37506300  1
  C  565  1  0.78283100  0.40558750  0.35707350  1
  C  566  1  0.97176200  0.36554950  0.39138250  1
  C  567  1  0.97161200  0.39698550  0.42441900  1
  C  568  1  0.74949600  0.42665950  0.39670050  1
  C  573  1  0.38549000  0.15720050  0.31115500  1
  C  574  1  0.42119300  0.16391150  0.30338750  1
  C  575  1  0.46923500  0.16898150  0.30812100  1
  C  576  1  0.48237800  0.16701200  0.32089400  1
  C  577  1  0.44828500  0.16020150  0.32895900  1
  C  578  1  0.39977500  0.15553200  0.32395900  1
  C  582  1  0.33818600  0.15168850  0.30593150  1
  C  583  1  0.30738100  0.15816550  0.29673200  1
  C  584  1  0.26404500  0.15241250  0.29045000  1
  C  585  1  0.25019900  0.14001900  0.29387850  1
  C  586  1  0.27943500  0.13335300  0.30310200  1
  C  587  1  0.32327000  0.13922950  0.30903500  1
  C  591  1  0.26534500  0.12111450  0.30567100  1
  C  592  1  0.46333700  0.15717450  0.34120550  1
  C  593  1  0.50371900  0.17537150  0.30019650  1
  C  594  1  0.24029500  0.15829650  0.28017700  1
  C  599  1  0.39636000  0.31061650  0.64203350  1
  C  600  1  0.42099300  0.29959950  0.64691700  1
  C  601  1  0.45621200  0.29212800  0.63971150  1
  C  602  1  0.47129900  0.29646600  0.62772100  1
  C  603  1  0.45058500  0.30782000  0.62274900  1
  C  604  1  0.41219900  0.31452350  0.62985300  1
  C  608  1  0.35477300  0.31704000  0.64888100  1
  C  609  1  0.31987300  0.31035650  0.65695500  1
  C  610  1  0.27921100  0.31636500  0.66393150  1
  C  611  1  0.27132300  0.32940800  0.66217750  1
  C  612  1  0.30399700  0.33636250  0.65400950  1
  C  613  1  0.34587300  0.33017150  0.64762200  1
  C  617  1  0.29072300  0.34873250  0.65163650  1
  C  618  1  0.46630700  0.31223250  0.61105050  1
  C  619  1  0.46824900  0.27984500  0.64309200  1
  C  620  1  0.25044700  0.30963800  0.67280900  1
  C  625  1  0.92004100  0.56560550  0.39437200  1
  C  626  1  0.94749300  0.56093700  0.40512250  1
  C  627  1  0.97982900  0.56866300  0.41280000  1
  C  628  1  0.99062400  0.58099600  0.40870450  1
  C  629  1  0.96807200  0.58578050  0.39746700  1
  C  630  1  0.93162000  0.57815350  0.39074350  1
  C  634  1  0.87945100  0.55821400  0.38811000  1
  C  635  1  0.84969100  0.54903150  0.39477300  1
  C  636  1  0.80916800  0.54176350  0.38908100  1
  C  637  1  0.79573300  0.54440050  0.37644200  1
  C  638  1  0.82200700  0.55386450  0.36956000  1
  C  639  1  0.86486600  0.56028300  0.37534450  1
  C  643  1  0.80218800  0.55776450  0.35798000  1
  C  644  1  0.98066000  0.59771250  0.39309800  1
  C  645  1  0.99195300  0.56535100  0.42512050  1
  C  646  1  0.78389800  0.53228750  0.39582900  1
  C  651  1  0.90786500  0.89343350  0.55726600  1
  C  652  1  0.93548100  0.89809650  0.54663850  1
  C  653  1  0.96780400  0.89031800  0.53901050  1
  C  654  1  0.97848400  0.87793000  0.54306600  1
  C  655  1  0.95585100  0.87314200  0.55421250  1
  C  656  1  0.91937500  0.88083700  0.56086650  1
  C  660  1  0.86717600  0.90089400  0.56342500  1
  C  661  1  0.83739200  0.91014900  0.55668750  1
  C  662  1  0.79681900  0.91750200  0.56227650  1
  C  663  1  0.78335300  0.91488600  0.57487450  1
  C  664  1  0.80964400  0.90535050  0.58181650  1
  C  665  1  0.85254600  0.89883550  0.57614450  1
  C  669  1  0.78982000  0.90151050  0.59334500  1
  C  670  1  0.96840400  0.86115150  0.55856400  1
  C  671  1  0.98009400  0.89367000  0.52675000  1
  C  672  1  0.77157800  0.92705300  0.55547850  1
  C  677  1  0.41319300  0.64847450  0.64036550  1
  C  678  1  0.44086900  0.65910750  0.64506750  1
  C  679  1  0.47346000  0.66666667  0.63736600  1
  C  680  1  0.48433900  0.66252450  0.62504400  1
  C  681  1  0.46161100  0.65137350  0.62023350  1
  C  682  1  0.42486300  0.64479900  0.62782900  1
  C  686  1  0.37229900  0.64238200  0.64771250  1
  C  687  1  0.34241900  0.64918400  0.65682800  1
  C  688  1  0.30164900  0.64365450  0.66406250  1
  C  689  1  0.28809500  0.63105250  0.66145450  1
  C  690  1  0.31448400  0.62404700  0.65205000  1
  C  691  1  0.35757900  0.62966000  0.64566600  1
  C  695  1  0.29467600  0.61249950  0.64820200  1
  C  696  1  0.47418700  0.64695800  0.60830300  1
  C  697  1  0.48588400  0.67893500  0.64070800  1
  C  698  1  0.27633300  0.65050900  0.67349950  1
  C  703  1  0.40499100  0.80993050  0.31304950  1
  C  704  1  0.43248200  0.79918000  0.30846900  1
  C  705  1  0.46479000  0.79150550  0.31628850  1
  C  706  1  0.47581100  0.79566250  0.32861750  1
  C  707  1  0.45353600  0.80695350  0.33329600  1
  C  708  1  0.41688300  0.81363600  0.32558750  1
  C  712  1  0.36406600  0.81609550  0.30557100  1
  C  713  1  0.33431200  0.80932750  0.29638800  1
  C  714  1  0.29361700  0.81491500  0.28899200  1
  C  715  1  0.27989900  0.82755150  0.29151050  1
  C  716  1  0.30609100  0.83453150  0.30098500  1
  C  717  1  0.34916400  0.82885100  0.30753200  1
  C  721  1  0.28597200  0.84610250  0.30476900  1
  C  722  1  0.46661300  0.81142300  0.34519450  1
  C  723  1  0.47661900  0.77915400  0.31305650  1
  C  724  1  0.26853000  0.80806550  0.27950150  1
  C  729  1  0.86362000  0.89599600  0.39610900  1
  C  730  1  0.83837400  0.90112900  0.40686650  1
  C  731  1  0.80331000  0.89403150  0.41438750  1
  C  732  1  0.78904500  0.88187150  0.41033700  1
  C  733  1  0.81039700  0.87662750  0.39922250  1
  C  734  1  0.84854500  0.88366800  0.39247050  1
  C  738  1  0.90516600  0.90276250  0.38971200  1
  C  739  1  0.93983000  0.91097200  0.39638650  1
  C  740  1  0.98048500  0.91788200  0.39040350  1
  C  741  1  0.98850000  0.91594400  0.37741150  1
  C  742  1  0.95604000  0.90763700  0.37048300  1
  C  743  1  0.91425900  0.90128500  0.37663600  1
  C  747  1  0.96939800  0.90512350  0.35818700  1
  C  748  1  0.79547800  0.86474750  0.39508850  1
  C  749  1  0.79073700  0.89772050  0.42651950  1
  C  750  1  0.00912700  0.92686600  0.39709300  1
  C  755  1  0.87463500  0.56362900  0.55569500  1
  C  756  1  0.85006300  0.55868200  0.54473050  1
  C  757  1  0.81488300  0.56589850  0.53717050  1
  C  758  1  0.79966400  0.57796200  0.54139250  1
  C  759  1  0.82027300  0.58299650  0.55270650  1
  C  760  1  0.85866300  0.57587250  0.55949400  1
  C  764  1  0.91629600  0.55676100  0.56217200  1
  C  765  1  0.95154200  0.54864400  0.55553250  1
  C  766  1  0.99227300  0.54162950  0.56159300  1
  C  767  1  0.99976100  0.54336500  0.57464800  1
  C  768  1  0.96671000  0.55157500  0.58155400  1
  C  769  1  0.92487300  0.55803100  0.57531000  1
  C  773  1  0.97957800  0.55390600  0.59394050  1
  C  774  1  0.80432000  0.59475600  0.55701600  1
  C  775  1  0.80292200  0.56240800  0.52491650  1
  C  776  1  0.02132000  0.53269250  0.55491400  1
  C  781  1  0.37028200  0.80991000  0.64274050  1
  C  782  1  0.34582700  0.79906950  0.64785100  1
  C  783  1  0.31041500  0.79153150  0.64077400  1
  C  784  1  0.29496700  0.79565000  0.62867850  1
  C  785  1  0.31549500  0.80684150  0.62347200  1
  C  786  1  0.35404100  0.81360950  0.63047300  1
  C  790  1  0.41213500  0.81634900  0.64947000  1
  C  791  1  0.44767300  0.80969450  0.65757850  1
  C  792  1  0.48855600  0.81572350  0.66447700  1
  C  793  1  0.49587200  0.82874950  0.66263450  1
  C  794  1  0.46254200  0.83565900  0.65441800  1
  C  795  1  0.42056900  0.82945750  0.64807650  1
  C  799  1  0.47509900  0.84801400  0.65201000  1
  C  800  1  0.29941300  0.81103500  0.61166000  1
  C  801  1  0.29853700  0.77935400  0.64442000  1
  C  802  1  0.51782900  0.80905400  0.67343050  1
  C  807  1  0.37396100  0.64876700  0.30757850  1
  C  808  1  0.34721500  0.65939550  0.30245800  1
  C  809  1  0.31063400  0.66662250  0.30952600  1
  C  810  1  0.29669900  0.66242550  0.32164400  1
  C  811  1  0.31969900  0.65143000  0.32687800  1
  C  812  1  0.35909800  0.64496150  0.31985800  1
  C  816  1  0.41678100  0.64268000  0.30087200  1
  C  817  1  0.45083700  0.64962400  0.29282050  1
  C  818  1  0.49275700  0.64393600  0.28599100  1
  C  819  1  0.50262900  0.63097850  0.28785100  1
  C  820  1  0.47073700  0.62379050  0.29598750  1
  C  821  1  0.42770600  0.62964700  0.30225950  1
  C  825  1  0.48564500  0.61153650  0.29840550  1
  C  826  1  0.30535900  0.64717100  0.33874650  1
  C  827  1  0.29660100  0.67872350  0.30594900  1
  C  828  1  0.52083600  0.65085550  0.27713800  1
  C  833  1  0.23663900  0.85998800  0.13774300  1
  C  834  1  0.24972800  0.86430000  0.12566300  1
  C  835  1  0.21776500  0.87337850  0.11961450  1
  C  836  1  0.17104700  0.87829500  0.12534850  1
  C  837  1  0.15782400  0.87387100  0.13757500  1
  C  838  1  0.19055100  0.86484100  0.14364350  1
  C  840  1  0.13257300  0.88572300  0.11844800  1
  C  841  1  0.14631500  0.89273500  0.10762750  1
  C  842  1  0.10683400  0.89826800  0.09998950  1
  C  843  1  0.05243800  0.89704700  0.10296500  1
  C  844  1  0.03818900  0.89084750  0.11416550  1
  C  845  1  0.07779900  0.88548700  0.12207150  1
  C  850  1  0.06142100  0.87866900  0.13364900  1
  C  851  1  0.10725300  0.87820600  0.14349050  1
  C  859  1  0.24721300  0.59925450  0.81507700  1
  C  860  1  0.26003500  0.59513800  0.82728750  1
  C  861  1  0.22871800  0.58601500  0.83325350  1
  C  862  1  0.18285600  0.58088700  0.82730700  1
  C  863  1  0.16998300  0.58509450  0.81493800  1
  C  864  1  0.20214700  0.59414500  0.80894350  1
  C  866  1  0.14462500  0.57347500  0.83409200  1
  C  867  1  0.15834300  0.56664600  0.84508800  1
  C  868  1  0.11890300  0.56114600  0.85258400  1
  C  869  1  0.06457600  0.56224250  0.84929950  1
  C  870  1  0.05044100  0.56823850  0.83792450  1
  C  871  1  0.09005300  0.57354600  0.83015500  1
  C  876  1  0.07378700  0.58014050  0.81837500  1
  C  877  1  0.12016100  0.58054800  0.80879750  1
  C  885  1  0.74380300  0.89016200  0.84530650  1
  C  886  1  0.75673700  0.87798450  0.84114650  1
  C  887  1  0.72519500  0.87201750  0.83198600  1
  C  888  1  0.67899800  0.87793050  0.82686700  1
  C  889  1  0.66602300  0.89026750  0.83111300  1
  C  890  1  0.69837900  0.89625850  0.84021100  1
  C  892  1  0.64069600  0.87113100  0.81938950  1
  C  893  1  0.65443400  0.86018300  0.81252150  1
  C  894  1  0.61498100  0.85266450  0.80695500  1
  C  895  1  0.56062000  0.85588400  0.80801200  1
  C  896  1  0.54642700  0.86720750  0.81406050  1
  C  897  1  0.58604300  0.87500350  0.81943000  1
  C  902  1  0.56973300  0.88672900  0.82607550  1
  C  903  1  0.61589600  0.89636550  0.82656600  1
  C  911  1  0.75363000  0.56974150  0.10551550  1
  C  912  1  0.76620500  0.58192600  0.10964500  1
  C  913  1  0.73452000  0.58795750  0.11870650  1
  C  914  1  0.68859900  0.58209400  0.12376450  1
  C  915  1  0.67598600  0.56974800  0.11954600  1
  C  916  1  0.70848600  0.56369050  0.11054800  1
  C  918  1  0.65012400  0.58894250  0.13114150  1
  C  919  1  0.66354900  0.59991200  0.13798950  1
  C  920  1  0.62389700  0.60747350  0.14345450  1
  C  921  1  0.56964100  0.60428650  0.14229800  1
  C  922  1  0.55577900  0.59294200  0.13627800  1
  C  923  1  0.59560300  0.58510200  0.13101200  1
  C  928  1  0.57964500  0.57335000  0.12440100  1
  C  929  1  0.62617500  0.56369150  0.12403600  1
  C  937  1  0.51920700  0.09886400  0.81523050  1
  C  938  1  0.50693900  0.09455950  0.82736150  1
  C  939  1  0.53921500  0.08545350  0.83327400  1
  C  940  1  0.58547200  0.08051850  0.82735300  1
  C  941  1  0.59792800  0.08495500  0.81508600  1
  C  942  1  0.56484300  0.09400250  0.80914900  1
  C  944  1  0.62430600  0.07305450  0.83409650  1
  C  945  1  0.61111200  0.06600250  0.84492800  1
  C  946  1  0.65096700  0.06041350  0.85241050  1
  C  947  1  0.70519100  0.06162200  0.84926400  1
  C  948  1  0.71889000  0.06786250  0.83805050  1
  C  949  1  0.67886100  0.07327600  0.83029250  1
  C  954  1  0.69455400  0.08011650  0.81867550  1
  C  955  1  0.64811500  0.08062200  0.80899050  1
  C  963  1  0.54213300  0.35015100  0.13085500  1
  C  964  1  0.53051300  0.35433950  0.11860250  1
  C  965  1  0.55847500  0.36448000  0.11338150  1
  C  966  1  0.59965700  0.37066650  0.12016100  1
  C  967  1  0.61157000  0.36634400  0.13253950  1
  C  968  1  0.58288200  0.35622300  0.13775450  1
  C  970  1  0.63490200  0.37954250  0.11428500  1
  C  971  1  0.62036800  0.38636300  0.10333850  1
  C  972  1  0.65818300  0.39339250  0.09670100  1
  C  973  1  0.71161700  0.39388250  0.10082300  1
  C  974  1  0.72591700  0.38791450  0.11220200  1
  C  975  1  0.68775200  0.38106550  0.11911600  1
  C  980  1  0.70456400  0.37452400  0.13088300  1
  C  981  1  0.65643400  0.37215700  0.13964600  1
  C  989  1  0.01919900  0.06985000  0.10871950  1
  C  990  1  0.00477500  0.08197550  0.11276400  1
  C  991  1  0.03666700  0.08843150  0.12151400  1
  C  992  1  0.08470400  0.08308800  0.12630600  1
  C  993  1  0.09918300  0.07080250  0.12217700  1
  C  994  1  0.06645700  0.06430700  0.11350650  1
  C  996  1  0.12297200  0.09043000  0.13326150  1
  C  997  1  0.10842300  0.10137650  0.14003900  1
  C  998  1  0.14734900  0.10942400  0.14503550  1
  C  999  1  0.20201700  0.10677250  0.14346300  1
  C  1000  1  0.21723700  0.09546300  0.13752000  1
  C  1001  1  0.17823100  0.08712650  0.13274650  1
  C  1006  1  0.19549900  0.07540900  0.12621900  1
  C  1007  1  0.15109900  0.06531200  0.12636150  1
  C  1015  1  0.01951700  0.39012700  0.84432400  1
  C  1016  1  0.00777900  0.37781200  0.84045100  1
  C  1017  1  0.03981800  0.37172300  0.83149550  1
  C  1018  1  0.08531300  0.37765700  0.82630950  1
  C  1019  1  0.09710000  0.39013200  0.83027650  1
  C  1020  1  0.06421100  0.39624700  0.83915700  1
  C  1022  1  0.12419500  0.37081100  0.81904800  1
  C  1023  1  0.11141500  0.35968850  0.81238300  1
  C  1024  1  0.15147500  0.35221100  0.80696700  1
  C  1025  1  0.20551100  0.35563100  0.80799650  1
  C  1026  1  0.21870600  0.36710250  0.81385500  1
  C  1027  1  0.17844500  0.37485550  0.81906950  1
  C  1032  1  0.19366300  0.38677000  0.82548450  1
  C  1033  1  0.14653700  0.39627450  0.82567200  1
  C  1041  1  0.25080700  0.36171500  0.63607850  1
  C  1042  1  0.26287500  0.36567000  0.62381700  1
  C  1043  1  0.23057100  0.37462600  0.61768450  1
  C  1044  1  0.18445300  0.37974550  0.62351150  1
  C  1045  1  0.17225700  0.37567850  0.63592200  1
  C  1046  1  0.20537500  0.36678550  0.64207600  1
  C  1048  1  0.14545200  0.38699750  0.61658900  1
  C  1049  1  0.15836300  0.39372000  0.60553000  1
  C  1050  1  0.11832000  0.39909600  0.59794450  1
  C  1051  1  0.06417500  0.39799100  0.60120250  1
  C  1052  1  0.05077700  0.39207800  0.61261450  1
  C  1053  1  0.09098800  0.38688750  0.62046900  1
  C  1058  1  0.07556100  0.38039450  0.63230500  1
  C  1059  1  0.12219700  0.38019650  0.64194500  1
  C  1067  1  0.22835700  0.10754450  0.32084000  1
  C  1068  1  0.23966500  0.10363450  0.33320100  1
  C  1069  1  0.21137000  0.09365750  0.33863300  1
  C  1070  1  0.17019300  0.08735800  0.33195850  1
  C  1071  1  0.15872300  0.09137300  0.31945450  1
  C  1072  1  0.18772800  0.10133250  0.31402950  1
  C  1074  1  0.13444600  0.07872600  0.33802950  1
  C  1075  1  0.14842100  0.07217700  0.34917950  1
  C  1076  1  0.11015100  0.06541900  0.35595500  1
  C  1077  1  0.05678300  0.06494150  0.35178100  1
  C  1078  1  0.04302100  0.07063100  0.34022400  1
  C  1079  1  0.08163500  0.07719800  0.33317550  1
  C  1084  1  0.06537300  0.08344850  0.32121050  1
  C  1085  1  0.11380700  0.08546000  0.31245050  1
  C  1093  1  0.74495900  0.38998350  0.34392300  1
  C  1094  1  0.75960300  0.37799800  0.33952550  1
  C  1095  1  0.72791600  0.37178150  0.33056250  1
  C  1096  1  0.67983700  0.37722250  0.32590450  1
  C  1097  1  0.66508800  0.38935750  0.33040400  1
  C  1098  1  0.69762400  0.39561900  0.33928550  1
  C  1100  1  0.64178200  0.37006050  0.31869900  1
  C  1101  1  0.65660100  0.35933100  0.31161600  1
  C  1102  1  0.61787200  0.35136750  0.30640300  1
  C  1103  1  0.56314800  0.35390000  0.30804750  1
  C  1104  1  0.54764500  0.36502550  0.31428600  1
  C  1105  1  0.58645500  0.37328400  0.31928550  1
  C  1110  1  0.56889900  0.38479000  0.32613850  1
  C  1111  1  0.61314000  0.39492650  0.32634600  1
  C  1119  1  0.74440800  0.06884100  0.60625100  1
  C  1120  1  0.75648100  0.08101000  0.61050500  1
  C  1121  1  0.72453600  0.08687300  0.61962500  1
  C  1122  1  0.67883000  0.08085500  0.62460900  1
  C  1123  1  0.66666333  0.06853500  0.62024300  1
  C  1124  1  0.69944900  0.06264250  0.61119400  1
  C  1126  1  0.64014800  0.08753050  0.63207850  1
  C  1127  1  0.65328600  0.09841650  0.63908750  1
  C  1128  1  0.61344700  0.10581600  0.64469050  1
  C  1129  1  0.55929400  0.10254250  0.64351400  1
  C  1130  1  0.54571600  0.09127550  0.63732000  1
  C  1131  1  0.58575500  0.08359200  0.63191150  1
  C  1136  1  0.57018100  0.07190550  0.62513450  1
  C  1137  1  0.61701700  0.06233400  0.62464250  1
  C  1145  1  0.52733700  0.59886850  0.31394400  1
  C  1146  1  0.51580400  0.59482850  0.32620650  1
  C  1147  1  0.54883100  0.58597250  0.33226700  1
  C  1148  1  0.59512900  0.58104050  0.32636200  1
  C  1149  1  0.60690200  0.58522950  0.31396900  1
  C  1150  1  0.57306000  0.59402050  0.30788750  1
  C  1152  1  0.63449000  0.57379450  0.33317050  1
  C  1153  1  0.62191400  0.56689150  0.34413850  1
  C  1154  1  0.66218500  0.56141250  0.35157800  1
  C  1155  1  0.71622600  0.56259200  0.34825600  1
  C  1156  1  0.72932100  0.56871600  0.33693750  1
  C  1157  1  0.68886200  0.57402000  0.32922850  1
  C  1162  1  0.70386200  0.58071000  0.31747250  1
  C  1163  1  0.65710100  0.58091100  0.30786550  1
  C  1171  1  0.51622700  0.86074700  0.63662700  1
  C  1172  1  0.50490100  0.86459750  0.62425350  1
  C  1173  1  0.53737300  0.87346900  0.61825600  1
  C  1174  1  0.58296000  0.87857700  0.62433750  1
  C  1175  1  0.59443300  0.87460150  0.63685550  1
  C  1176  1  0.56106500  0.86581900  0.64288200  1
  C  1178  1  0.62212400  0.88577100  0.61762150  1
  C  1179  1  0.60956900  0.89249400  0.60648850  1
  C  1180  1  0.64979700  0.89790950  0.59917100  1
  C  1181  1  0.70376900  0.89682050  0.60276900  1
  C  1182  1  0.71677300  0.89089200  0.61424800  1
  C  1183  1  0.67632600  0.88567050  0.62183950  1
  C  1188  1  0.69122900  0.87919550  0.63378250  1
  C  1189  1  0.64402200  0.87909300  0.64314650  1
  C  1197  1  0.02073300  0.56924650  0.60683350  1
  C  1198  1  0.00935500  0.58159600  0.61072650  1
  C  1199  1  0.04196300  0.58757050  0.61967150  1
  C  1200  1  0.08772100  0.58148950  0.62481200  1
  C  1201  1  0.09921500  0.56899350  0.62080500  1
  C  1202  1  0.06575500  0.56299600  0.61193650  1
  C  1204  1  0.12692400  0.58819400  0.63210650  1
  C  1205  1  0.11439000  0.59929350  0.63885450  1
  C  1206  1  0.15464700  0.60660900  0.64436450  1
  C  1207  1  0.20863100  0.60303650  0.64335600  1
  C  1208  1  0.22163300  0.59159400  0.63739200  1
  C  1209  1  0.18115900  0.58400100  0.63208050  1
  C  1214  1  0.19605900  0.57209600  0.62557300  1
  C  1215  1  0.14894300  0.56270700  0.62534650  1
  C  1223  1  0.01120000  0.88963600  0.34558050  1
  C  1224  1  0.00015800  0.87728600  0.34170800  1
  C  1225  1  0.03285300  0.87125700  0.33284600  1
  C  1226  1  0.07830800  0.87729300  0.32775900  1
  C  1227  1  0.08947000  0.88979150  0.33174900  1
  C  1228  1  0.05591800  0.89584550  0.34053400  1
  C  1230  1  0.11763700  0.87054650  0.32054550  1
  C  1231  1  0.10537700  0.85943550  0.31380950  1
  C  1232  1  0.14579300  0.85207900  0.30838350  1
  C  1233  1  0.19966900  0.85561500  0.30947750  1
  C  1234  1  0.21237700  0.86707100  0.31542000  1
  C  1235  1  0.17173000  0.87470500  0.32064650  1
  C  1240  1  0.18632300  0.88662600  0.32713000  1
  C  1241  1  0.13885900  0.89604000  0.32725700  1
  C  1249  1  0.53462900  0.81338100  0.09832300  1
  C  1250  1  0.51461200  0.82164600  0.08904200  1
  C  1251  1  0.54832300  0.82632400  0.07963900  1
  C  1252  1  0.60312700  0.82288550  0.07910300  1
  C  1253  1  0.62246900  0.81409250  0.08817100  1
  C  1254  1  0.58831500  0.80944250  0.09760700  1
  C  1256  1  0.64087900  0.82968750  0.07152000  1
  C  1257  1  0.62530400  0.83711050  0.06104200  1
  C  1258  1  0.66046000  0.84580850  0.05566300  1
  C  1259  1  0.71253300  0.84726700  0.06046500  1
  C  1260  1  0.73016800  0.83913700  0.07013900  1
  C  1261  1  0.69541600  0.83017700  0.07544700  1
  C  1266  1  0.71502400  0.82231300  0.08612500  1
  C  1267  1  0.67996000  0.81053800  0.08808800  1
  C  1275  1  0.54300000  0.64728450  0.85405450  1
  C  1276  1  0.52406300  0.63939950  0.86369050  1
  C  1277  1  0.55914600  0.63470200  0.87293800  1
  C  1278  1  0.61427000  0.63775650  0.87295950  1
  C  1279  1  0.63254000  0.64622450  0.86355950  1
  C  1280  1  0.59699700  0.65091000  0.85429550  1
  C  1282  1  0.65291200  0.63085350  0.88038900  1
  C  1283  1  0.63879400  0.62376900  0.89114800  1
  C  1284  1  0.67426900  0.61493600  0.89643300  1
  C  1285  1  0.72524400  0.61300850  0.89125000  1
  C  1286  1  0.74164900  0.62080900  0.88127150  1
  C  1287  1  0.70661000  0.62990000  0.87604950  1
  C  1292  1  0.72474500  0.63738950  0.86504800  1
  C  1293  1  0.69026800  0.64936850  0.86311050  1
  C  1301  1  0.03897700  0.85079550  0.89295800  1
  C  1302  1  0.01976900  0.84122350  0.88498000  1
  C  1303  1  0.05486600  0.83215550  0.88003700  1
  C  1304  1  0.11027900  0.83225900  0.88292950  1
  C  1305  1  0.12891100  0.84158750  0.89147550  1
  C  1306  1  0.09336400  0.85067750  0.89639900  1
  C  1308  1  0.14857500  0.82497050  0.87587350  1
  C  1309  1  0.13429000  0.81422450  0.86874900  1
  C  1310  1  0.16941100  0.80900050  0.85989250  1
  C  1311  1  0.22023200  0.81422650  0.85798050  1
  C  1312  1  0.23673700  0.82424200  0.86576300  1
  C  1313  1  0.20208900  0.82939550  0.87488400  1
  C  1318  1  0.22034700  0.84040450  0.88239400  1
  C  1319  1  0.18690300  0.84215700  0.89447350  1
  C  1327  1  0.04583700  0.60897050  0.05764300  1
  C  1328  1  0.02647900  0.61844450  0.06572500  1
  C  1329  1  0.06096800  0.62771800  0.07043700  1
  C  1330  1  0.11589900  0.62791300  0.06721500  1
  C  1331  1  0.13458100  0.61867200  0.05857500  1
  C  1332  1  0.09963400  0.60937750  0.05388200  1
  C  1334  1  0.15423800  0.63536100  0.07408800  1
  C  1335  1  0.13952300  0.64600350  0.08133500  1
  C  1336  1  0.17503300  0.65130450  0.09009400  1
  C  1337  1  0.22658500  0.64623700  0.09180600  1
  C  1338  1  0.24344700  0.63637500  0.08386000  1
  C  1339  1  0.20838700  0.63115600  0.07482400  1
  C  1344  1  0.22712900  0.62030000  0.06713900  1
  C  1345  1  0.19215700  0.61841450  0.05524500  1
  C  1353  1  0.22367000  0.14556450  0.85479450  1
  C  1354  1  0.24332100  0.13735500  0.86417000  1
  C  1355  1  0.20887000  0.13238900  0.87327250  1
  C  1356  1  0.15365100  0.13547450  0.87340950  1
  C  1357  1  0.13452500  0.14417250  0.86422400  1
  C  1358  1  0.16942500  0.14911350  0.85509350  1
  C  1360  1  0.11571600  0.12849800  0.88078300  1
  C  1361  1  0.13074400  0.12123800  0.89141950  1
  C  1362  1  0.09551300  0.11253400  0.89676500  1
  C  1363  1  0.04385100  0.11090050  0.89177650  1
  C  1364  1  0.02679500  0.11880750  0.88186150  1
  C  1365  1  0.06160700  0.12776900  0.87657700  1
  C  1370  1  0.04262100  0.13541800  0.86568400  1
  C  1371  1  0.07667900  0.14738300  0.86389050  1
  C  1379  1  0.22581900  0.30758750  0.09710800  1
  C  1380  1  0.24779500  0.31559900  0.08795400  1
  C  1381  1  0.21456900  0.32174650  0.07917300  1
  C  1382  1  0.15833900  0.32008400  0.07917100  1
  C  1383  1  0.13678200  0.31153000  0.08809400  1
  C  1384  1  0.17039600  0.30545250  0.09694100  1
  C  1386  1  0.12255300  0.32825400  0.07222500  1
  C  1387  1  0.13909100  0.33551750  0.06178100  1
  C  1388  1  0.10621100  0.34500350  0.05668100  1
  C  1389  1  0.05538100  0.34747700  0.06172600  1
  C  1390  1  0.03690700  0.33975050  0.07156200  1
  C  1391  1  0.06926700  0.33003300  0.07660300  1
  C  1396  1  0.04877100  0.32255900  0.08737700  1
  C  1397  1  0.07798100  0.30975200  0.08857200  1
  C  1405  1  0.71919400  0.10722450  0.06221000  1
  C  1406  1  0.73795200  0.11695900  0.07005200  1
  C  1407  1  0.70272700  0.12621600  0.07459500  1
  C  1408  1  0.64758800  0.12616550  0.07142200  1
  C  1409  1  0.62919800  0.11651350  0.06321050  1
  C  1410  1  0.66489600  0.10724350  0.05868200  1
  C  1412  1  0.60915500  0.13418350  0.07761500  1
  C  1413  1  0.62358700  0.14538400  0.08398500  1
  C  1414  1  0.58703300  0.15182100  0.09165900  1
  C  1415  1  0.53452200  0.14742000  0.09307900  1
  C  1416  1  0.51848700  0.13676250  0.08613800  1
  C  1417  1  0.55470300  0.13035250  0.07821100  1
  C  1422  1  0.53666500  0.11880300  0.07153700  1
  C  1423  1  0.57149900  0.11598600  0.05987900  1
  C  1431  1  0.73106200  0.35142450  0.89294950  1
  C  1432  1  0.75022400  0.34183150  0.88497850  1
  C  1433  1  0.71533600  0.33270100  0.88014950  1
  C  1434  1  0.66016000  0.33276300  0.88314350  1
  C  1435  1  0.64157400  0.34213300  0.89165650  1
  C  1436  1  0.67693000  0.35128400  0.89646800  1
  C  1438  1  0.62176300  0.32540000  0.87619550  1
  C  1439  1  0.63619900  0.31463150  0.86910350  1
  C  1440  1  0.60075900  0.30932700  0.86033000  1
  C  1441  1  0.54952200  0.31451500  0.85844750  1
  C  1442  1  0.53292300  0.32454350  0.86621550  1
  C  1443  1  0.56790400  0.32977350  0.87526200  1
  C  1448  1  0.54947000  0.34078600  0.88276450  1
  C  1449  1  0.58379900  0.34265000  0.89476550  1
  C  1457  1  0.54188200  0.31371850  0.59714650  1
  C  1458  1  0.52235700  0.32176500  0.58761600  1
  C  1459  1  0.55696600  0.32661750  0.57848600  1
  C  1460  1  0.61223700  0.32357450  0.57847400  1
  C  1461  1  0.63124200  0.31503000  0.58781500  1
  C  1462  1  0.59617900  0.31020100  0.59697100  1
  C  1464  1  0.65026700  0.33047500  0.57105500  1
  C  1465  1  0.63540800  0.33757150  0.56029700  1
  C  1466  1  0.67063200  0.34623750  0.55488750  1
  C  1467  1  0.72212100  0.34798900  0.55993300  1
  C  1468  1  0.73904900  0.34023650  0.56997900  1
  C  1469  1  0.70424600  0.33131350  0.57533250  1
  C  1474  1  0.72305900  0.32383600  0.58635900  1
  C  1475  1  0.68912600  0.31187050  0.58827750  1
  C  1483  1  0.53993700  0.15179550  0.35405200  1
  C  1484  1  0.51806100  0.14391300  0.36333050  1
  C  1485  1  0.55132500  0.13791000  0.37220050  1
  C  1486  1  0.60756600  0.13954650  0.37213350  1
  C  1487  1  0.62906600  0.14795150  0.36306150  1
  C  1488  1  0.59538000  0.15391000  0.35414850  1
  C  1490  1  0.64337800  0.13146400  0.37917300  1
  C  1491  1  0.62690100  0.12435300  0.38972750  1
  C  1492  1  0.65970100  0.11490000  0.39491450  1
  C  1493  1  0.71039500  0.11231250  0.38985050  1
  C  1494  1  0.72885300  0.11990100  0.37990700  1
  C  1495  1  0.69657300  0.12958600  0.37477500  1
  C  1500  1  0.71701500  0.13690050  0.36388650  1
  C  1501  1  0.68787100  0.14969900  0.36251950  1
  C  1509  1  0.04927500  0.35207050  0.38940800  1
  C  1510  1  0.03056500  0.34246200  0.38140600  1
  C  1511  1  0.06578100  0.33324500  0.37677900  1
  C  1512  1  0.12084700  0.33321250  0.38002400  1
  C  1513  1  0.13917400  0.34273450  0.38839450  1
  C  1514  1  0.10349100  0.35196550  0.39300550  1
  C  1516  1  0.15932200  0.32526100  0.37376300  1
  C  1517  1  0.14490500  0.31416000  0.36721950  1
  C  1518  1  0.18154600  0.30781300  0.35949550  1
  C  1519  1  0.23412100  0.31220850  0.35818850  1
  C  1520  1  0.25013100  0.32275450  0.36530250  1
  C  1521  1  0.21382600  0.32906900  0.37328300  1
  C  1526  1  0.23186300  0.34050650  0.38014850  1
  C  1527  1  0.19680500  0.34317600  0.39180500  1
  C  1535  1  0.03711700  0.10828050  0.55883650  1
  C  1536  1  0.01790500  0.11772450  0.56697450  1
  C  1537  1  0.05267700  0.12682900  0.57189750  1
  C  1538  1  0.10778500  0.12688800  0.56883500  1
  C  1539  1  0.12640900  0.11766850  0.56016500  1
  C  1540  1  0.09116700  0.10854250  0.55526000  1
  C  1542  1  0.14614700  0.13420550  0.57584000  1
  C  1543  1  0.13161100  0.14485650  0.58309600  1
  C  1544  1  0.16712700  0.15009350  0.59189350  1
  C  1545  1  0.21852900  0.14495200  0.59364250  1
  C  1546  1  0.23519100  0.13505300  0.58571700  1
  C  1547  1  0.20013200  0.12989600  0.57664500  1
  C  1552  1  0.21866600  0.11901600  0.56896650  1
  C  1553  1  0.18412600  0.11727500  0.55698100  1
  C  1561  1  0.23205300  0.64618100  0.35337000  1
  C  1562  1  0.25210100  0.63795350  0.36268300  1
  C  1563  1  0.21837100  0.63326900  0.37207950  1
  C  1564  1  0.16351100  0.63666150  0.37257750  1
  C  1565  1  0.14414600  0.64542900  0.36348750  1
  C  1566  1  0.17831500  0.65008550  0.35405850  1
  C  1568  1  0.12576800  0.62982450  0.38013400  1
  C  1569  1  0.14132500  0.62240300  0.39061550  1
  C  1570  1  0.10626300  0.61365550  0.39595050  1
  C  1571  1  0.05429100  0.61214600  0.39110300  1
  C  1572  1  0.03664300  0.62027650  0.38143000  1
  C  1573  1  0.07129500  0.62928350  0.37616500  1
  C  1578  1  0.05168300  0.63713850  0.36548000  1
  C  1579  1  0.08660700  0.64894050  0.36353700  1
  C  1587  1  0.22389000  0.81201100  0.59747200  1
  C  1588  1  0.24280700  0.81988650  0.58782450  1
  C  1589  1  0.20770800  0.82457850  0.57857750  1
  C  1590  1  0.15258100  0.82152800  0.57856500  1
  C  1591  1  0.13434600  0.81305600  0.58796400  1
  C  1592  1  0.16990100  0.80837500  0.59722900  1
  C  1594  1  0.11391100  0.82845000  0.57115800  1
  C  1595  1  0.12798800  0.83556400  0.56041550  1
  C  1596  1  0.09254100  0.84443150  0.55517800  1
  C  1597  1  0.04163100  0.84636650  0.56039200  1
  C  1598  1  0.02524300  0.83853300  0.57034750  1
  C  1599  1  0.06024900  0.82940800  0.57552150  1
  C  1604  1  0.04213900  0.82189250  0.58650800  1
  C  1605  1  0.07661900  0.80990950  0.58841800  1
  C  1613  1  0.72801100  0.60863700  0.55850800  1
  C  1614  1  0.74721600  0.61823350  0.56645750  1
  C  1615  1  0.71212800  0.62731300  0.57138300  1
  C  1616  1  0.65669300  0.62718550  0.56851750  1
  C  1617  1  0.63805900  0.61783850  0.55999200  1
  C  1618  1  0.67361000  0.60874400  0.55507750  1
  C  1620  1  0.61840300  0.63445550  0.57559800  1
  C  1621  1  0.63267200  0.64519500  0.58273350  1
  C  1622  1  0.59765700  0.65037000  0.59164100  1
  C  1623  1  0.54694600  0.64510100  0.59359600  1
  C  1624  1  0.53041700  0.63510000  0.58579650  1
  C  1625  1  0.56495700  0.62999550  0.57662550  1
  C  1630  1  0.54668700  0.61899150  0.56911000  1
  C  1631  1  0.58005300  0.61725200  0.55701600  1
  C  1639  1  0.72102900  0.85043350  0.39407400  1
  C  1640  1  0.74038400  0.84092700  0.38602900  1
  C  1641  1  0.70587400  0.83165500  0.38132350  1
  C  1642  1  0.65090800  0.83149100  0.38451700  1
  C  1643  1  0.63223400  0.84075400  0.39313400  1
  C  1644  1  0.66720600  0.85004850  0.39782100  1
  C  1646  1  0.61256200  0.82406500  0.37762100  1
  C  1647  1  0.62724200  0.81342150  0.37037050  1
  C  1648  1  0.59180900  0.80816500  0.36156600  1
  C  1649  1  0.54036100  0.81327800  0.35981150  1
  C  1650  1  0.52349900  0.82313400  0.36776600  1
  C  1651  1  0.55847500  0.82830850  0.37684550  1
  C  1656  1  0.53974500  0.83916600  0.38453050  1
  C  1657  1  0.57463700  0.84103800  0.39643950  1
  C  1665  1  0.03590900  0.94579600  0.05664700  1
  C  1666  1  0.01868800  0.95301600  0.04625800  1
  C  1667  1  0.03438700  0.96562100  0.04503200  1
  C  1668  1  0.06773300  0.97147300  0.05412200  1
  C  1669  1  0.08750300  0.96387400  0.06417700  1
  C  1670  1  0.07129500  0.95123400  0.06538500  1
  C  1672  1  0.07175900  0.98498500  0.05508400  1
  C  1673  1  0.05928300  0.99323000  0.04498450  1
  C  1674  1  0.04990200  0.00611000  0.04703500  1
  C  1675  1  0.05352400  0.01115850  0.05926600  1
  C  1676  1  0.07065900  0.00331450  0.06916300  1
  C  1677  1  0.08135300  0.99043300  0.06714300  1
  C  1682  1  0.09604700  0.98247350  0.07816800  1
  C  1683  1  0.12098300  0.96978500  0.07409900  1
  C  1691  1  0.04680300  0.51328700  0.89541600  1
  C  1692  1  0.03026500  0.50630900  0.90595650  1
  C  1693  1  0.04544900  0.49363500  0.90729700  1
  C  1694  1  0.07765700  0.48750150  0.89819300  1
  C  1695  1  0.09706200  0.49488300  0.88802600  1
  C  1696  1  0.08143900  0.50759650  0.88670850  1
  C  1698  1  0.08071300  0.47396050  0.89735000  1
  C  1699  1  0.06858400  0.46589000  0.90755500  1
  C  1700  1  0.05795300  0.45306050  0.90564000  1
  C  1701  1  0.05988200  0.44790600  0.89343750  1
  C  1702  1  0.07686700  0.45553000  0.88343600  1
  C  1703  1  0.08883100  0.46834700  0.88532000  1
  C  1708  1  0.10318800  0.47610800  0.87419350  1
  C  1709  1  0.12931800  0.48866950  0.87809700  1
  C  1717  1  0.54401100  0.80938250  0.75946750  1
  C  1718  1  0.52735300  0.79886250  0.75242950  1
  C  1719  1  0.54262300  0.79752100  0.73980100  1
  C  1720  1  0.57500900  0.80660900  0.73377950  1
  C  1721  1  0.59466100  0.81672750  0.74123550  1
  C  1722  1  0.57890700  0.81805350  0.75389800  1
  C  1724  1  0.57793600  0.80749000  0.72024800  1
  C  1725  1  0.56548800  0.79732800  0.71211700  1
  C  1726  1  0.55446600  0.79930900  0.69928800  1
  C  1727  1  0.55625700  0.81154300  0.69420850  1
  C  1728  1  0.57379100  0.82148950  0.70187650  1
  C  1729  1  0.58616700  0.81953300  0.71469050  1
  C  1734  1  0.60096700  0.83060900  0.72251650  1
  C  1735  1  0.62710500  0.82663300  0.73512450  1
  C  1743  1  0.54970500  0.65082750  0.19109350  1
  C  1744  1  0.53125900  0.66122900  0.19808050  1
  C  1745  1  0.54568800  0.66260000  0.21079250  1
  C  1746  1  0.57893100  0.65364450  0.21696200  1
  C  1747  1  0.60012700  0.64361450  0.20959750  1
  C  1748  1  0.58518900  0.64225850  0.19684650  1
  C  1750  1  0.58146700  0.65275150  0.23050800  1
  C  1751  1  0.56741300  0.66284500  0.23859050  1
  C  1752  1  0.55650100  0.66081500  0.25138500  1
  C  1753  1  0.56000300  0.64860400  0.25648450  1
  C  1754  1  0.57882300  0.63873650  0.24886850  1
  C  1755  1  0.59111100  0.64074650  0.23609500  1
  C  1760  1  0.60756500  0.62974600  0.22833100  1
  C  1761  1  0.63361200  0.63385100  0.21584550  1
  C  1769  1  0.71638900  0.51243650  0.05505800  1
  C  1770  1  0.73568200  0.50583600  0.04451300  1
  C  1771  1  0.72658600  0.49286800  0.04326400  1
  C  1772  1  0.69801900  0.48603900  0.05249300  1
  C  1773  1  0.67549900  0.49297500  0.06265500  1
  C  1774  1  0.68532400  0.50597950  0.06391900  1
  C  1776  1  0.70185700  0.47251150  0.05346500  1
  C  1777  1  0.71782400  0.46469950  0.04332600  1
  C  1778  1  0.73379700  0.45215300  0.04530700  1
  C  1779  1  0.73365000  0.44699100  0.05751700  1
  C  1780  1  0.71350100  0.45428700  0.06747100  1
  C  1781  1  0.69639800  0.46680850  0.06553300  1
  C  1786  1  0.67859700  0.47425700  0.07662100  1
  C  1787  1  0.64657800  0.48609700  0.07266300  1
  C  1795  1  0.70361400  0.94678400  0.89637800  1
  C  1796  1  0.72277500  0.95317600  0.90708600  1
  C  1797  1  0.71382100  0.96616000  0.90844850  1
  C  1798  1  0.68544800  0.97318100  0.89919850  1
  C  1799  1  0.66269900  0.96642400  0.88892450  1
  C  1800  1  0.67232000  0.95340100  0.88754650  1
  C  1802  1  0.68978000  0.98669600  0.89833600  1
  C  1803  1  0.70607800  0.99435900  0.90857050  1
  C  1804  1  0.72271900  0.00682750  0.90671300  1
  C  1805  1  0.72294300  0.01204950  0.89453050  1
  C  1806  1  0.70232900  0.00494050  0.88448000  1
  C  1807  1  0.68457300  0.99250700  0.88629250  1
  C  1812  1  0.66641800  0.98523000  0.87510800  1
  C  1813  1  0.63397700  0.97351300  0.87890450  1
  C  1821  1  0.20658500  0.65019750  0.75819750  1
  C  1822  1  0.22569900  0.66084850  0.75178400  1
  C  1823  1  0.21705300  0.66216250  0.73878100  1
  C  1824  1  0.18906200  0.65291550  0.73177000  1
  C  1825  1  0.16622900  0.64272500  0.73854100  1
  C  1826  1  0.17560700  0.64138500  0.75157950  1
  C  1828  1  0.19388800  0.65197550  0.71827000  1
  C  1829  1  0.21030100  0.66213900  0.71058150  1
  C  1830  1  0.22746800  0.66018050  0.69816150  1
  C  1831  1  0.22817500  0.64796200  0.69302300  1
  C  1832  1  0.20732700  0.63799350  0.70013050  1
  C  1833  1  0.18903800  0.63991100  0.71251300  1
  C  1838  1  0.17071700  0.62880250  0.71981400  1
  C  1839  1  0.13786900  0.63271900  0.73145700  1
  C  1847  1  0.20287100  0.80841000  0.19432850  1
  C  1848  1  0.22337300  0.79786850  0.20081400  1
  C  1849  1  0.21458500  0.79649300  0.21377900  1
  C  1850  1  0.18515600  0.80558800  0.22068550  1
  C  1851  1  0.16127100  0.81570150  0.21384600  1
  C  1852  1  0.17071500  0.81708900  0.20084200  1
  C  1854  1  0.18932500  0.80651750  0.23421100  1
  C  1855  1  0.20659300  0.79639600  0.24195050  1
  C  1856  1  0.22283900  0.79837400  0.25447100  1
  C  1857  1  0.22178500  0.81056900  0.25966250  1
  C  1858  1  0.20030400  0.82048850  0.25245900  1
  C  1859  1  0.18283000  0.81854300  0.23997600  1
  C  1864  1  0.16345500  0.82959300  0.23261550  1
  C  1865  1  0.13145100  0.82556650  0.22082500  1
  C  1873  1  0.22575100  0.15252050  0.19287200  1
  C  1874  1  0.23911700  0.16358500  0.19944400  1
  C  1875  1  0.22568900  0.16496950  0.21218700  1
  C  1876  1  0.19840700  0.15538850  0.21881800  1
  C  1877  1  0.18310700  0.14446400  0.21195200  1
  C  1878  1  0.19705700  0.14310900  0.19917150  1
  C  1880  1  0.19536200  0.15525000  0.23237200  1
  C  1881  1  0.20180900  0.16617850  0.23987450  1
  C  1882  1  0.20978900  0.16535550  0.25294950  1
  C  1883  1  0.21095100  0.15353250  0.25893100  1
  C  1884  1  0.20049300  0.14269700  0.25175950  1
  C  1885  1  0.19130300  0.14345500  0.23867600  1
  C  1890  1  0.18335100  0.13158750  0.23148500  1
  C  1891  1  0.15590700  0.13406350  0.21865100  1
  C  1899  1  0.22627800  0.30967750  0.75897500  1
  C  1900  1  0.24374200  0.29921900  0.75193350  1
  C  1901  1  0.22867800  0.29792250  0.73925100  1
  C  1902  1  0.19566900  0.30698900  0.73317100  1
  C  1903  1  0.17538000  0.31706600  0.74061400  1
  C  1904  1  0.19089500  0.31834150  0.75333500  1
  C  1906  1  0.19250900  0.30790450  0.71963500  1
  C  1907  1  0.20551700  0.29777700  0.71150200  1
  C  1908  1  0.21591100  0.29979200  0.69868000  1
  C  1909  1  0.21285500  0.31201850  0.69359600  1
  C  1910  1  0.19502900  0.32193400  0.70128300  1
  C  1911  1  0.18329500  0.31994700  0.71409150  1
  C  1916  1  0.16799600  0.33099400  0.72191950  1
  C  1917  1  0.14224100  0.32695600  0.73446200  1
  C  1925  1  0.55803400  0.30326750  0.19203750  1
  C  1926  1  0.54262900  0.29267850  0.19907650  1
  C  1927  1  0.54914300  0.29255650  0.21221700  1
  C  1928  1  0.57128700  0.30296250  0.21874250  1
  C  1929  1  0.58950900  0.31331150  0.21144900  1
  C  1930  1  0.58248100  0.31340400  0.19826800  1
  C  1932  1  0.56631900  0.30440850  0.23218650  1
  C  1933  1  0.55707300  0.29417650  0.24043950  1
  C  1934  1  0.54267700  0.29613950  0.25305450  1
  C  1935  1  0.53729300  0.30844900  0.25782250  1
  C  1936  1  0.54996900  0.31865700  0.24999300  1
  C  1937  1  0.56567200  0.31676850  0.23740400  1
  C  1942  1  0.57638700  0.32796700  0.22941200  1
  C  1943  1  0.61143400  0.32453000  0.21797250  1
  C  1951  1  0.55584300  0.14986450  0.75884100  1
  C  1952  1  0.53645300  0.16048750  0.75230200  1
  C  1953  1  0.54570400  0.16178850  0.73934800  1
  C  1954  1  0.57450500  0.15253550  0.73250350  1
  C  1955  1  0.59726500  0.14231800  0.73939750  1
  C  1956  1  0.58735300  0.14100800  0.75238950  1
  C  1958  1  0.57071100  0.15161200  0.71897200  1
  C  1959  1  0.55462500  0.16180700  0.71119050  1
  C  1960  1  0.53867100  0.15989700  0.69863800  1
  C  1961  1  0.53885500  0.14769550  0.69345850  1
  C  1962  1  0.55917800  0.13768100  0.70071250  1
  C  1963  1  0.57635100  0.13955150  0.71323050  1
  C  1968  1  0.59444100  0.12841600  0.72063800  1
  C  1969  1  0.62640700  0.13229450  0.73248450  1
  C  1977  1  0.04551500  0.44651050  0.55491300  1
  C  1978  1  0.02833300  0.45364050  0.54445900  1
  C  1979  1  0.04360400  0.46627000  0.54319350  1
  C  1980  1  0.07645900  0.47223600  0.55230850  1
  C  1981  1  0.09626700  0.46472650  0.56242600  1
  C  1982  1  0.08050500  0.45205850  0.56366950  1
  C  1984  1  0.07973000  0.48576050  0.55323800  1
  C  1985  1  0.06701900  0.49393550  0.54309800  1
  C  1986  1  0.05648500  0.50677650  0.54511100  1
  C  1987  1  0.05920100  0.51184700  0.55734300  1
  C  1988  1  0.07672500  0.50410450  0.56728200  1
  C  1989  1  0.08853500  0.49126800  0.56530250  1
  C  1994  1  0.10346300  0.48339050  0.57637050  1
  C  1995  1  0.12917900  0.47076300  0.57237650  1
  C  2003  1  0.03409500  0.01304050  0.39618200  1
  C  2004  1  0.01669500  0.00609650  0.40666800  1
  C  2005  1  0.03171100  0.99342800  0.40813000  1
  C  2006  1  0.06439900  0.98723300  0.39916150  1
  C  2007  1  0.08450200  0.99456000  0.38903100  1
  C  2008  1  0.06913700  0.00727900  0.38761050  1
  C  2010  1  0.06742900  0.97368500  0.39839500  1
  C  2011  1  0.05457900  0.96566600  0.40859050  1
  C  2012  1  0.04407500  0.95282600  0.40670000  1
  C  2013  1  0.04684700  0.94760800  0.39453450  1
  C  2014  1  0.06451500  0.95518300  0.38456200  1
  C  2015  1  0.07634700  0.96800900  0.38642650  1
  C  2020  1  0.09145700  0.97571200  0.37531600  1
  C  2021  1  0.11737300  0.98828900  0.37925100  1
  C  2029  1  0.70569500  0.01218950  0.55571150  1
  C  2030  1  0.72444300  0.00564550  0.54507300  1
  C  2031  1  0.71547900  0.99267100  0.54383650  1
  C  2032  1  0.68751100  0.98581500  0.55314950  1
  C  2033  1  0.66514800  0.99272000  0.56334750  1
  C  2034  1  0.67482800  0.00572850  0.56460500  1
  C  2036  1  0.69182500  0.97229700  0.55411750  1
  C  2037  1  0.70753500  0.96450400  0.54394050  1
  C  2038  1  0.72407800  0.95199400  0.54589200  1
  C  2039  1  0.72487600  0.94687050  0.55811750  1
  C  2040  1  0.70475200  0.95411300  0.56811100  1
  C  2041  1  0.68705800  0.96659100  0.56620150  1
  C  2046  1  0.66941400  0.97401400  0.57732200  1
  C  2047  1  0.63686500  0.98579600  0.57342650  1
  C  2055  1  0.71162100  0.44744750  0.39491050  1
  C  2056  1  0.73199900  0.45374750  0.40554500  1
  C  2057  1  0.72447700  0.46678050  0.40690750  1
  C  2058  1  0.69646200  0.47394350  0.39770850  1
  C  2059  1  0.67269600  0.46732000  0.38747600  1
  C  2060  1  0.68091200  0.45424500  0.38609850  1
  C  2062  1  0.70187600  0.48743850  0.39685650  1
  C  2063  1  0.71900600  0.49501500  0.40708150  1
  C  2064  1  0.73615000  0.50744800  0.40523800  1
  C  2065  1  0.73617800  0.51271600  0.39307500  1
  C  2066  1  0.71495600  0.50569300  0.38303600  1
  C  2067  1  0.69661400  0.49330400  0.38484050  1
  C  2072  1  0.67754700  0.48612300  0.37367700  1
  C  2073  1  0.64425800  0.47455300  0.37751450  1
  C  2081  1  0.92281300  0.90291900  0.94569100  1
  C  2082  1  0.89674300  0.91370000  0.95032500  1
  C  2083  1  0.87825000  0.91407900  0.96278150  1
  C  2084  1  0.88348500  0.90348800  0.97078900  1
  C  2085  1  0.90933200  0.89252300  0.96600900  1
  C  2086  1  0.92887200  0.89236400  0.95359600  1
  C  2088  1  0.85830100  0.90291350  0.98288900  1
  C  2089  1  0.85071300  0.91369500  0.99052250  1
  C  2090  1  0.83130100  0.91262100  0.00285500  1
  C  2091  1  0.81668400  0.90082200  0.00767700  1
  C  2092  1  0.82384400  0.89002200  0.00018700  1
  C  2093  1  0.84483500  0.89093650  0.98795300  1
  C  2098  1  0.85720800  0.87929550  0.98070650  1
  C  2099  1  0.91087700  0.88083950  0.97372950  1
  C  2107  1  0.93503300  0.55599500  0.00597400  1
  C  2108  1  0.90870400  0.54531700  0.00126500  1
  C  2109  1  0.89009700  0.54504050  0.98877300  1
  C  2110  1  0.89538100  0.55564800  0.98081700  1
  C  2111  1  0.92158800  0.56649550  0.98567400  1
  C  2112  1  0.94142800  0.56653450  0.99810950  1
  C  2114  1  0.86992900  0.55636400  0.96868400  1
  C  2115  1  0.86204300  0.54564050  0.96099300  1
  C  2116  1  0.84262100  0.54684350  0.94861400  1
  C  2117  1  0.82821400  0.55871750  0.94381000  1
  C  2118  1  0.83551400  0.56945600  0.95137850  1
  C  2119  1  0.85656300  0.56841000  0.96365600  1
  C  2124  1  0.86925100  0.57997100  0.97097700  1
  C  2125  1  0.92309300  0.57821050  0.97800400  1
  C  2133  1  0.42731500  0.69905650  0.80137800  1
  C  2134  1  0.40084100  0.70381400  0.79067250  1
  C  2135  1  0.38253100  0.71633600  0.79038950  1
  C  2136  1  0.38821700  0.72426450  0.80101750  1
  C  2137  1  0.41451100  0.71935600  0.81189600  1
  C  2138  1  0.43400700  0.70689200  0.81194800  1
  C  2140  1  0.36324500  0.73645150  0.80170400  1
  C  2141  1  0.35543400  0.74416750  0.79097500  1
  C  2142  1  0.33651700  0.75658700  0.79215850  1
  C  2143  1  0.32258300  0.76140350  0.80402300  1
  C  2144  1  0.32977900  0.75382000  0.81476450  1
  C  2145  1  0.35028100  0.74149300  0.81373550  1
  C  2150  1  0.36291200  0.73412950  0.82530700  1
  C  2151  1  0.41648000  0.72700300  0.82362600  1
  C  2159  1  0.43182700  0.76125100  0.15106450  1
  C  2160  1  0.40384600  0.75630600  0.16135950  1
  C  2161  1  0.38685900  0.74372650  0.16128700  1
  C  2162  1  0.39557700  0.73591300  0.15069150  1
  C  2163  1  0.42373600  0.74098550  0.14025500  1
  C  2164  1  0.44181100  0.75351650  0.14056650  1
  C  2166  1  0.37136900  0.72373950  0.14948350  1
  C  2167  1  0.36122500  0.71591150  0.15998200  1
  C  2168  1  0.34231500  0.70358400  0.15837350  1
  C  2169  1  0.33082600  0.69897800  0.14626750  1
  C  2170  1  0.34068000  0.70663700  0.13573600  1
  C  2171  1  0.36112300  0.71887550  0.13721650  1
  C  2176  1  0.37616900  0.72634200  0.12593350  1
  C  2177  1  0.42890000  0.73344750  0.12851350  1
  C  2185  1  0.84027300  0.05640000  0.00844800  1
  C  2186  1  0.86603200  0.04565350  0.00363000  1
  C  2187  1  0.88255000  0.04526050  0.99102000  1
  C  2188  1  0.87554600  0.05579000  0.98300050  1
  C  2189  1  0.85016700  0.06672650  0.98796900  1
  C  2190  1  0.83266200  0.06690900  0.00055100  1
  C  2192  1  0.89839700  0.05632450  0.97062950  1
  C  2193  1  0.90537700  0.04550400  0.96302350  1
  C  2194  1  0.92288800  0.04651500  0.95051400  1
  C  2195  1  0.93610800  0.05831600  0.94546850  1
  C  2196  1  0.92930000  0.06916350  0.95290550  1
  C  2197  1  0.91025800  0.06829800  0.96532400  1
  C  2202  1  0.89868500  0.07996850  0.97259500  1
  C  2203  1  0.84658400  0.07834400  0.98018000  1
  C  2211  1  0.84915100  0.40337900  0.94531850  1
  C  2212  1  0.87556100  0.41403350  0.95005800  1
  C  2213  1  0.89310500  0.41438400  0.96263650  1
  C  2214  1  0.88663600  0.40387500  0.97067100  1
  C  2215  1  0.86052200  0.39303350  0.96577650  1
  C  2216  1  0.84179900  0.39291750  0.95324350  1
  C  2218  1  0.91064600  0.40324800  0.98298000  1
  C  2219  1  0.91839100  0.41404750  0.99056800  1
  C  2220  1  0.93670300  0.41296100  0.00305200  1
  C  2221  1  0.95009800  0.40111500  0.00807900  1
  C  2222  1  0.94271600  0.39029600  0.00063800  1
  C  2223  1  0.92279400  0.39123450  0.98824200  1
  C  2228  1  0.91036200  0.37961200  0.98099600  1
  C  2229  1  0.85753000  0.38142250  0.97356650  1
  C  2237  1  0.30670900  0.26468600  0.15589450  1
  C  2238  1  0.32640900  0.25824500  0.16652100  1
  C  2239  1  0.35666800  0.24715850  0.16518600  1
  C  2240  1  0.36824300  0.24211400  0.15316000  1
  C  2241  1  0.35101700  0.24905400  0.14239450  1
  C  2242  1  0.31936000  0.25998500  0.14384700  1
  C  2244  1  0.39433500  0.23012650  0.15140850  1
  C  2245  1  0.39126900  0.22040100  0.16050000  1
  C  2246  1  0.40739100  0.20804850  0.15768700  1
  C  2247  1  0.42837300  0.20505700  0.14581100  1
  C  2248  1  0.43300700  0.21466150  0.13674750  1
  C  2249  1  0.41612700  0.22707500  0.13942700  1
  C  2254  1  0.41655600  0.23684900  0.12941900  1
  C  2255  1  0.36363700  0.24445650  0.12951000  1
  C  2263  1  0.33763900  0.19898800  0.80311550  1
  C  2264  1  0.36315100  0.20363100  0.79233150  1
  C  2265  1  0.38161600  0.21608750  0.79197300  1
  C  2266  1  0.37690300  0.22407300  0.80258350  1
  C  2267  1  0.35151300  0.21928000  0.81353750  1
  C  2268  1  0.33191200  0.20687450  0.81367700  1
  C  2270  1  0.40205100  0.23618600  0.80317450  1
  C  2271  1  0.40919500  0.24382400  0.79239550  1
  C  2272  1  0.42857700  0.25616650  0.79347750  1
  C  2273  1  0.44348100  0.26098900  0.80529200  1
  C  2274  1  0.43679100  0.25350400  0.81609300  1
  C  2275  1  0.41597700  0.24124550  0.81515950  1
  C  2280  1  0.40418700  0.23397650  0.82678700  1
  C  2281  1  0.35047800  0.22698850  0.82523100  1
  C  2289  1  0.92950600  0.40280050  0.44355050  1
  C  2290  1  0.90365600  0.41356350  0.44829850  1
  C  2291  1  0.88598900  0.41392200  0.46082250  1
  C  2292  1  0.89188400  0.40333250  0.46881000  1
  C  2293  1  0.91744600  0.39238150  0.46391350  1
  C  2294  1  0.93613100  0.39223850  0.45142550  1
  C  2296  1  0.86771700  0.40275450  0.48103500  1
  C  2297  1  0.86040900  0.41354350  0.48867400  1
  C  2298  1  0.84180300  0.41247850  0.50108150  1
  C  2299  1  0.82776900  0.40067550  0.50599150  1
  C  2300  1  0.83475900  0.38986400  0.49850700  1
  C  2301  1  0.85491100  0.39077500  0.48618650  1
  C  2306  1  0.86685900  0.37913250  0.47890600  1
  C  2307  1  0.91982300  0.38070900  0.47164500  1
  C  2315  1  0.92082000  0.05633300  0.50593200  1
  C  2316  1  0.89425100  0.04565450  0.50130750  1
  C  2317  1  0.87557300  0.04529800  0.48881950  1
  C  2318  1  0.88108800  0.05583000  0.48077100  1
  C  2319  1  0.90754100  0.06668350  0.48553950  1
  C  2320  1  0.92739000  0.06680450  0.49797550  1
  C  2322  1  0.85572200  0.05646400  0.46861800  1
  C  2323  1  0.84740800  0.04568200  0.46104400  1
  C  2324  1  0.82789400  0.04678350  0.44866350  1
  C  2325  1  0.81381300  0.05862950  0.44373600  1
  C  2326  1  0.82162800  0.06943450  0.45117400  1
  C  2327  1  0.84277300  0.06848250  0.46345750  1
  C  2332  1  0.85581600  0.08009700  0.47065950  1
  C  2333  1  0.90949100  0.07831400  0.47775100  1
  C  2341  1  0.45715900  0.19452650  0.29501150  1
  C  2342  1  0.43774500  0.20112150  0.28444950  1
  C  2343  1  0.40890000  0.21240300  0.28588500  1
  C  2344  1  0.39861500  0.21751250  0.29794950  1
  C  2345  1  0.41550100  0.21043600  0.30865550  1
  C  2346  1  0.44566500  0.19928750  0.30710000  1
  C  2348  1  0.37402000  0.22966250  0.29979000  1
  C  2349  1  0.37750700  0.23936950  0.29068750  1
  C  2350  1  0.36237900  0.25178900  0.29351850  1
  C  2351  1  0.34199000  0.25487500  0.30542800  1
  C  2352  1  0.33722300  0.24530750  0.31452750  1
  C  2353  1  0.35313400  0.23282750  0.31183200  1
  C  2358  1  0.35233500  0.22307250  0.32185750  1
  C  2359  1  0.40437100  0.21513950  0.32157850  1
  C  2367  1  0.42603300  0.26079650  0.64887050  1
  C  2368  1  0.40055700  0.25605900  0.65961800  1
  C  2369  1  0.38330500  0.24350300  0.65998850  1
  C  2370  1  0.38924300  0.23549750  0.64942750  1
  C  2371  1  0.41449900  0.24039250  0.63850200  1
  C  2372  1  0.43284900  0.25290300  0.63834950  1
  C  2374  1  0.36546800  0.22322800  0.64884350  1
  C  2375  1  0.35864500  0.21559950  0.65964200  1
  C  2376  1  0.34043100  0.20315400  0.65858150  1
  C  2377  1  0.32641300  0.19820600  0.64675950  1
  C  2378  1  0.33292300  0.20566700  0.63593700  1
  C  2379  1  0.35256300  0.21803350  0.63685350  1
  C  2384  1  0.36401300  0.22531350  0.62521400  1
  C  2385  1  0.41684700  0.23263950  0.62684950  1
  C  2393  1  0.84608100  0.55657700  0.50597500  1
  C  2394  1  0.87220300  0.54581650  0.50130800  1
  C  2395  1  0.89016100  0.54542650  0.48880900  1
  C  2396  1  0.88429100  0.55598350  0.48077800  1
  C  2397  1  0.85846200  0.56693450  0.48559650  1
  C  2398  1  0.83949500  0.56710650  0.49805550  1
  C  2400  1  0.90876300  0.55654150  0.46859150  1
  C  2401  1  0.91628400  0.54573800  0.46098500  1
  C  2402  1  0.93515800  0.54678350  0.44859900  1
  C  2403  1  0.94927000  0.55858250  0.44369300  1
  C  2404  1  0.94205700  0.56940750  0.45114500  1
  C  2405  1  0.92162300  0.56851700  0.46343700  1
  C  2410  1  0.90936400  0.58017250  0.47066750  1
  C  2411  1  0.85617200  0.57858450  0.47783100  1
  C  2419  1  0.83395500  0.90328000  0.44561500  1
  C  2420  1  0.86024200  0.91394700  0.45036000  1
  C  2421  1  0.87827000  0.91424400  0.46290300  1
  C  2422  1  0.87247700  0.90366300  0.47087250  1
  C  2423  1  0.84643300  0.89281500  0.46596950  1
  C  2424  1  0.82716800  0.89275700  0.45348600  1
  C  2426  1  0.89719400  0.90297400  0.48309200  1
  C  2427  1  0.90483800  0.91371900  0.49076600  1
  C  2428  1  0.92367700  0.91255000  0.50319850  1
  C  2429  1  0.93771300  0.90068350  0.50807950  1
  C  2430  1  0.93054500  0.88992100  0.50054300  1
  C  2431  1  0.91009800  0.89093650  0.48820450  1
  C  2436  1  0.89770200  0.87935650  0.48088550  1
  C  2437  1  0.84432400  0.88112750  0.47367000  1
  C  2445  1  0.34193600  0.76028050  0.65000950  1
  C  2446  1  0.36848900  0.75551700  0.66070150  1
  C  2447  1  0.38630100  0.74295550  0.66102000  1
  C  2448  1  0.37990700  0.73497550  0.65045150  1
  C  2449  1  0.35353700  0.73989050  0.63958600  1
  C  2450  1  0.33462700  0.75240300  0.63949200  1
  C  2452  1  0.40420900  0.72271100  0.64980100  1
  C  2453  1  0.41208300  0.71504850  0.66056750  1
  C  2454  1  0.43052100  0.70258350  0.65943550  1
  C  2455  1  0.44388000  0.69766050  0.64757800  1
  C  2456  1  0.43650700  0.70517800  0.63679650  1
  C  2457  1  0.41650000  0.71755300  0.63777950  1
  C  2462  1  0.40384800  0.72486800  0.62617900  1
  C  2463  1  0.35074500  0.73217200  0.62791300  1
  C  2471  1  0.33694000  0.69818400  0.30072850  1
  C  2472  1  0.36502500  0.70314650  0.29045750  1
  C  2473  1  0.38152000  0.71576350  0.29050350  1
  C  2474  1  0.37215500  0.72360950  0.30104500  1
  C  2475  1  0.34396500  0.71851400  0.31146450  1
  C  2476  1  0.32642500  0.70594000  0.31118300  1
  C  2478  1  0.39568100  0.73586200  0.30222100  1
  C  2479  1  0.40584100  0.74365350  0.29169500  1
  C  2480  1  0.42425100  0.75602950  0.29326100  1
  C  2481  1  0.43518600  0.76072900  0.30535900  1
  C  2482  1  0.42520200  0.75311950  0.31591850  1
  C  2483  1  0.40527400  0.74082850  0.31447600  1
  C  2488  1  0.39026600  0.73338950  0.32577900  1
  C  2489  1  0.33803200  0.72610250  0.32315250  1
  H  7  1  0.82589300  0.90735400  0.04325300  1
  H  8  1  0.85597300  0.87718600  0.06798800  1
  H  9  1  0.75272200  0.87257250  0.03728600  1
  H  16  1  0.91150400  0.91128300  0.04663800  1
  H  17  1  0.00478100  0.91957600  0.07822400  1
  H  18  1  0.88471500  0.89248600  0.08088500  1
  H  23  1  0.94290200  0.89833300  0.09934850  1
  H  24  1  0.81162500  0.85716500  0.06409100  1
  H  25  1  0.74460900  0.88961000  0.02181900  1
  H  26  1  0.97504200  0.92790400  0.04555900  1
  H  33  1  0.83763800  0.55234600  0.90824250  1
  H  34  1  0.86806600  0.58251400  0.88370550  1
  H  35  1  0.76482700  0.58733300  0.91415550  1
  H  42  1  0.92339300  0.54825750  0.90514200  1
  H  43  1  0.01676700  0.53973400  0.87381050  1
  H  44  1  0.89664000  0.56712950  0.87082650  1
  H  49  1  0.95500100  0.56113200  0.85250550  1
  H  50  1  0.82351000  0.60259800  0.88741050  1
  H  51  1  0.75644900  0.57026500  0.92952150  1
  H  52  1  0.98762900  0.53160800  0.90643750  1
  H  59  1  0.33336567  0.79691200  0.79769750  1
  H  60  1  0.36336300  0.82157050  0.82786550  1
  H  61  1  0.25926500  0.79127700  0.83238650  1
  H  68  1  0.41937500  0.79990500  0.79396800  1
  H  69  1  0.51331200  0.83113450  0.78564450  1
  H  70  1  0.39244300  0.83435100  0.81251900  1
  H  75  1  0.45108800  0.85258450  0.80670850  1
  H  76  1  0.31846700  0.81792100  0.84782200  1
  H  77  1  0.25132300  0.77579550  0.81540550  1
  H  78  1  0.48395500  0.79848700  0.77755500  1
  H  85  1  0.34135300  0.66353600  0.15201650  1
  H  86  1  0.37088500  0.63871500  0.12198150  1
  H  87  1  0.26743800  0.66939500  0.11711600  1
  H  94  1  0.42719500  0.66039400  0.15595500  1
  H  95  1  0.52152700  0.62903200  0.16462950  1
  H  96  1  0.40094900  0.62596650  0.13737850  1
  H  101  1  0.45999000  0.60764950  0.14338700  1
  H  102  1  0.32568600  0.64248200  0.10190200  1
  H  103  1  0.26078100  0.68511300  0.13392500  1
  H  104  1  0.49179100  0.66176800  0.17249250  1
  H  111  1  0.91964900  0.54941600  0.04167500  1
  H  112  1  0.89874400  0.58000250  0.06632900  1
  H  113  1  0.00382800  0.58281100  0.03591600  1
  H  120  1  0.83080500  0.54779950  0.04482300  1
  H  121  1  0.74387800  0.53911100  0.07718700  1
  H  122  1  0.87295400  0.56396000  0.07966700  1
  H  127  1  0.78475100  0.54703200  0.09807650  1
  H  128  1  0.94712200  0.59943350  0.06217100  1
  H  129  1  0.01037100  0.56507350  0.02106200  1
  H  130  1  0.75921300  0.53275800  0.04371600  1
  H  137  1  0.90707100  0.90948000  0.91011250  1
  H  138  1  0.88915900  0.87937750  0.88475700  1
  H  139  1  0.99345200  0.87608000  0.91556350  1
  H  146  1  0.81841400  0.91114500  0.90656800  1
  H  147  1  0.73205500  0.92035800  0.87398100  1
  H  148  1  0.86254500  0.89560550  0.87163700  1
  H  153  1  0.77365300  0.91276300  0.85312550  1
  H  154  1  0.93841500  0.85984400  0.88893000  1
  H  155  1  0.99807500  0.89348100  0.93083700  1
  H  156  1  0.74606100  0.92617200  0.90760700  1
  H  163  1  0.41090500  0.66339050  0.79488350  1
  H  164  1  0.39325700  0.63862200  0.82544250  1
  H  165  1  0.49860100  0.66903350  0.82801550  1
  H  172  1  0.32183200  0.66026650  0.79360000  1
  H  173  1  0.23458900  0.62789600  0.78487650  1
  H  174  1  0.36604500  0.62532800  0.80937100  1
  H  179  1  0.27714400  0.60696750  0.79245250  1
  H  180  1  0.44340900  0.64280200  0.84476800  1
  H  181  1  0.50319300  0.68396700  0.81033350  1
  H  182  1  0.24829900  0.66142150  0.77881900  1
  H  189  1  0.41007800  0.79680400  0.15798700  1
  H  190  1  0.38663600  0.82155750  0.12753750  1
  H  191  1  0.49715800  0.79193050  0.12483300  1
  H  198  1  0.32042300  0.79928500  0.15921000  1
  H  199  1  0.22749800  0.83095300  0.16790100  1
  H  200  1  0.35818900  0.83459950  0.14370500  1
  H  205  1  0.26571500  0.85219200  0.16051800  1
  H  206  1  0.43667500  0.81803100  0.10829200  1
  H  207  1  0.50558500  0.77702850  0.14265800  1
  H  208  1  0.24773500  0.79751850  0.17392300  1
  H  215  1  0.92707300  0.05139850  0.90984150  1
  H  216  1  0.90073300  0.08113200  0.88435150  1
  H  217  1  0.00094400  0.08614600  0.91551800  1
  H  224  1  0.84274100  0.04707000  0.90564600  1
  H  225  1  0.75237500  0.03882900  0.87360950  1
  H  226  1  0.87265000  0.06590000  0.87154100  1
  H  231  1  0.81518900  0.06023800  0.85281550  1
  H  232  1  0.94431100  0.10125350  0.88837950  1
  H  233  1  0.00799700  0.06926350  0.93120300  1
  H  234  1  0.77430400  0.03126100  0.90656500  1
  H  241  1  0.93962600  0.40782400  0.04358600  1
  H  242  1  0.91269300  0.37778250  0.06851000  1
  H  243  1  0.01644900  0.37321250  0.03818200  1
  H  250  1  0.85484700  0.41210850  0.04711300  1
  H  251  1  0.75779200  0.41921250  0.07816000  1
  H  252  1  0.88142400  0.39272700  0.08117500  1
  H  257  1  0.82031800  0.39809950  0.09937800  1
  H  258  1  0.95666300  0.35769250  0.06437800  1
  H  259  1  0.02259600  0.39011050  0.02253200  1
  H  260  1  0.78291700  0.42732700  0.04565000  1
  H  267  1  0.41060900  0.17010850  0.14948950  1
  H  268  1  0.38786600  0.14318600  0.12097100  1
  H  269  1  0.48395900  0.17454050  0.11455300  1
  H  276  1  0.33146100  0.16459300  0.15580200  1
  H  277  1  0.25117400  0.13174500  0.16558650  1
  H  278  1  0.36121300  0.13083300  0.13621100  1
  H  283  1  0.31067800  0.11159800  0.14300600  1
  H  284  1  0.43043300  0.14720200  0.10028750  1
  H  285  1  0.49036500  0.19091650  0.13073600  1
  H  286  1  0.27216400  0.16473150  0.17340550  1
  H  293  1  0.43428300  0.29644600  0.79848400  1
  H  294  1  0.40550900  0.32176550  0.82816100  1
  H  295  1  0.50835600  0.29106400  0.83342700  1
  H  302  1  0.34952700  0.29993500  0.79407100  1
  H  303  1  0.25521500  0.33128800  0.78539250  1
  H  304  1  0.37475500  0.33429800  0.81286300  1
  H  309  1  0.31543300  0.35261300  0.80680550  1
  H  310  1  0.45055100  0.31821850  0.84828050  1
  H  311  1  0.51534900  0.27519300  0.81668550  1
  H  312  1  0.28620100  0.29866950  0.77725650  1
  H  319  1  0.86198300  0.41023150  0.90946500  1
  H  320  1  0.87767400  0.38007500  0.88406600  1
  H  321  1  0.77781900  0.37685050  0.91538100  1
  H  328  1  0.94948200  0.41228900  0.90507700  1
  H  329  1  0.03025500  0.42094200  0.87183600  1
  H  330  1  0.90104500  0.39606350  0.87069500  1
  H  335  1  0.98577200  0.41277900  0.85132550  1
  H  336  1  0.83064900  0.36049250  0.88865600  1
  H  337  1  0.77303300  0.39455900  0.93042450  1
  H  338  1  0.02463100  0.42675850  0.90536250  1
  H  345  1  0.85711900  0.04957550  0.04402800  1
  H  346  1  0.87094500  0.07920650  0.07009500  1
  H  347  1  0.76803400  0.08263750  0.03909050  1
  H  354  1  0.94396300  0.04725900  0.04828000  1
  H  355  1  0.03005000  0.03857100  0.08100400  1
  H  356  1  0.90001400  0.06345900  0.08294650  1
  H  361  1  0.99067200  0.04689750  0.10169650  1
  H  362  1  0.82085000  0.09871150  0.06592000  1
  H  363  1  0.76525500  0.06547150  0.02350800  1
  H  364  1  0.01992600  0.03277400  0.04760700  1
  H  371  1  0.35168800  0.29383850  0.15715250  1
  H  372  1  0.39174700  0.30792450  0.12147050  1
  H  373  1  0.24653500  0.28891750  0.12678750  1
  H  380  1  0.44635400  0.29068950  0.15684500  1
  H  381  1  0.54995100  0.32123450  0.16191850  1
  H  382  1  0.42343500  0.32402050  0.13603050  1
  H  387  1  0.51147500  0.34207500  0.15308400  1
  H  388  1  0.33008300  0.30437750  0.10378050  1
  H  389  1  0.23129000  0.28915100  0.15416900  1
  H  390  1  0.52109700  0.28951200  0.17203800  1
  H  397  1  0.35273100  0.16350250  0.79628050  1
  H  398  1  0.37172000  0.13769000  0.82600500  1
  H  399  1  0.26788700  0.16849050  0.82974400  1
  H  406  1  0.44081300  0.15987350  0.79434950  1
  H  407  1  0.52756900  0.12744750  0.78504250  1
  H  408  1  0.39843700  0.12482600  0.80980100  1
  H  413  1  0.48683900  0.10649950  0.79266050  1
  H  414  1  0.32365300  0.14167450  0.84562000  1
  H  415  1  0.26294700  0.18410300  0.81255750  1
  H  416  1  0.51166300  0.16106200  0.77915850  1
  H  423  1  0.83723200  0.40750200  0.54146100  1
  H  424  1  0.86587300  0.37784600  0.56690050  1
  H  425  1  0.76366200  0.37268150  0.53611150  1
  H  432  1  0.92190700  0.41177200  0.54509150  1
  H  433  1  0.01490200  0.42040550  0.57660850  1
  H  434  1  0.89573300  0.39314200  0.57946450  1
  H  439  1  0.95424700  0.39916450  0.59787650  1
  H  440  1  0.82153500  0.35775950  0.56326000  1
  H  441  1  0.75637300  0.38938600  0.52026000  1
  H  442  1  0.98460600  0.42854650  0.54392900  1
  H  449  1  0.82409600  0.05190800  0.40837050  1
  H  450  1  0.85326500  0.08184600  0.38347600  1
  H  451  1  0.74798300  0.08664050  0.41348500  1
  H  458  1  0.90914800  0.04767050  0.40536000  1
  H  459  1  0.00856100  0.04015900  0.37481800  1
  H  460  1  0.88591300  0.06680900  0.37105300  1
  H  465  1  0.94793300  0.06111200  0.35315550  1
  H  466  1  0.80887700  0.10193850  0.38725250  1
  H  467  1  0.74159700  0.06992350  0.42930800  1
  H  468  1  0.97596900  0.03159200  0.40710000  1
  H  475  1  0.35866900  0.28997900  0.30164200  1
  H  476  1  0.37992700  0.31693200  0.33020300  1
  H  477  1  0.28579400  0.28524300  0.33660450  1
  H  484  1  0.43775900  0.29579900  0.29538850  1
  H  485  1  0.51577600  0.32896700  0.28567850  1
  H  486  1  0.40485500  0.32945450  0.31490600  1
  H  491  1  0.45450500  0.34888250  0.30827200  1
  H  492  1  0.33813800  0.31266950  0.35093100  1
  H  493  1  0.27938100  0.26900050  0.32026300  1
  H  494  1  0.50358300  0.29586700  0.27872550  1
  H  501  1  0.33553800  0.16260700  0.65358100  1
  H  502  1  0.36209500  0.13724200  0.62382250  1
  H  503  1  0.26103000  0.16829150  0.61872500  1
  H  510  1  0.42012200  0.15862100  0.65798800  1
  H  511  1  0.51179100  0.12676450  0.66636000  1
  H  512  1  0.39111300  0.12446850  0.63908700  1
  H  517  1  0.44933500  0.10585850  0.64481500  1
  H  518  1  0.31761100  0.14113450  0.60368600  1
  H  519  1  0.25428900  0.18400200  0.63562600  1
  H  520  1  0.48925900  0.15967350  0.67383250  1
  H  527  1  0.90726900  0.04957200  0.54154750  1
  H  528  1  0.88966300  0.07954150  0.56708250  1
  H  529  1  0.99175900  0.08299200  0.53619100  1
  H  536  1  0.81930400  0.04769300  0.54528550  1
  H  537  1  0.73494500  0.03860750  0.57790800  1
  H  538  1  0.86417200  0.06341350  0.58015350  1
  H  543  1  0.77773600  0.04633650  0.59875450  1
  H  544  1  0.93755300  0.09909200  0.56294950  1
  H  545  1  0.99647800  0.06559300  0.52087100  1
  H  546  1  0.74816200  0.03253600  0.54431400  1
  H  553  1  0.91193100  0.40959150  0.40819500  1
  H  554  1  0.89636300  0.38005200  0.38209400  1
  H  555  1  0.00173500  0.37657550  0.41264500  1
  H  562  1  0.82438800  0.41152600  0.40465700  1
  H  563  1  0.73461200  0.42055000  0.37257000  1
  H  564  1  0.86520500  0.39593550  0.36951700  1
  H  569  1  0.77277100  0.41278250  0.35154700  1
  H  570  1  0.94758100  0.36064250  0.38583400  1
  H  571  1  0.00431100  0.39345600  0.42848650  1
  H  572  1  0.75194300  0.42655000  0.40603600  1
  H  579  1  0.41307300  0.16479250  0.29397700  1
  H  580  1  0.37480700  0.15058500  0.32970800  1
  H  581  1  0.51764500  0.17049600  0.32432750  1
  H  588  1  0.31783500  0.16711600  0.29422150  1
  H  589  1  0.21903500  0.13567100  0.28936800  1
  H  590  1  0.34591700  0.13412850  0.31527450  1
  H  595  1  0.26020700  0.11517350  0.29853800  1
  H  596  1  0.43559900  0.15489650  0.34744400  1
  H  597  1  0.54237100  0.17538350  0.30234050  1
  H  598  1  0.23899300  0.16762150  0.27966000  1
  H  605  1  0.41139600  0.29651350  0.65572200  1
  H  606  1  0.39466300  0.32227800  0.62587500  1
  H  607  1  0.49609200  0.29102450  0.62230800  1
  H  614  1  0.32380500  0.30082300  0.65784400  1
  H  615  1  0.24081100  0.33388350  0.66680150  1
  H  616  1  0.37002300  0.33541400  0.64196600  1
  H  621  1  0.28332600  0.35450150  0.65879600  1
  H  622  1  0.44199100  0.31788400  0.60623400  1
  H  623  1  0.50105200  0.27569500  0.63979150  1
  H  624  1  0.24879000  0.30031550  0.67233550  1
  H  631  1  0.94158300  0.55188600  0.40799900  1
  H  632  1  0.91232200  0.58204650  0.38319100  1
  H  633  1  0.01351700  0.58676600  0.41423850  1
  H  640  1  0.85669100  0.54764150  0.40414250  1
  H  641  1  0.76492000  0.53963250  0.37226450  1
  H  642  1  0.88456300  0.56686750  0.37016200  1
  H  647  1  0.82641700  0.56121850  0.35148700  1
  H  648  1  0.95549300  0.60215650  0.38734850  1
  H  649  1  0.02178700  0.56961600  0.42961300  1
  H  650  1  0.78849300  0.53178250  0.40510150  1
  H  657  1  0.92953800  0.90717300  0.54378400  1
  H  658  1  0.89998200  0.87696150  0.56833950  1
  H  659  1  0.00139100  0.87213050  0.53756450  1
  H  666  1  0.84444000  0.91153900  0.54733950  1
  H  667  1  0.75254000  0.91973500  0.57897250  1
  H  668  1  0.87226700  0.89219700  0.58137100  1
  H  673  1  0.81396400  0.89797650  0.59990800  1
  H  674  1  0.94356300  0.85681500  0.56435950  1
  H  675  1  0.00993800  0.88933850  0.52232700  1
  H  676  1  0.77570200  0.92746600  0.54620050  1
  H  683  1  0.43479500  0.66201250  0.65410750  1
  H  684  1  0.40542500  0.63732150  0.62392400  1
  H  685  1  0.50747700  0.66796850  0.61930100  1
  H  692  1  0.34957500  0.65853150  0.65820300  1
  H  693  1  0.25719600  0.62698700  0.66621950  1
  H  694  1  0.37738700  0.62438700  0.63913000  1
  H  699  1  0.31882100  0.60593000  0.64474300  1
  H  700  1  0.44907500  0.64124800  0.60387150  1
  H  701  1  0.51570000  0.68333000  0.63641450  1
  H  702  1  0.28078300  0.65977750  0.67394100  1
  H  709  1  0.42650400  0.79629050  0.29941050  1
  H  710  1  0.39774200  0.82122450  0.32940350  1
  H  711  1  0.49885500  0.79016150  0.33444350  1
  H  718  1  0.34149300  0.79995650  0.29507450  1
  H  719  1  0.24898900  0.83165700  0.28663450  1
  H  720  1  0.36878100  0.83410100  0.31412750  1
  H  725  1  0.30994300  0.85265450  0.30827050  1
  H  726  1  0.44163100  0.81720550  0.34959100  1
  H  727  1  0.50572000  0.77452500  0.31753550  1
  H  728  1  0.27305900  0.79878550  0.27913250  1
  H  735  1  0.84750500  0.91003900  0.40975300  1
  H  736  1  0.86659100  0.87953500  0.38490700  1
  H  737  1  0.76449500  0.87653450  0.41584950  1
  H  744  1  0.93570000  0.91200800  0.40589200  1
  H  745  1  0.01898700  0.92052600  0.37295950  1
  H  746  1  0.89029300  0.89550500  0.37141600  1
  H  751  1  0.97578700  0.91222400  0.35229550  1
  H  752  1  0.81949900  0.85999150  0.38938050  1
  H  753  1  0.75814900  0.89440150  0.43065500  1
  H  754  1  0.01067700  0.92652600  0.40642600  1
  H  761  1  0.85984000  0.54983500  0.54172300  1
  H  762  1  0.87613500  0.57987850  0.56722000  1
  H  763  1  0.77493500  0.58338500  0.53588200  1
  H  770  1  0.94778000  0.54774800  0.54599550  1
  H  771  1  0.03025100  0.53869600  0.57916800  1
  H  772  1  0.90047800  0.56373050  0.58051250  1
  H  777  1  0.98653100  0.54675250  0.59976850  1
  H  778  1  0.82831400  0.59954350  0.56271450  1
  H  779  1  0.77029600  0.56583050  0.52072400  1
  H  780  1  0.02327300  0.53319050  0.54559650  1
  H  787  1  0.35585900  0.79613000  0.65671450  1
  H  788  1  0.37144900  0.82124200  0.62635950  1
  H  789  1  0.27009100  0.79013750  0.62336100  1
  H  796  1  0.44398300  0.80017400  0.65856250  1
  H  797  1  0.52640900  0.83324400  0.66723500  1
  H  798  1  0.39594900  0.83466650  0.64237800  1
  H  803  1  0.48179100  0.85388250  0.65912800  1
  H  804  1  0.32307400  0.81672750  0.60684600  1
  H  805  1  0.26559100  0.77525450  0.64116200  1
  H  806  1  0.52028100  0.79973550  0.67295100  1
  H  813  1  0.35632500  0.66241900  0.29359900  1
  H  814  1  0.37826900  0.63749650  0.32398000  1
  H  815  1  0.27111400  0.66775850  0.32696050  1
  H  822  1  0.44529300  0.65910900  0.29184500  1
  H  823  1  0.53398300  0.62673800  0.28331850  1
  H  824  1  0.40417900  0.62424250  0.30791350  1
  H  829  1  0.49343000  0.60577600  0.29126100  1
  H  830  1  0.32993900  0.64145600  0.34341250  1
  H  831  1  0.26259300  0.68253650  0.30896700  1
  H  832  1  0.52086600  0.66019100  0.27752550  1
  H  839  1  0.17897400  0.86121250  0.15210350  1
  H  846  1  0.18516200  0.89366350  0.10493000  1
  H  847  1  0.11814400  0.90273500  0.09190700  1
  H  848  1  0.99874800  0.88987900  0.11639000  1
  H  849  1  0.28116500  0.86039250  0.12091450  1
  H  852  1  0.04976600  0.86911300  0.13107500  1
  H  853  1  0.02701300  0.88330350  0.13797250  1
  H  854  1  0.09536500  0.87216800  0.15130150  1
  H  855  1  0.11365500  0.88765500  0.14724150  1
  H  858  1  0.22708900  0.87552450  0.11053750  1
  H  865  1  0.19058900  0.59766900  0.80039550  1
  H  872  1  0.19710500  0.56585250  0.84802550  1
  H  873  1  0.13011700  0.55684600  0.86080850  1
  H  874  1  0.01105700  0.56908950  0.83546200  1
  H  875  1  0.29051900  0.59926800  0.83220250  1
  H  878  1  0.06115600  0.58970950  0.82072350  1
  H  879  1  0.04004600  0.57535900  0.81392700  1
  H  880  1  0.10822000  0.58642750  0.80081750  1
  H  881  1  0.12760500  0.57105450  0.80524350  1
  H  884  1  0.23749600  0.58407150  0.84243400  1
  H  891  1  0.68683000  0.90478600  0.84375600  1
  H  898  1  0.69323000  0.85729300  0.81174950  1
  H  899  1  0.62623400  0.84446950  0.80263250  1
  H  900  1  0.50701800  0.86961600  0.81489300  1
  H  901  1  0.78750000  0.87309100  0.84526750  1
  H  904  1  0.55748700  0.88431400  0.83562300  1
  H  905  1  0.53572800  0.89115850  0.82129350  1
  H  906  1  0.60397400  0.90429750  0.83248150  1
  H  907  1  0.62292800  0.89998100  0.81709700  1
  H  910  1  0.73414000  0.86285750  0.83000800  1
  H  917  1  0.69724800  0.55514450  0.10703300  1
  H  924  1  0.70226000  0.60277050  0.13884050  1
  H  925  1  0.63492100  0.61566900  0.14778300  1
  H  926  1  0.51644700  0.59054250  0.13539950  1
  H  927  1  0.79687300  0.58676000  0.10559000  1
  H  930  1  0.56714100  0.57572100  0.11482100  1
  H  931  1  0.54589100  0.56895950  0.12915000  1
  H  932  1  0.61447000  0.55573700  0.11813800  1
  H  933  1  0.63349600  0.56011750  0.13353450  1
  H  936  1  0.74322500  0.59711000  0.12069400  1
  H  943  1  0.57586700  0.09764600  0.80065300  1
  H  950  1  0.57241300  0.06507900  0.84774300  1
  H  951  1  0.64007900  0.05591150  0.86050700  1
  H  952  1  0.75821800  0.06880700  0.83570900  1
  H  953  1  0.47592800  0.09849400  0.83224000  1
  H  956  1  0.70642600  0.08966200  0.82123300  1
  H  957  1  0.72866100  0.07548100  0.81422400  1
  H  958  1  0.65955300  0.08667850  0.80115600  1
  H  959  1  0.64143400  0.07118550  0.80523600  1
  H  962  1  0.53052500  0.08330800  0.84238700  1
  H  969  1  0.59358900  0.35284200  0.14641600  1
  H  976  1  0.58244500  0.38602800  0.09978400  1
  H  977  1  0.64689400  0.39761150  0.08844100  1
  H  978  1  0.76467500  0.38818000  0.11526250  1
  H  979  1  0.50291700  0.34972150  0.11320200  1
  H  982  1  0.72344200  0.36557450  0.12840350  1
  H  983  1  0.73378100  0.38015900  0.13604800  1
  H  984  1  0.66958100  0.36632950  0.14756100  1
  H  985  1  0.64248400  0.38114350  0.14343700  1
  H  988  1  0.55076400  0.36658550  0.10418600  1
  H  995  1  0.07894700  0.05583450  0.11000950  1
  H  1002  1  0.06930300  0.10387450  0.14115300  1
  H  1003  1  0.13531300  0.11758450  0.14930700  1
  H  1004  1  0.25686900  0.09344050  0.13635200  1
  H  1005  1  0.97256200  0.08648450  0.10882550  1
  H  1008  1  0.20576700  0.07771600  0.11651300  1
  H  1009  1  0.23099900  0.07142900  0.13078700  1
  H  1010  1  0.16344700  0.05738000  0.12049800  1
  H  1011  1  0.14634300  0.06183100  0.13596350  1
  H  1014  1  0.02642300  0.09753850  0.12339200  1
  H  1021  1  0.07490500  0.40489550  0.84251400  1
  H  1028  1  0.07288900  0.35667600  0.81160800  1
  H  1029  1  0.14092700  0.34392700  0.80274300  1
  H  1030  1  0.25787100  0.36967650  0.81462700  1
  H  1031  1  0.97754500  0.37293600  0.84463450  1
  H  1034  1  0.20623000  0.38460100  0.83510750  1
  H  1035  1  0.22718100  0.39119450  0.82067600  1
  H  1036  1  0.15774100  0.40437550  0.83142400  1
  H  1037  1  0.13900700  0.39964900  0.81611050  1
  H  1040  1  0.03176300  0.36249800  0.82969900  1
  H  1047  1  0.19444100  0.36337800  0.65067700  1
  H  1054  1  0.19699300  0.39455800  0.60263650  1
  H  1055  1  0.12901100  0.40336850  0.58970950  1
  H  1056  1  0.01152100  0.39122000  0.61505350  1
  H  1057  1  0.29367700  0.36156250  0.61900800  1
  H  1060  1  0.06370700  0.37077300  0.63005000  1
  H  1061  1  0.04151500  0.38515050  0.63665600  1
  H  1062  1  0.11094100  0.37438750  0.64997900  1
  H  1063  1  0.12893100  0.38974600  0.64539500  1
  H  1066  1  0.23906100  0.37649750  0.60850100  1
  H  1073  1  0.17721300  0.10453350  0.30528700  1
  H  1080  1  0.18628100  0.07251950  0.35277100  1
  H  1081  1  0.12107900  0.06139200  0.36433700  1
  H  1082  1  0.00433900  0.07036300  0.33711000  1
  H  1083  1  0.26701700  0.10839750  0.33854300  1
  H  1086  1  0.04680700  0.09250600  0.32341650  1
  H  1087  1  0.03604000  0.07774100  0.31616400  1
  H  1088  1  0.10108700  0.09108700  0.30435400  1
  H  1089  1  0.12749700  0.07633900  0.30893550  1
  H  1092  1  0.21874000  0.09178950  0.34789450  1
  H  1099  1  0.68498800  0.40397950  0.34301850  1
  H  1106  1  0.69577500  0.35690800  0.31045050  1
  H  1107  1  0.63010400  0.34333050  0.30193450  1
  H  1108  1  0.50796500  0.36694600  0.31552800  1
  H  1109  1  0.79195300  0.37341650  0.34331550  1
  H  1112  1  0.55846700  0.38218900  0.33575850  1
  H  1113  1  0.53343100  0.38887250  0.32164700  1
  H  1114  1  0.60058300  0.40266600  0.33244050  1
  H  1115  1  0.61798300  0.39870350  0.31686000  1
  H  1118  1  0.73836700  0.36275050  0.32840650  1
  H  1125  1  0.68855900  0.05411400  0.60757700  1
  H  1132  1  0.69191200  0.10132950  0.63997050  1
  H  1133  1  0.62425000  0.11395900  0.64914800  1
  H  1134  1  0.50644300  0.08882350  0.63643000  1
  H  1135  1  0.78696500  0.08595350  0.60650600  1
  H  1138  1  0.55763300  0.07439000  0.61558650  1
  H  1139  1  0.53655100  0.06739100  0.62981400  1
  H  1140  1  0.60557500  0.05444250  0.61863200  1
  H  1141  1  0.62442900  0.05864400  0.63409100  1
  H  1144  1  0.73288200  0.09602150  0.62171600  1
  H  1151  1  0.58353300  0.59749200  0.29928000  1
  H  1158  1  0.58335900  0.56596100  0.34705850  1
  H  1159  1  0.65173700  0.55697900  0.35974450  1
  H  1160  1  0.76851400  0.56962200  0.33446150  1
  H  1161  1  0.48472600  0.59877450  0.33105200  1
  H  1164  1  0.71525500  0.59033400  0.31985150  1
  H  1165  1  0.73809900  0.57611150  0.31303900  1
  H  1166  1  0.66799500  0.58685250  0.29990000  1
  H  1167  1  0.65075900  0.57138950  0.30429850  1
  H  1170  1  0.54059800  0.58400850  0.34144550  1
  H  1177  1  0.57155500  0.86244500  0.65156450  1
  H  1184  1  0.57109100  0.89332000  0.60335500  1
  H  1185  1  0.63942200  0.90218800  0.59087500  1
  H  1186  1  0.75590900  0.89007800  0.61693800  1
  H  1187  1  0.47466600  0.86044950  0.61926900  1
  H  1190  1  0.70340500  0.86954950  0.63162600  1
  H  1191  1  0.72492400  0.88391450  0.63831550  1
  H  1192  1  0.65495300  0.87330600  0.65127050  1
  H  1193  1  0.63683700  0.88866550  0.64651450  1
  H  1196  1  0.52962600  0.87523350  0.60898950  1
  H  1203  1  0.07620300  0.55432650  0.60854800  1
  H  1210  1  0.07590200  0.60240850  0.63962650  1
  H  1211  1  0.14427800  0.61488600  0.64865300  1
  H  1212  1  0.26078300  0.58892950  0.63662750  1
  H  1213  1  0.97897400  0.58658150  0.60656050  1
  H  1216  1  0.20805500  0.57430550  0.61595700  1
  H  1217  1  0.22987800  0.56755800  0.63032600  1
  H  1218  1  0.15984900  0.55461800  0.61953600  1
  H  1219  1  0.14195300  0.55928750  0.63488950  1
  H  1222  1  0.03411900  0.59682300  0.62146600  1
  H  1229  1  0.06607600  0.90452700  0.34389800  1
  H  1236  1  0.06697500  0.85635250  0.31297000  1
  H  1237  1  0.13562600  0.84380450  0.30408800  1
  H  1238  1  0.25143900  0.86972100  0.31622650  1
  H  1239  1  0.96988900  0.87235350  0.34581100  1
  H  1242  1  0.19861700  0.88444650  0.33676950  1
  H  1243  1  0.21986500  0.89113000  0.32240550  1
  H  1244  1  0.14958100  0.90414250  0.33305650  1
  H  1245  1  0.13153900  0.89943050  0.31769200  1
  H  1248  1  0.02523700  0.86201400  0.33103350  1
  H  1255  1  0.60344800  0.80357650  0.10440150  1
  H  1262  1  0.58734500  0.83676300  0.05751800  1
  H  1263  1  0.64654100  0.85162500  0.04869200  1
  H  1264  1  0.76768800  0.84014400  0.07382400  1
  H  1265  1  0.47630300  0.82496350  0.08947700  1
  H  1268  1  0.71523500  0.82802300  0.09467450  1
  H  1269  1  0.75591800  0.81912600  0.08436500  1
  H  1270  1  0.69238100  0.80580300  0.09675950  1
  H  1271  1  0.68646600  0.80399400  0.08030700  1
  H  1274  1  0.53278500  0.83308450  0.07385800  1
  H  1281  1  0.61130200  0.65649600  0.84724150  1
  H  1288  1  0.60152200  0.62442650  0.89493550  1
  H  1289  1  0.66117000  0.60932800  0.90359550  1
  H  1290  1  0.77830100  0.61944050  0.87729800  1
  H  1291  1  0.48551300  0.63630550  0.86359850  1
  H  1294  1  0.72283100  0.63149950  0.85663300  1
  H  1295  1  0.76619000  0.64031800  0.86640400  1
  H  1296  1  0.70138600  0.65383300  0.85424700  1
  H  1297  1  0.69877400  0.65602400  0.87069050  1
  H  1300  1  0.54425000  0.62814350  0.87895300  1
  H  1307  1  0.10782500  0.85767900  0.90206550  1
  H  1314  1  0.09717600  0.81037350  0.86942850  1
  H  1315  1  0.15621700  0.80181550  0.85429250  1
  H  1316  1  0.27326300  0.82825000  0.86440100  1
  H  1317  1  0.98089200  0.84123500  0.88201700  1
  H  1320  1  0.21739900  0.84884950  0.87656300  1
  H  1321  1  0.26213700  0.83916250  0.88520350  1
  H  1322  1  0.19802900  0.85101350  0.89897850  1
  H  1323  1  0.19637400  0.83454600  0.90104500  1
  H  1326  1  0.03959900  0.82618200  0.87344750  1
  H  1333  1  0.11425100  0.60243750  0.04815400  1
  H  1340  1  0.10190600  0.64971800  0.08080800  1
  H  1341  1  0.16163400  0.65840150  0.09578950  1
  H  1342  1  0.28062300  0.63251900  0.08503600  1
  H  1343  1  0.98808000  0.61822700  0.06890900  1
  H  1346  1  0.22635800  0.61180900  0.07292950  1
  H  1347  1  0.26826300  0.62180600  0.06409700  1
  H  1348  1  0.20384600  0.60963650  0.05063800  1
  H  1349  1  0.19956500  0.62609600  0.04865700  1
  H  1352  1  0.04586900  0.63363300  0.07709600  1
  H  1359  1  0.15458100  0.15493950  0.84823000  1
  H  1366  1  0.16832700  0.12175750  0.89514000  1
  H  1367  1  0.10902700  0.10688400  0.90391400  1
  H  1368  1  0.98963700  0.11765650  0.87801950  1
  H  1369  1  0.28208800  0.13431750  0.86403650  1
  H  1372  1  0.04425500  0.12963400  0.85719450  1
  H  1373  1  0.00116400  0.13837300  0.86708800  1
  H  1374  1  0.06486200  0.15199000  0.85510550  1
  H  1375  1  0.06850400  0.15393400  0.87157750  1
  H  1378  1  0.22440500  0.12571550  0.87915350  1
  H  1385  1  0.15394700  0.29990200  0.10375500  1
  H  1392  1  0.17609100  0.33433850  0.05796800  1
  H  1393  1  0.12081600  0.35050950  0.04960600  1
  H  1394  1  0.00046700  0.34151550  0.07548900  1
  H  1395  1  0.28737900  0.31787700  0.08826800  1
  H  1398  1  0.05411500  0.32798550  0.09602050  1
  H  1399  1  0.00611500  0.32071250  0.08617200  1
  H  1400  1  0.06532700  0.30512300  0.09723200  1
  H  1401  1  0.06633300  0.30374100  0.08068900  1
  H  1404  1  0.23200100  0.32831600  0.07356600  1
  H  1411  1  0.65073900  0.10015450  0.05308300  1
  H  1418  1  0.66148300  0.14882650  0.08351800  1
  H  1419  1  0.59994500  0.15943000  0.09670500  1
  H  1420  1  0.48086400  0.13327000  0.08727600  1
  H  1421  1  0.77677200  0.11706300  0.07305200  1
  H  1424  1  0.53862300  0.11087350  0.07807000  1
  H  1425  1  0.49525100  0.11986850  0.06836800  1
  H  1426  1  0.56019700  0.10684950  0.05600300  1
  H  1427  1  0.56347900  0.12309850  0.05267700  1
  H  1430  1  0.71775500  0.13245150  0.08096700  1
  H  1437  1  0.66246000  0.35830300  0.90212000  1
  H  1444  1  0.67356200  0.31079750  0.86977400  1
  H  1445  1  0.61396700  0.30210500  0.85476850  1
  H  1446  1  0.49600000  0.32849300  0.86490800  1
  H  1447  1  0.78890600  0.34183850  0.88197800  1
  H  1450  1  0.55127900  0.34920850  0.87689100  1
  H  1451  1  0.50802100  0.33948850  0.88566850  1
  H  1452  1  0.57244100  0.35151900  0.89924250  1
  H  1453  1  0.57539600  0.33506600  0.90139800  1
  H  1456  1  0.73047600  0.32667900  0.87359250  1
  H  1463  1  0.61092800  0.30449200  0.60394250  1
  H  1470  1  0.59793600  0.33696600  0.55652850  1
  H  1471  1  0.65721300  0.35177900  0.54764500  1
  H  1472  1  0.77606900  0.34148400  0.57386500  1
  H  1473  1  0.48354000  0.32476950  0.58764500  1
  H  1476  1  0.72112900  0.32973900  0.59476300  1
  H  1477  1  0.76459200  0.32089350  0.58505450  1
  H  1478  1  0.70078000  0.30740000  0.59714400  1
  H  1479  1  0.69759300  0.30521600  0.58069700  1
  H  1482  1  0.54148700  0.33318700  0.57248200  1
  H  1489  1  0.61177800  0.15935650  0.34724500  1
  H  1496  1  0.58997100  0.12560950  0.39355550  1
  H  1497  1  0.64510500  0.10949100  0.40206550  1
  H  1498  1  0.76519100  0.11804650  0.37596600  1
  H  1499  1  0.47841200  0.14168450  0.36311400  1
  H  1502  1  0.71158500  0.13135300  0.35532350  1
  H  1503  1  0.75969100  0.13875100  0.36504850  1
  H  1504  1  0.70045100  0.15419350  0.35378300  1
  H  1505  1  0.69964500  0.15582250  0.37030400  1
  H  1508  1  0.53390300  0.13144400  0.37792800  1
  H  1515  1  0.11760900  0.35896650  0.39872050  1
  H  1522  1  0.10696400  0.31073150  0.36759750  1
  H  1523  1  0.16865900  0.30028050  0.35433100  1
  H  1524  1  0.28782100  0.32623800  0.36426550  1
  H  1525  1  0.99181700  0.34243350  0.37835050  1
  H  1528  1  0.23014800  0.34853250  0.37373200  1
  H  1529  1  0.27319500  0.33936600  0.38335350  1
  H  1530  1  0.20813100  0.35224750  0.39582800  1
  H  1531  1  0.20458500  0.33595350  0.39891100  1
  H  1534  1  0.05082500  0.32711200  0.37029800  1
  H  1541  1  0.10567600  0.10162850  0.54948600  1
  H  1548  1  0.09414300  0.14864700  0.58252250  1
  H  1549  1  0.15387500  0.15722300  0.59756600  1
  H  1550  1  0.27224800  0.13114200  0.58691700  1
  H  1551  1  0.97929400  0.11761700  0.57002250  1
  H  1554  1  0.21718500  0.11050850  0.57472300  1
  H  1555  1  0.26001900  0.12040900  0.56603300  1
  H  1556  1  0.19559500  0.10848600  0.55236550  1
  H  1557  1  0.19219700  0.12496350  0.55044600  1
  H  1560  1  0.03754600  0.13273250  0.57856250  1
  H  1567  1  0.16315700  0.65592150  0.34724150  1
  H  1574  1  0.17922900  0.62278250  0.39416850  1
  H  1575  1  0.12019900  0.60784000  0.40292100  1
  H  1576  1  0.99920500  0.61923500  0.37770850  1
  H  1577  1  0.29045100  0.63466000  0.36227350  1
  H  1580  1  0.05162300  0.63143200  0.35692800  1
  H  1581  1  0.01073500  0.64029500  0.36722250  1
  H  1582  1  0.07421100  0.65366600  0.35485850  1
  H  1583  1  0.07992900  0.65547950  0.37131400  1
  H  1586  1  0.23395100  0.62652950  0.37787800  1
  H  1593  1  0.15560600  0.80279450  0.60428800  1
  H  1600  1  0.16523200  0.83490800  0.55661200  1
  H  1601  1  0.10563600  0.85006250  0.54803250  1
  H  1602  1  0.98864000  0.83990350  0.57434500  1
  H  1603  1  0.28135100  0.82298300  0.58790950  1
  H  1606  1  0.04405500  0.82776350  0.59493600  1
  H  1607  1  0.00069200  0.81896600  0.58514600  1
  H  1608  1  0.06552500  0.80542900  0.59727500  1
  H  1609  1  0.06808900  0.80326900  0.58082700  1
  H  1612  1  0.22259200  0.83113650  0.57256000  1
  H  1619  1  0.65913700  0.60172450  0.54943500  1
  H  1626  1  0.66973700  0.64906950  0.58203200  1
  H  1627  1  0.61087900  0.65754400  0.59725200  1
  H  1628  1  0.49397900  0.63105950  0.58718600  1
  H  1629  1  0.78612500  0.61824900  0.56939650  1
  H  1632  1  0.54968500  0.61054050  0.57493200  1
  H  1633  1  0.50487700  0.62023250  0.56631600  1
  H  1634  1  0.56894100  0.60839350  0.55251200  1
  H  1635  1  0.57049200  0.62486200  0.55045100  1
  H  1638  1  0.72742300  0.63330500  0.57795150  1
  H  1645  1  0.65258400  0.85700950  0.40352300  1
  H  1652  1  0.66480500  0.80968050  0.37092150  1
  H  1653  1  0.60521600  0.80107300  0.35586650  1
  H  1654  1  0.48639900  0.82702300  0.36656300  1
  H  1655  1  0.77880900  0.84112100  0.38285950  1
  H  1658  1  0.54059600  0.84766050  0.37874450  1
  H  1659  1  0.49858000  0.83766900  0.38755400  1
  H  1660  1  0.56298000  0.84982100  0.40104100  1
  H  1661  1  0.56711300  0.83335950  0.40302500  1
  H  1664  1  0.72099100  0.82572100  0.37468450  1
  H  1671  1  0.08265300  0.94618700  0.07316500  1
  H  1678  1  0.05356000  0.98987700  0.03608900  1
  H  1679  1  0.03623600  0.01151050  0.03973350  1
  H  1680  1  0.07252100  0.00685150  0.07811900  1
  H  1681  1  0.99067300  0.94957400  0.04015900  1
  H  1684  1  0.06028900  0.98079400  0.08377000  1
  H  1685  1  0.12518500  0.98734500  0.08409000  1
  H  1686  1  0.12597500  0.96377000  0.08236700  1
  H  1687  1  0.16063500  0.97146000  0.07020000  1
  H  1690  1  0.01634400  0.97072050  0.03806600  1
  H  1697  1  0.09224500  0.51248150  0.87882850  1
  H  1704  1  0.06375500  0.46936350  0.91642400  1
  H  1705  1  0.04425100  0.44784550  0.91300750  1
  H  1706  1  0.07758900  0.45190900  0.87450550  1
  H  1707  1  0.00267800  0.50993850  0.91202300  1
  H  1710  1  0.06711000  0.47796600  0.86863950  1
  H  1711  1  0.13150700  0.47099300  0.86826750  1
  H  1712  1  0.13405500  0.49457550  0.86976400  1
  H  1713  1  0.16916200  0.48677550  0.88193600  1
  H  1716  1  0.02748600  0.48869850  0.91430950  1
  H  1723  1  0.58983300  0.82591200  0.75883050  1
  H  1730  1  0.56062000  0.78844800  0.71554800  1
  H  1731  1  0.54046100  0.79197900  0.69403000  1
  H  1732  1  0.57457300  0.83043300  0.69829000  1
  H  1733  1  0.49956200  0.79283250  0.75596150  1
  H  1736  1  0.56508900  0.83622300  0.72431700  1
  H  1737  1  0.62941800  0.83649650  0.71747200  1
  H  1738  1  0.63208500  0.83494100  0.74106700  1
  H  1739  1  0.66684200  0.82274800  0.73330450  1
  H  1742  1  0.52449200  0.79053900  0.73480700  1
  H  1749  1  0.59733900  0.63446550  0.19195200  1
  H  1756  1  0.56161500  0.67170750  0.23514550  1
  H  1757  1  0.54165100  0.66809100  0.25660500  1
  H  1758  1  0.58088300  0.62980450  0.25246800  1
  H  1759  1  0.50304900  0.66717050  0.19438600  1
  H  1762  1  0.57246500  0.62397900  0.22636750  1
  H  1763  1  0.63658200  0.62397950  0.23349550  1
  H  1764  1  0.63985000  0.62557500  0.20991950  1
  H  1765  1  0.67277900  0.63791150  0.21784650  1
  H  1768  1  0.52661500  0.66951150  0.21570700  1
  H  1775  1  0.67298700  0.51059750  0.07185000  1
  H  1782  1  0.72067500  0.46818000  0.03441400  1
  H  1783  1  0.74860600  0.44711900  0.03791000  1
  H  1784  1  0.71355700  0.45064300  0.07639500  1
  H  1785  1  0.76138100  0.51006900  0.03841000  1
  H  1788  1  0.71368600  0.47700000  0.08211800  1
  H  1789  1  0.65296800  0.46854800  0.08262100  1
  H  1790  1  0.63918600  0.49191000  0.08096200  1
  H  1791  1  0.60779600  0.48323950  0.06888200  1
  H  1794  1  0.74643700  0.48836100  0.03621400  1
  H  1801  1  0.66018300  0.94892400  0.87950550  1
  H  1808  1  0.70890100  0.99079700  0.91746100  1
  H  1809  1  0.73799200  0.01171500  0.91416700  1
  H  1810  1  0.70261100  0.00864000  0.87557800  1
  H  1811  1  0.74879300  0.94882600  0.91314350  1
  H  1814  1  0.70136100  0.98236400  0.86966550  1
  H  1815  1  0.64097100  0.99110700  0.86909700  1
  H  1816  1  0.62631000  0.96779800  0.87054450  1
  H  1817  1  0.59532800  0.97652300  0.88262000  1
  H  1820  1  0.73403000  0.97053550  0.91554250  1
  H  1827  1  0.16347100  0.63339050  0.75608550  1
  H  1834  1  0.21281100  0.67104700  0.71409550  1
  H  1835  1  0.24274700  0.66758350  0.69325700  1
  H  1836  1  0.20778400  0.62907500  0.69647450  1
  H  1837  1  0.25154100  0.66687800  0.75613800  1
  H  1840  1  0.20560700  0.62329650  0.72276700  1
  H  1841  1  0.14550400  0.62282000  0.71391850  1
  H  1842  1  0.13014100  0.62440300  0.73720200  1
  H  1843  1  0.09925900  0.63648950  0.72836250  1
  H  1846  1  0.23730400  0.66920250  0.73441050  1
  H  1853  1  0.15757300  0.82502200  0.19629300  1
  H  1860  1  0.21022000  0.78750900  0.23842500  1
  H  1861  1  0.23868600  0.79100700  0.25943100  1
  H  1862  1  0.19950900  0.82939300  0.25614650  1
  H  1863  1  0.24986400  0.79193400  0.19652100  1
  H  1866  1  0.19778400  0.83523950  0.22982500  1
  H  1867  1  0.13735700  0.83546450  0.23840900  1
  H  1868  1  0.12288500  0.83386100  0.21506350  1
  H  1869  1  0.09322600  0.82162550  0.22374550  1
  H  1872  1  0.23543100  0.78951600  0.21823200  1
  H  1879  1  0.18844300  0.13490100  0.19456450  1
  H  1886  1  0.20315900  0.17489850  0.23588700  1
  H  1887  1  0.21801100  0.17335700  0.25789750  1
  H  1888  1  0.20187700  0.13405050  0.25601150  1
  H  1889  1  0.26234000  0.17028300  0.19532800  1
  H  1892  1  0.22218500  0.12707650  0.23004000  1
  H  1893  1  0.15825500  0.12510700  0.23678950  1
  H  1894  1  0.15559200  0.12534100  0.21320500  1
  H  1895  1  0.11439400  0.13686700  0.22022250  1
  H  1898  1  0.24051900  0.17264900  0.21674000  1
  H  1905  1  0.17939900  0.32616550  0.75826750  1
  H  1912  1  0.21115900  0.28890050  0.71492350  1
  H  1913  1  0.23025500  0.29249000  0.69341900  1
  H  1914  1  0.19350300  0.33088350  0.69771450  1
  H  1915  1  0.27186100  0.29319500  0.75552800  1
  H  1918  1  0.20359100  0.33661650  0.72380600  1
  H  1919  1  0.13915000  0.33688600  0.71684400  1
  H  1920  1  0.13679000  0.33524300  0.74041650  1
  H  1921  1  0.10273300  0.32303800  0.73255000  1
  H  1924  1  0.24724800  0.29098150  0.73427200  1
  H  1931  1  0.59216500  0.32128550  0.19325200  1
  H  1938  1  0.55889100  0.28511500  0.23730550  1
  H  1939  1  0.53346700  0.28854400  0.25849200  1
  H  1940  1  0.54614300  0.32764000  0.25337600  1
  H  1941  1  0.52178300  0.28555600  0.19490400  1
  H  1944  1  0.53829600  0.33192200  0.22619250  1
  H  1945  1  0.59726500  0.33518200  0.23484100  1
  H  1946  1  0.61417300  0.33269950  0.21176850  1
  H  1947  1  0.65182100  0.32224600  0.22124050  1
  H  1950  1  0.53228500  0.28525400  0.21695100  1
  H  1957  1  0.59968900  0.13302600  0.75697650  1
  H  1964  1  0.55165500  0.17071200  0.71470150  1
  H  1965  1  0.52364700  0.16733150  0.69363900  1
  H  1966  1  0.55931000  0.12877100  0.69703450  1
  H  1967  1  0.51042500  0.16656950  0.75654750  1
  H  1970  1  0.55949700  0.12295300  0.72336900  1
  H  1971  1  0.62019600  0.12240400  0.71490250  1
  H  1972  1  0.63401000  0.12396750  0.73827100  1
  H  1973  1  0.66509200  0.13603450  0.72963350  1
  H  1976  1  0.52562800  0.16886100  0.73485100  1
  H  1983  1  0.09181100  0.44707550  0.57149600  1
  H  1990  1  0.06184300  0.49054300  0.53420000  1
  H  1991  1  0.04258100  0.51209550  0.53777700  1
  H  1992  1  0.07794500  0.50765950  0.57623750  1
  H  1993  1  0.00059900  0.45011500  0.53833800  1
  H  1996  1  0.06770500  0.48162100  0.58194300  1
  H  1997  1  0.13221700  0.48837550  0.58230200  1
  H  1998  1  0.13428200  0.46478800  0.58066950  1
  H  1999  1  0.16883500  0.47254300  0.56852850  1
  H  2002  1  0.02553300  0.47129800  0.53618050  1
  H  2009  1  0.08055700  0.01212950  0.37975950  1
  H  2016  1  0.04915700  0.96918300  0.41742300  1
  H  2017  1  0.02988600  0.94764700  0.41404050  1
  H  2018  1  0.06586000  0.95151500  0.37565450  1
  H  2019  1  0.98898000  0.00979650  0.41266200  1
  H  2022  1  0.05575300  0.97754800  0.36962450  1
  H  2023  1  0.12014500  0.97056300  0.36951900  1
  H  2024  1  0.12266900  0.99415200  0.37090700  1
  H  2025  1  0.15696100  0.98640600  0.38324050  1
  H  2028  1  0.01331300  0.98853700  0.41511100  1
  H  2035  1  0.66291600  0.01032700  0.57258500  1
  H  2042  1  0.70993200  0.96798750  0.53502100  1
  H  2043  1  0.73883300  0.94699200  0.53846900  1
  H  2044  1  0.70527100  0.95046900  0.57703500  1
  H  2045  1  0.75015600  0.00987550  0.53897400  1
  H  2048  1  0.70460800  0.97682300  0.58274750  1
  H  2049  1  0.64420100  0.96825900  0.58337600  1
  H  2050  1  0.62961700  0.99160200  0.58173800  1
  H  2051  1  0.59802700  0.98286700  0.56973450  1
  H  2054  1  0.73540800  0.98818600  0.53678400  1
  H  2061  1  0.66789600  0.44981700  0.37810500  1
  H  2068  1  0.72176100  0.49142500  0.41596200  1
  H  2069  1  0.75170800  0.51228450  0.41269400  1
  H  2070  1  0.71492700  0.50943950  0.37415450  1
  H  2071  1  0.75754000  0.44922100  0.41158650  1
  H  2074  1  0.71209900  0.48310550  0.36817850  1
  H  2075  1  0.65241200  0.49211750  0.36770900  1
  H  2076  1  0.63586300  0.46888650  0.36916100  1
  H  2077  1  0.60598400  0.47773500  0.38130150  1
  H  2080  1  0.74520800  0.47104700  0.41398600  1
  H  2087  1  0.94405500  0.88417900  0.94997700  1
  H  2094  1  0.86306900  0.92234400  0.98758200  1
  H  2095  1  0.83003800  0.92042200  0.00848000  1
  H  2096  1  0.81736300  0.88133350  0.00402000  1
  H  2097  1  0.88857200  0.92110300  0.94446200  1
  H  2100  1  0.82513800  0.87771850  0.97387200  1
  H  2101  1  0.85986200  0.87101150  0.98677350  1
  H  2102  1  0.91819700  0.87245350  0.96803200  1
  H  2103  1  0.94341200  0.88159650  0.98058800  1
  H  2106  1  0.85698000  0.92181800  0.96553700  1
  H  2113  1  0.95661900  0.57466450  0.00179300  1
  H  2120  1  0.87451600  0.53694700  0.96390500  1
  H  2121  1  0.84140400  0.53908300  0.94293400  1
  H  2122  1  0.82918400  0.57818500  0.94756750  1
  H  2123  1  0.90019800  0.53795800  0.00710900  1
  H  2126  1  0.83738700  0.58161100  0.97778550  1
  H  2127  1  0.87183100  0.58828250  0.96496400  1
  H  2128  1  0.93069300  0.58654400  0.98374900  1
  H  2129  1  0.95542900  0.57737500  0.97117850  1
  H  2132  1  0.86838500  0.53742250  0.98597150  1
  H  2139  1  0.44941100  0.70317550  0.82008200  1
  H  2146  1  0.36760300  0.74123900  0.78229700  1
  H  2147  1  0.33531100  0.76227150  0.78439900  1
  H  2148  1  0.32366900  0.75763450  0.82348350  1
  H  2149  1  0.39219500  0.69800250  0.78327550  1
  H  2152  1  0.33083300  0.72738400  0.82688500  1
  H  2153  1  0.36583900  0.74012850  0.83363150  1
  H  2154  1  0.42400800  0.72122750  0.83196350  1
  H  2155  1  0.44904300  0.73376400  0.82285600  1
  H  2158  1  0.36083700  0.71918150  0.78272800  1
  H  2165  1  0.45831100  0.75735850  0.13267300  1
  H  2172  1  0.37125700  0.71872450  0.16886750  1
  H  2173  1  0.33912500  0.69782300  0.16603500  1
  H  2174  1  0.33625300  0.70296550  0.12689200  1
  H  2175  1  0.39281800  0.76203900  0.16863550  1
  H  2178  1  0.34420600  0.73310100  0.12389900  1
  H  2179  1  0.38139300  0.72040900  0.11762700  1
  H  2180  1  0.43816100  0.73929000  0.12035850  1
  H  2181  1  0.46152700  0.72667450  0.12974500  1
  H  2184  1  0.36378900  0.74075200  0.16858800  1
  H  2191  1  0.81753800  0.07506250  0.00424800  1
  H  2198  1  0.89415500  0.03683550  0.96615850  1
  H  2199  1  0.92407800  0.03865400  0.94497800  1
  H  2200  1  0.93496200  0.07783300  0.94895950  1
  H  2201  1  0.87516100  0.03826600  0.00943800  1
  H  2204  1  0.93199000  0.08170900  0.97904550  1
  H  2205  1  0.89435900  0.08818200  0.96647800  1
  H  2206  1  0.84005000  0.08675450  0.98589700  1
  H  2207  1  0.81275100  0.07745700  0.97369650  1
  H  2210  1  0.90352500  0.03753350  0.98810400  1
  H  2217  1  0.82636000  0.38480650  0.94957550  1
  H  2224  1  0.90677900  0.42274100  0.98747850  1
  H  2225  1  0.93807700  0.42080150  0.00861600  1
  H  2226  1  0.94842900  0.38160500  0.00458200  1
  H  2227  1  0.88452300  0.42135900  0.94421200  1
  H  2230  1  0.94299000  0.37777350  0.97444800  1
  H  2231  1  0.90654800  0.37140150  0.98711150  1
  H  2232  1  0.85029300  0.37303850  0.96786900  1
  H  2233  1  0.82436500  0.38242200  0.98015150  1
  H  2236  1  0.91471700  0.42200050  0.96548000  1
  H  2243  1  0.30488300  0.26445650  0.13602450  1
  H  2250  1  0.37248700  0.22181500  0.16887900  1
  H  2251  1  0.40048900  0.20108450  0.16411350  1
  H  2252  1  0.44497400  0.21239550  0.12784600  1
  H  2253  1  0.31805900  0.26147100  0.17536650  1
  H  2256  1  0.44987200  0.24320000  0.13128200  1
  H  2257  1  0.42231500  0.23280950  0.12006500  1
  H  2258  1  0.36762100  0.25232550  0.12296450  1
  H  2259  1  0.33084500  0.23854050  0.12621350  1
  H  2262  1  0.36995900  0.24282900  0.17318850  1
  H  2269  1  0.31716000  0.20323550  0.82185650  1
  H  2276  1  0.39648800  0.24087950  0.78374450  1
  H  2277  1  0.42945900  0.26179600  0.78568000  1
  H  2278  1  0.44371200  0.25732850  0.82478300  1
  H  2279  1  0.37104300  0.19777000  0.78493100  1
  H  2282  1  0.43636400  0.22715200  0.82835150  1
  H  2283  1  0.40189900  0.24002850  0.83508300  1
  H  2284  1  0.34357700  0.22127350  0.83360850  1
  H  2285  1  0.31787500  0.23383600  0.82448300  1
  H  2288  1  0.40261000  0.21885050  0.78425100  1
  H  2295  1  0.95123500  0.38407250  0.44775300  1
  H  2302  1  0.87228800  0.42220400  0.48566050  1
  H  2303  1  0.84058100  0.42030000  0.50667750  1
  H  2304  1  0.82861800  0.38117950  0.50237900  1
  H  2305  1  0.89514600  0.42098200  0.44248150  1
  H  2308  1  0.83419300  0.37750250  0.47224750  1
  H  2309  1  0.87024100  0.37086800  0.48498300  1
  H  2310  1  0.92670400  0.37232350  0.46591600  1
  H  2311  1  0.95298100  0.38149550  0.47832950  1
  H  2314  1  0.86491400  0.42165700  0.46366700  1
  H  2321  1  0.94286100  0.07493800  0.50158550  1
  H  2328  1  0.85956400  0.03699350  0.46404150  1
  H  2329  1  0.82630600  0.03895900  0.44307550  1
  H  2330  1  0.81551400  0.07813150  0.44727450  1
  H  2331  1  0.88570500  0.03833700  0.50720250  1
  H  2334  1  0.82391100  0.08188300  0.47741900  1
  H  2335  1  0.85879200  0.08833000  0.46454800  1
  H  2336  1  0.91725700  0.08669250  0.48342000  1
  H  2337  1  0.94190500  0.07735400  0.47096350  1
  H  2340  1  0.85373500  0.03768300  0.48608300  1
  H  2347  1  0.46017300  0.19473650  0.31487350  1
  H  2354  1  0.39569700  0.23785850  0.28225250  1
  H  2355  1  0.36931200  0.25871100  0.28704900  1
  H  2356  1  0.32565400  0.24762750  0.32344500  1
  H  2357  1  0.44546900  0.19788700  0.27557550  1
  H  2360  1  0.31818800  0.21692950  0.32014000  1
  H  2361  1  0.34771300  0.22716300  0.33122550  1
  H  2362  1  0.40001500  0.20731850  0.32816550  1
  H  2363  1  0.43804900  0.22086200  0.32471850  1
  H  2366  1  0.39581700  0.21684300  0.27792500  1
  H  2373  1  0.44766100  0.25658150  0.63019400  1
  H  2380  1  0.37064100  0.21865850  0.66830900  1
  H  2381  1  0.33957500  0.19756700  0.66640950  1
  H  2382  1  0.32655300  0.20177650  0.62725300  1
  H  2383  1  0.39196500  0.26189650  0.66699250  1
  H  2386  1  0.33115300  0.23192950  0.62354000  1
  H  2387  1  0.36731500  0.21923250  0.61695900  1
  H  2388  1  0.42342900  0.23835800  0.61845950  1
  H  2389  1  0.45017100  0.22599850  0.62769950  1
  H  2392  1  0.36237500  0.24064900  0.66768700  1
  H  2399  1  0.82418800  0.57527600  0.50167750  1
  H  2406  1  0.90436200  0.53708150  0.46400150  1
  H  2407  1  0.93653200  0.53895500  0.44301500  1
  H  2408  1  0.94824900  0.57808650  0.44726400  1
  H  2409  1  0.88067200  0.53842750  0.50716600  1
  H  2412  1  0.94179600  0.58183150  0.47738150  1
  H  2413  1  0.90611300  0.58842300  0.46456750  1
  H  2414  1  0.84900300  0.58698250  0.48352450  1
  H  2415  1  0.82324600  0.57775750  0.47108950  1
  H  2418  1  0.91142000  0.53769950  0.48601800  1
  H  2425  1  0.81194000  0.88463600  0.44978800  1
  H  2432  1  0.89269300  0.92241400  0.48778800  1
  H  2433  1  0.92487100  0.92033500  0.50884300  1
  H  2434  1  0.93667900  0.88120350  0.50439300  1
  H  2435  1  0.86888900  0.92130900  0.44453400  1
  H  2438  1  0.92996900  0.87766350  0.47419750  1
  H  2439  1  0.89463100  0.87107250  0.48692550  1
  H  2440  1  0.83699600  0.87277950  0.46792300  1
  H  2441  1  0.81157200  0.88200450  0.48037750  1
  H  2444  1  0.89985100  0.92186600  0.46574750  1
  H  2451  1  0.31905700  0.75610300  0.63136800  1
  H  2458  1  0.40040600  0.71806900  0.66925200  1
  H  2459  1  0.43193100  0.69695800  0.66723650  1
  H  2460  1  0.44228300  0.70129900  0.62809300  1
  H  2461  1  0.37754500  0.76134500  0.66805800  1
  H  2464  1  0.43623600  0.73150050  0.62448400  1
  H  2465  1  0.40027400  0.71881600  0.61790700  1
  H  2466  1  0.34325400  0.73791400  0.61955050  1
  H  2467  1  0.31783300  0.72551850  0.62879100  1
  H  2470  1  0.40805300  0.74009650  0.66866650  1
  H  2477  1  0.30975900  0.70210300  0.31905900  1
  H  2484  1  0.39628500  0.74076000  0.28280750  1
  H  2485  1  0.42762600  0.76174200  0.28556850  1
  H  2486  1  0.42931100  0.75684600  0.32474750  1
  H  2487  1  0.37634900  0.69741400  0.28320700  1
  H  2490  1  0.42253800  0.72674450  0.32791750  1
  H  2491  1  0.38442700  0.73936250  0.33403400  1
  H  2492  1  0.32886300  0.72027650  0.33132550  1
  H  2493  1  0.30505900  0.73276550  0.32182900  1
  H  2496  1  0.40461100  0.71876250  0.28321550  1
  N  856  1  0.01816900  0.90100300  0.09433350  1
  N  857  1  0.26157700  0.84984050  0.14203000  1
  N  882  1  0.03017700  0.55833400  0.85779250  1
  N  883  1  0.27094600  0.60950650  0.81087200  1
  N  908  1  0.52629500  0.84734750  0.80407600  1
  N  909  1  0.76782300  0.89435050  0.85558850  1
  N  934  1  0.53504500  0.61283950  0.14617200  1
  N  935  1  0.77788600  0.56542750  0.09535100  1
  N  960  1  0.73982000  0.05758300  0.85776500  1
  N  961  1  0.49439500  0.10907150  0.81106250  1
  N  986  1  0.74585000  0.39901950  0.09296600  1
  N  987  1  0.51978900  0.33955300  0.13472550  1
  N  1012  1  0.23529100  0.11574900  0.14691050  1
  N  1013  1  0.99457300  0.06525000  0.09869750  1
  N  1038  1  0.24059500  0.34720350  0.80409200  1
  N  1039  1  0.99549200  0.39451900  0.85448150  1
  N  1064  1  0.02927900  0.40184100  0.59266650  1
  N  1065  1  0.27523100  0.35154900  0.64046550  1
  N  1090  1  0.02215100  0.06005400  0.35970750  1
  N  1091  1  0.25036700  0.11811100  0.31679000  1
  N  1116  1  0.53014900  0.34492600  0.30445750  1
  N  1117  1  0.76972400  0.39433900  0.35403850  1
  N  1142  1  0.52452800  0.11096500  0.64756100  1
  N  1143  1  0.76872600  0.06468700  0.59603250  1
  N  1168  1  0.75130600  0.55855150  0.35665000  1
  N  1169  1  0.50173100  0.60887750  0.30956800  1
  N  1194  1  0.73892900  0.90080150  0.59450150  1
  N  1195  1  0.49171500  0.85065050  0.64093500  1
  N  1220  1  0.24378600  0.61132450  0.64738850  1
  N  1221  1  0.99605200  0.56497850  0.59667950  1
  N  1246  1  0.23505200  0.84730550  0.30550300  1
  N  1247  1  0.98633600  0.89401600  0.35562750  1
  N  1272  1  0.73924900  0.85724850  0.05656000  1
  N  1273  1  0.50804100  0.81001650  0.10852850  1
  N  1298  1  0.75183500  0.60289700  0.89510600  1
  N  1299  1  0.51475300  0.65062000  0.84399250  1
  N  1324  1  0.24654100  0.81036150  0.84789700  1
  N  1325  1  0.01051300  0.86070500  0.89655650  1
  N  1350  1  0.25352000  0.65011850  0.10183300  1
  N  1351  1  0.01839700  0.59886350  0.05429200  1
  N  1376  1  0.01688700  0.10100400  0.89581550  1
  N  1377  1  0.25140100  0.14925550  0.84487150  1
  N  1402  1  0.03023700  0.35776450  0.05771200  1
  N  1403  1  0.25266700  0.30349650  0.10709000  1
  N  1428  1  0.50562900  0.15263900  0.10212550  1
  N  1429  1  0.74835000  0.09743050  0.05856000  1
  N  1454  1  0.52262500  0.31053500  0.84845150  1
  N  1455  1  0.75919200  0.36138700  0.89643900  1
  N  1480  1  0.74898100  0.35786750  0.55581800  1
  N  1481  1  0.51395100  0.31015700  0.60708700  1
  N  1506  1  0.73535200  0.10203400  0.39394300  1
  N  1507  1  0.51296100  0.15576250  0.34403650  1
  N  1532  1  0.26314700  0.30708300  0.34911150  1
  N  1533  1  0.02016900  0.36183400  0.39315250  1
  N  1558  1  0.24558700  0.14884950  0.60364950  1
  N  1559  1  0.00914300  0.09833900  0.55522600  1
  N  1584  1  0.02773300  0.60211850  0.39495550  1
  N  1585  1  0.25864600  0.64951700  0.34315300  1
  N  1610  1  0.01511800  0.85651500  0.55659850  1
  N  1611  1  0.25212100  0.80870300  0.60754750  1
  N  1636  1  0.52082800  0.64889950  0.60373450  1
  N  1637  1  0.75646600  0.59870700  0.55494950  1
  N  1662  1  0.51357900  0.80945300  0.34973700  1
  N  1663  1  0.74848200  0.86055400  0.39739100  1
  N  1688  1  0.03307300  0.02215200  0.06256100  1
  N  1689  1  0.01296900  0.93515700  0.06008500  1
  N  1714  1  0.03812300  0.43705200  0.89028000  1
  N  1715  1  0.02411100  0.52401500  0.89192200  1
  N  1740  1  0.53411500  0.81475500  0.68335650  1
  N  1741  1  0.52103900  0.81292700  0.77008650  1
  N  1766  1  0.53847500  0.64526800  0.26729350  1
  N  1767  1  0.52765500  0.64722000  0.18034700  1
  N  1792  1  0.75665700  0.43621500  0.06070700  1
  N  1793  1  0.73687600  0.52328150  0.05870600  1
  N  1818  1  0.74658500  0.02269950  0.89145950  1
  N  1819  1  0.72432900  0.93595000  0.89266650  1
  N  1844  1  0.25202500  0.64479800  0.68240900  1
  N  1845  1  0.22734300  0.64648000  0.76904300  1
  N  1870  1  0.24489600  0.81378750  0.27039800  1
  N  1871  1  0.22306700  0.81225900  0.18354000  1
  N  1896  1  0.22799100  0.15160450  0.27055700  1
  N  1897  1  0.24584300  0.14947050  0.18178400  1
  N  1922  1  0.23431300  0.31529150  0.68275900  1
  N  1923  1  0.24867400  0.31315550  0.76972400  1
  N  1948  1  0.51711400  0.31129600  0.26895000  1
  N  1949  1  0.54147900  0.30537600  0.18040300  1
  N  1974  1  0.51583200  0.14457800  0.68268600  1
  N  1975  1  0.53518100  0.14616500  0.76963300  1
  N  2000  1  0.03748600  0.52271750  0.56059100  1
  N  2001  1  0.02279700  0.43585800  0.55838700  1
  N  2026  1  0.02537700  0.93672900  0.39134800  1
  N  2027  1  0.01185500  0.02379650  0.39260100  1
  N  2052  1  0.74817800  0.93611800  0.56125250  1
  N  2053  1  0.72639300  0.02302150  0.55931350  1
  N  2078  1  0.75979500  0.52337400  0.39001200  1
  N  2079  1  0.73093900  0.43648550  0.39115300  1
  N  2104  1  0.81101800  0.89936650  0.01989750  1
  N  2105  1  0.92751700  0.90149000  0.93342600  1
  N  2130  1  0.82265000  0.56025500  0.93158200  1
  N  2131  1  0.93964300  0.55737050  0.01825700  1
  N  2156  1  0.31734300  0.77364750  0.80552250  1
  N  2157  1  0.43190700  0.68676900  0.80273600  1
  N  2182  1  0.32538300  0.68678900  0.14449450  1
  N  2183  1  0.43439900  0.77356900  0.14976050  1
  N  2208  1  0.94123100  0.05965350  0.93320700  1
  N  2209  1  0.83628700  0.05775900  0.02074900  1
  N  2234  1  0.95542600  0.39972900  0.02034000  1
  N  2235  1  0.84430700  0.40202400  0.93302650  1
  N  2260  1  0.43104500  0.19302700  0.14271900  1
  N  2261  1  0.27598400  0.27474200  0.15786800  1
  N  2286  1  0.44914700  0.27322150  0.80672750  1
  N  2287  1  0.33295500  0.18671500  0.80451000  1
  N  2312  1  0.82234400  0.39928300  0.51823400  1
  N  2313  1  0.93388400  0.40145550  0.43126300  1
  N  2338  1  0.80803700  0.06003300  0.43149150  1
  N  2339  1  0.92590800  0.05772700  0.51820950  1
  N  2364  1  0.33944800  0.26692300  0.30847450  1
  N  2365  1  0.48751700  0.18443050  0.29294450  1
  N  2390  1  0.32111300  0.18595600  0.64535950  1
  N  2391  1  0.43028100  0.27308450  0.64747700  1
  N  2416  1  0.95497300  0.55999250  0.43146500  1
  N  2417  1  0.84128300  0.55798550  0.51824350  1
  N  2442  1  0.94324700  0.89918500  0.52031850  1
  N  2443  1  0.82924000  0.90192600  0.43332650  1
  N  2468  1  0.44920300  0.68540850  0.64614200  1
  N  2469  1  0.33727100  0.77257100  0.64864200  1
  N  2494  1  0.44073300  0.77292600  0.30707600  1
  N  2495  1  0.33419900  0.68586250  0.30201600  1
