# generated using pymatgen
data_H10C13N5O
_symmetry_space_group_name_H-M   'P 1'
_cell_length_a   32.70740000
_cell_length_b   61.03340000
_cell_length_c   85.55050000
_cell_angle_alpha   90.00000000
_cell_angle_beta   90.00000000
_cell_angle_gamma   90.00000000
_symmetry_Int_Tables_number   1
_chemical_formula_structural   H10C13N5O
_chemical_formula_sum   'H640 C832 N320 O64'
_cell_volume   170779.65753545
_cell_formula_units_Z   64
loop_
 _symmetry_equiv_pos_site_id
 _symmetry_equiv_pos_as_xyz
  1  'x, y, z'
loop_
 _atom_site_type_symbol
 _atom_site_label
 _atom_site_symmetry_multiplicity
 _atom_site_fract_x
 _atom_site_fract_y
 _atom_site_fract_z
 _atom_site_occupancy
  H  7  1  0.89751200  0.20498300  0.08366200  1
  H  16  1  0.92167200  0.27433200  0.09020500  1
  H  17  1  0.79695400  0.28361800  0.05023100  1
  H  18  1  0.81401100  0.30336200  0.06132900  1
  H  19  1  0.01200000  0.19995300  0.12828800  1
  H  20  1  0.98486900  0.17903100  0.12284800  1
  H  21  1  0.98306500  0.25505700  0.09072100  1
  H  22  1  0.88757000  0.22433900  0.05923800  1
  H  27  1  0.85061800  0.30730000  0.08684100  1
  H  28  1  0.02768500  0.25294800  0.11436800  1
  H  29  1  0.94375300  0.16479000  0.09657400  1
  H  30  1  0.81264800  0.23347500  0.04585000  1
  H  37  1  0.87181200  0.20508100  0.68416400  1
  H  46  1  0.84666700  0.27434100  0.67797700  1
  H  47  1  0.97250700  0.28382500  0.71736700  1
  H  48  1  0.95484200  0.30358100  0.70644200  1
  H  49  1  0.75632700  0.19986300  0.63986100  1
  H  50  1  0.78386200  0.17905600  0.64517700  1
  H  51  1  0.78552500  0.25489300  0.67752500  1
  H  52  1  0.88213600  0.22433100  0.70870000  1
  H  57  1  0.91737000  0.30753600  0.68115000  1
  H  58  1  0.74043200  0.25287100  0.65403900  1
  H  59  1  0.82676400  0.16492100  0.67154500  1
  H  60  1  0.95697600  0.23360600  0.72206900  1
  H  67  1  0.89573300  0.56232900  0.68415900  1
  H  76  1  0.93173400  0.49241500  0.68152600  1
  H  77  1  0.80737400  0.48050000  0.72132500  1
  H  78  1  0.83084200  0.46051800  0.71235600  1
  H  79  1  0.01180500  0.56920100  0.64015100  1
  H  80  1  0.98258500  0.58947500  0.64515000  1
  H  81  1  0.98617100  0.51444900  0.67829400  1
  H  82  1  0.88276000  0.54418000  0.70775800  1
  H  87  1  0.89564700  0.44809500  0.69162200  1
  H  88  1  0.02884600  0.51649700  0.65400500  1
  H  89  1  0.94000100  0.60287100  0.67175900  1
  H  90  1  0.80769500  0.53105100  0.72032600  1
  H  97  1  0.87189400  0.56135300  0.08404900  1
  H  106  1  0.83555100  0.49144500  0.08640500  1
  H  107  1  0.95942800  0.48019900  0.04628400  1
  H  108  1  0.93627100  0.46005400  0.05521800  1
  H  109  1  0.75761700  0.56769400  0.12866600  1
  H  110  1  0.78650100  0.58809900  0.12361500  1
  H  111  1  0.78123900  0.51357900  0.08992500  1
  H  112  1  0.88408400  0.54356900  0.06040400  1
  H  117  1  0.87148800  0.44725000  0.07586600  1
  H  118  1  0.73866100  0.51554400  0.11423000  1
  H  119  1  0.82903800  0.60181300  0.09645700  1
  H  120  1  0.95952300  0.53031400  0.04786700  1
  H  127  1  0.12073400  0.81293800  0.93457500  1
  H  136  1  0.09641900  0.74351400  0.92810700  1
  H  137  1  0.22120400  0.73428100  0.96803500  1
  H  138  1  0.20406300  0.71452300  0.95697100  1
  H  139  1  0.00640200  0.81797100  0.88989100  1
  H  140  1  0.03350100  0.83889100  0.89535400  1
  H  141  1  0.03523800  0.76285200  0.92746100  1
  H  142  1  0.13078100  0.79361100  0.95895000  1
  H  147  1  0.16687400  0.71079200  0.93132200  1
  H  148  1  0.99075100  0.76493100  0.90379400  1
  H  149  1  0.07445800  0.85311900  0.92168000  1
  H  150  1  0.20559500  0.78447800  0.97236900  1
  H  157  1  0.14670900  0.81255400  0.33384700  1
  H  166  1  0.17183000  0.74334200  0.34009300  1
  H  167  1  0.04600900  0.73384000  0.30069200  1
  H  168  1  0.06361300  0.71410000  0.31164700  1
  H  169  1  0.26211900  0.81784800  0.37817200  1
  H  170  1  0.23460300  0.83865000  0.37282800  1
  H  171  1  0.23304700  0.76277700  0.34051700  1
  H  172  1  0.13651900  0.79329100  0.30929400  1
  H  177  1  0.10099000  0.71021100  0.33695900  1
  H  178  1  0.27811900  0.76483600  0.36401600  1
  H  179  1  0.19161500  0.85274700  0.34651700  1
  H  180  1  0.06172200  0.78405400  0.29591100  1
  H  187  1  0.12243300  0.45565500  0.33416100  1
  H  196  1  0.08620200  0.52556400  0.33686900  1
  H  197  1  0.21047900  0.53766100  0.29706300  1
  H  198  1  0.18691400  0.55760600  0.30603600  1
  H  199  1  0.00646600  0.44851000  0.37817900  1
  H  200  1  0.03561200  0.42825400  0.37308500  1
  H  201  1  0.03194000  0.50347100  0.34016700  1
  H  202  1  0.13541300  0.47387100  0.31063000  1
  H  207  1  0.12196200  0.56993300  0.32674500  1
  H  208  1  0.98927100  0.50129600  0.36444200  1
  H  209  1  0.07796300  0.41499900  0.34655000  1
  H  210  1  0.21039300  0.48707200  0.29807000  1
  H  217  1  0.14645700  0.45565500  0.93435700  1
  H  226  1  0.18298800  0.52568400  0.93257200  1
  H  227  1  0.05899700  0.53637600  0.97272700  1
  H  228  1  0.08243600  0.55665500  0.96406500  1
  H  229  1  0.26060900  0.44985800  0.88967400  1
  H  230  1  0.23178000  0.42938600  0.89463000  1
  H  231  1  0.23698800  0.50355500  0.92870700  1
  H  232  1  0.13387200  0.47312400  0.95796800  1
  H  237  1  0.14717700  0.56974500  0.94354600  1
  H  238  1  0.27947100  0.50187200  0.90435900  1
  H  239  1  0.18951100  0.41536700  0.92178000  1
  H  240  1  0.05809600  0.48641000  0.97056500  1
  H  247  1  0.39824600  0.70332100  0.08349400  1
  H  256  1  0.42202700  0.77283200  0.08964000  1
  H  257  1  0.29733100  0.78138800  0.04956200  1
  H  258  1  0.31430200  0.80131600  0.06050800  1
  H  259  1  0.51236400  0.69896100  0.12828300  1
  H  260  1  0.48537300  0.67794300  0.12292600  1
  H  261  1  0.48342000  0.75363100  0.09039600  1
  H  262  1  0.38816300  0.72234300  0.05904100  1
  H  267  1  0.35077400  0.80558600  0.08607800  1
  H  268  1  0.52784700  0.75182900  0.11412200  1
  H  269  1  0.44477400  0.66334800  0.09667700  1
  H  270  1  0.31226300  0.73161000  0.04578600  1
  H  277  1  0.37156700  0.70528500  0.68413500  1
  H  286  1  0.34688500  0.77457200  0.67799200  1
  H  287  1  0.47265700  0.78383700  0.71745100  1
  H  288  1  0.45514200  0.80362500  0.70651600  1
  H  289  1  0.25592000  0.70035700  0.63986900  1
  H  290  1  0.28344600  0.67951100  0.64512500  1
  H  291  1  0.28555200  0.75525500  0.67758300  1
  H  292  1  0.38197800  0.72448800  0.70871700  1
  H  297  1  0.41785300  0.80765400  0.68121900  1
  H  298  1  0.24042500  0.75337100  0.65410500  1
  H  299  1  0.32620100  0.66522400  0.67144700  1
  H  300  1  0.45708300  0.73376700  0.72198800  1
  H  307  1  0.39613000  0.06146600  0.68451700  1
  H  316  1  0.43236400  0.99156500  0.68190400  1
  H  317  1  0.30789700  0.97957400  0.72163000  1
  H  318  1  0.33148100  0.95960700  0.71268800  1
  H  319  1  0.51221400  0.06851000  0.64052700  1
  H  320  1  0.48305000  0.08877500  0.64558700  1
  H  321  1  0.48663600  0.01363500  0.67859600  1
  H  322  1  0.38312700  0.04331200  0.70808200  1
  H  327  1  0.39669300  0.94722200  0.69209900  1
  H  328  1  0.52926500  0.01573800  0.65429500  1
  H  329  1  0.44056400  0.10209100  0.67205600  1
  H  330  1  0.30814700  0.03016600  0.72066500  1
  H  337  1  0.37191900  0.06160100  0.08397500  1
  H  346  1  0.33574700  0.99173700  0.08650500  1
  H  347  1  0.45953800  0.98034900  0.04634600  1
  H  348  1  0.43650400  0.96023900  0.05536400  1
  H  349  1  0.25745400  0.06806300  0.12851100  1
  H  350  1  0.28635800  0.08845600  0.12345800  1
  H  351  1  0.28120200  0.01386100  0.08984700  1
  H  352  1  0.38401100  0.04373300  0.06030500  1
  H  357  1  0.37230700  0.94752000  0.07626600  1
  H  358  1  0.23842200  0.01593000  0.11410700  1
  H  359  1  0.32907500  0.10211200  0.09633800  1
  H  360  1  0.45955600  0.03043600  0.04782600  1
  H  367  1  0.61999100  0.31461300  0.93475000  1
  H  376  1  0.59607000  0.24503000  0.92867900  1
  H  377  1  0.72079700  0.23651800  0.96873100  1
  H  378  1  0.70375200  0.21657300  0.95781600  1
  H  379  1  0.50602900  0.31897100  0.88990500  1
  H  380  1  0.53298600  0.33999100  0.89528500  1
  H  381  1  0.53488500  0.26428600  0.92779400  1
  H  382  1  0.63019100  0.29562000  0.95915300  1
  H  387  1  0.66674200  0.21252100  0.93209700  1
  H  388  1  0.49058300  0.26605900  0.90405100  1
  H  389  1  0.57341700  0.35457300  0.92158500  1
  H  390  1  0.70606300  0.28632300  0.97241700  1
  H  397  1  0.64696700  0.31232100  0.33389200  1
  H  406  1  0.67168600  0.24308600  0.34009300  1
  H  407  1  0.54588500  0.23377500  0.30065500  1
  H  408  1  0.56338600  0.21400400  0.31160800  1
  H  409  1  0.76255800  0.31734700  0.37817200  1
  H  410  1  0.73502300  0.33817700  0.37289500  1
  H  411  1  0.73307200  0.26240400  0.34046900  1
  H  412  1  0.63669100  0.29310000  0.30929200  1
  H  417  1  0.60062800  0.21005000  0.33692000  1
  H  418  1  0.77818100  0.26433000  0.36395500  1
  H  419  1  0.69217300  0.35242200  0.34662700  1
  H  420  1  0.56238900  0.28420500  0.29576200  1
  H  427  1  0.62205500  0.95660000  0.33384000  1
  H  436  1  0.58535700  0.02646300  0.33644100  1
  H  437  1  0.70972900  0.03867600  0.29671000  1
  H  438  1  0.68596400  0.05860100  0.30562800  1
  H  439  1  0.50613900  0.94934700  0.37786900  1
  H  440  1  0.53534000  0.92911700  0.37277200  1
  H  441  1  0.53131100  0.00429000  0.33981500  1
  H  442  1  0.63502100  0.97478200  0.31031300  1
  H  447  1  0.62052900  0.07087300  0.32616100  1
  H  448  1  0.48873300  0.00209200  0.36413200  1
  H  449  1  0.57786300  0.91590600  0.34625800  1
  H  450  1  0.70954900  0.98781600  0.29765500  1
  H  457  1  0.64647700  0.95538600  0.93444400  1
  H  466  1  0.68283000  0.02538000  0.93250800  1
  H  467  1  0.55887300  0.03615700  0.97268600  1
  H  468  1  0.58215900  0.05641700  0.96394100  1
  H  469  1  0.76079400  0.94949300  0.88982900  1
  H  470  1  0.73195000  0.92902700  0.89478500  1
  H  471  1  0.73706200  0.00325600  0.92880300  1
  H  472  1  0.63399100  0.97291900  0.95808000  1
  H  477  1  0.64639500  0.06946400  0.94320700  1
  H  478  1  0.77974100  0.00148000  0.90449700  1
  H  479  1  0.68951000  0.91505400  0.92190000  1
  H  480  1  0.55778500  0.98656600  0.97046200  1
  H  487  1  0.90234000  0.70514900  0.58535000  1
  H  496  1  0.92510500  0.77378900  0.58925700  1
  H  497  1  0.79698500  0.78171700  0.55082700  1
  H  498  1  0.81428900  0.80166500  0.56166700  1
  H  499  1  0.01873600  0.70892800  0.62907800  1
  H  500  1  0.99641900  0.68594400  0.62551500  1
  H  501  1  0.98887700  0.75549700  0.58697500  1
  H  502  1  0.89048000  0.72335100  0.55876400  1
  H  507  1  0.85231500  0.80586800  0.58677900  1
  H  508  1  0.03691400  0.75687400  0.60918000  1
  H  509  1  0.94928300  0.66976200  0.61225600  1
  H  510  1  0.81532600  0.73198400  0.54522900  1
  H  517  1  0.86450400  0.70339800  0.18313500  1
  H  526  1  0.84229500  0.77218000  0.17969000  1
  H  527  1  0.96975000  0.77895200  0.21861700  1
  H  528  1  0.95298300  0.79917500  0.20791400  1
  H  529  1  0.74943900  0.70842100  0.13892900  1
  H  530  1  0.77196900  0.68542300  0.14218900  1
  H  531  1  0.77828200  0.75394100  0.18168900  1
  H  532  1  0.87587800  0.72101100  0.20974100  1
  H  537  1  0.91572200  0.80381800  0.18257200  1
  H  538  1  0.73071500  0.75569500  0.15923100  1
  H  539  1  0.81785700  0.66864600  0.15575100  1
  H  540  1  0.95251800  0.72973800  0.22305600  1
  H  547  1  0.90212600  0.06391500  0.18370000  1
  H  556  1  0.93305800  0.99426800  0.18245000  1
  H  557  1  0.80688100  0.98526000  0.22185900  1
  H  558  1  0.82844500  0.96476400  0.21277600  1
  H  559  1  0.02261000  0.06534400  0.14127500  1
  H  560  1  0.99986800  0.08773700  0.14625300  1
  H  561  1  0.99118800  0.01487700  0.18147700  1
  H  562  1  0.88843200  0.04701600  0.20880700  1
  H  567  1  0.89123800  0.95086400  0.19175200  1
  H  568  1  0.03660900  0.01411200  0.15861600  1
  H  569  1  0.94670300  0.10092300  0.15769600  1
  H  570  1  0.81060500  0.03451300  0.22110700  1
  H  577  1  0.86693200  0.06127300  0.58588100  1
  H  586  1  0.83196400  0.99191700  0.58497900  1
  H  587  1  0.96018300  0.98223500  0.54681900  1
  H  588  1  0.93655800  0.96177100  0.55516100  1
  H  589  1  0.75470700  0.05445500  0.63088700  1
  H  590  1  0.78395400  0.07551500  0.62984900  1
  H  591  1  0.77474200  0.01377200  0.58551500  1
  H  592  1  0.88173000  0.04490200  0.56026000  1
  H  597  1  0.87068600  0.94816500  0.57489600  1
  H  598  1  0.72815300  0.01150500  0.60833800  1
  H  599  1  0.82011100  0.09612100  0.61345600  1
  H  600  1  0.95780100  0.03207400  0.54750100  1
  H  607  1  0.11590600  0.31282000  0.43295300  1
  H  616  1  0.09302500  0.24410900  0.42911200  1
  H  617  1  0.22115100  0.23625600  0.46753700  1
  H  618  1  0.20381800  0.21629300  0.45671500  1
  H  619  1  0.99957800  0.30914700  0.38918700  1
  H  620  1  0.02182300  0.33213300  0.39281600  1
  H  621  1  0.02942200  0.26245300  0.43124100  1
  H  622  1  0.12783800  0.29466500  0.45947700  1
  H  627  1  0.16528700  0.21229000  0.43146400  1
  H  628  1  0.98154200  0.26106800  0.40900400  1
  H  629  1  0.06909500  0.34822400  0.40603400  1
  H  630  1  0.20358800  0.28573500  0.47280600  1
  H  637  1  0.15404100  0.31423300  0.83483300  1
  H  646  1  0.17621900  0.24549700  0.83836500  1
  H  647  1  0.04884900  0.23868200  0.79939100  1
  H  648  1  0.06554300  0.21848200  0.81013500  1
  H  649  1  0.26939100  0.30961100  0.87895500  1
  H  650  1  0.24717800  0.33265400  0.87549900  1
  H  651  1  0.24027200  0.26370500  0.83637900  1
  H  652  1  0.14279100  0.29660100  0.80823700  1
  H  657  1  0.10267000  0.21391900  0.83551200  1
  H  658  1  0.28784700  0.26204300  0.85882100  1
  H  659  1  0.20044500  0.34906600  0.86219500  1
  H  660  1  0.06608000  0.28787000  0.79495100  1
  H  667  1  0.11600000  0.95417400  0.83465800  1
  H  676  1  0.08477600  0.02380300  0.83589300  1
  H  677  1  0.21097000  0.03292600  0.79650800  1
  H  678  1  0.18928800  0.05340400  0.80556800  1
  H  679  1  0.99571600  0.95264800  0.87714800  1
  H  680  1  0.01842200  0.93025700  0.87213900  1
  H  681  1  0.02676800  0.00312200  0.83691200  1
  H  682  1  0.12967200  0.97108100  0.80957700  1
  H  687  1  0.12638100  0.06724600  0.82656500  1
  H  688  1  0.98130100  0.00382200  0.85976500  1
  H  689  1  0.07157100  0.91711200  0.86065500  1
  H  690  1  0.20740500  0.98361800  0.79727300  1
  H  697  1  0.15147600  0.95571000  0.43255200  1
  H  706  1  0.18679700  0.02513900  0.43409700  1
  H  707  1  0.05832400  0.03427100  0.47219900  1
  H  708  1  0.08230400  0.05487100  0.46418500  1
  H  709  1  0.26348300  0.96310500  0.38752100  1
  H  710  1  0.23414800  0.94206500  0.38842800  1
  H  711  1  0.24366400  0.00321100  0.43316800  1
  H  712  1  0.13627200  0.97170300  0.45809000  1
  H  717  1  0.14828000  0.06876400  0.44465000  1
  H  718  1  0.29010600  0.00577600  0.41030500  1
  H  719  1  0.19828800  0.92121000  0.40476000  1
  H  720  1  0.05963400  0.98482600  0.47075800  1
  H  727  1  0.40309200  0.20343800  0.58522700  1
  H  736  1  0.42552700  0.27220200  0.58861900  1
  H  737  1  0.29741900  0.27930800  0.55008200  1
  H  738  1  0.31462000  0.29946700  0.56074700  1
  H  739  1  0.51876900  0.20828700  0.62916900  1
  H  740  1  0.49631300  0.18526400  0.62590000  1
  H  741  1  0.48937500  0.25393500  0.58655700  1
  H  742  1  0.39112500  0.22118400  0.55858000  1
  H  747  1  0.35245500  0.30402700  0.58592600  1
  H  748  1  0.53722100  0.25571100  0.60884800  1
  H  749  1  0.45002000  0.16858500  0.61249200  1
  H  750  1  0.31438100  0.23020500  0.54539400  1
  H  757  1  0.36438200  0.20359800  0.18307700  1
  H  766  1  0.34250300  0.27240500  0.17969300  1
  H  767  1  0.46994200  0.27895900  0.21865300  1
  H  768  1  0.45328900  0.29921600  0.20795600  1
  H  769  1  0.24916600  0.20881800  0.13892000  1
  H  770  1  0.27173900  0.18581600  0.14212400  1
  H  771  1  0.27838800  0.25425400  0.18169300  1
  H  772  1  0.37583200  0.22114800  0.20970700  1
  H  777  1  0.41613500  0.30395000  0.18262700  1
  H  778  1  0.23088600  0.25612500  0.15922200  1
  H  779  1  0.31756100  0.16895500  0.15566300  1
  H  780  1  0.45313900  0.23004800  0.22289500  1
  H  787  1  0.40239800  0.56301900  0.18407400  1
  H  796  1  0.43366000  0.49343900  0.18278200  1
  H  797  1  0.30763700  0.48423600  0.22224900  1
  H  798  1  0.32927400  0.46377800  0.21315000  1
  H  799  1  0.52339200  0.56507400  0.14185000  1
  H  800  1  0.50058100  0.58737600  0.14699900  1
  H  801  1  0.49167800  0.51410500  0.18176800  1
  H  802  1  0.38885400  0.54611500  0.20916900  1
  H  807  1  0.39208500  0.44998600  0.19208800  1
  H  808  1  0.53706800  0.51347100  0.15892800  1
  H  809  1  0.44664200  0.60015000  0.15810900  1
  H  810  1  0.31134500  0.53371100  0.22150000  1
  H  817  1  0.36694700  0.56149200  0.58583200  1
  H  826  1  0.33191600  0.49218100  0.58502700  1
  H  827  1  0.46013700  0.48233900  0.54688000  1
  H  828  1  0.43653700  0.46190700  0.55527000  1
  H  829  1  0.25457100  0.55473500  0.63078400  1
  H  830  1  0.28405200  0.57570400  0.62981000  1
  H  831  1  0.27460100  0.51407900  0.58541800  1
  H  832  1  0.38166300  0.54505500  0.56018400  1
  H  837  1  0.37094700  0.44838400  0.57514400  1
  H  838  1  0.22781900  0.51190900  0.60820000  1
  H  839  1  0.32001600  0.59640700  0.61335200  1
  H  840  1  0.45771600  0.53220200  0.54745600  1
  H  847  1  0.61510500  0.81452600  0.43305000  1
  H  856  1  0.59250500  0.74569800  0.42970500  1
  H  857  1  0.72072000  0.73862600  0.46816600  1
  H  858  1  0.70342200  0.71845400  0.45753800  1
  H  859  1  0.49951700  0.80975100  0.38906500  1
  H  860  1  0.52193700  0.83277300  0.39237800  1
  H  861  1  0.52884300  0.76402200  0.43165300  1
  H  862  1  0.62715500  0.79679600  0.45963800  1
  H  867  1  0.66497200  0.71410400  0.43224000  1
  H  868  1  0.48116600  0.76223100  0.40932500  1
  H  869  1  0.56827800  0.84939500  0.40577800  1
  H  870  1  0.70322000  0.78807800  0.47306200  1
  H  877  1  0.65416700  0.81402600  0.83489100  1
  H  886  1  0.67601800  0.74526500  0.83835200  1
  H  887  1  0.54866800  0.73866700  0.79934000  1
  H  888  1  0.56525100  0.71843200  0.81007800  1
  H  889  1  0.76964500  0.80916900  0.87896800  1
  H  890  1  0.74737500  0.83221600  0.87558300  1
  H  891  1  0.74017200  0.76338500  0.83636400  1
  H  892  1  0.64283000  0.79646300  0.80826800  1
  H  897  1  0.60225500  0.71378100  0.83544500  1
  H  898  1  0.78768700  0.76159700  0.85881700  1
  H  899  1  0.70076500  0.84874100  0.86228900  1
  H  900  1  0.56540400  0.78754000  0.79512100  1
  H  907  1  0.61571100  0.45508000  0.83429100  1
  H  916  1  0.58412800  0.52464000  0.83555700  1
  H  917  1  0.71018200  0.53396100  0.79612200  1
  H  918  1  0.68841300  0.55440300  0.80519500  1
  H  919  1  0.49491500  0.45292500  0.87657900  1
  H  920  1  0.51769300  0.43062600  0.87139900  1
  H  921  1  0.52624800  0.50389700  0.83662200  1
  H  922  1  0.62924000  0.47198700  0.80922300  1
  H  927  1  0.62545800  0.56813600  0.82621700  1
  H  928  1  0.48082100  0.50446600  0.85945700  1
  H  929  1  0.57162000  0.41789400  0.86024900  1
  H  930  1  0.70666200  0.48444400  0.79689700  1
  H  937  1  0.65149500  0.45546300  0.43261700  1
  H  946  1  0.68700300  0.52484000  0.43408400  1
  H  947  1  0.55852500  0.53419400  0.47215900  1
  H  948  1  0.58256500  0.55475200  0.46411800  1
  H  949  1  0.76398600  0.46257800  0.38765300  1
  H  950  1  0.73423100  0.44172800  0.38853600  1
  H  951  1  0.74388600  0.50285100  0.43327500  1
  H  952  1  0.63635100  0.47152300  0.45817300  1
  H  957  1  0.64837600  0.56853300  0.44448200  1
  H  958  1  0.79039000  0.50533600  0.41040200  1
  H  959  1  0.69835900  0.42086600  0.40489600  1
  H  960  1  0.56002300  0.48441100  0.47096300  1
  H  967  1  0.81812000  0.28215800  0.00549100  1
  H  970  1  0.69289200  0.22268900  0.02465500  1
  H  971  1  0.68281500  0.22281600  0.00443000  1
  H  972  1  0.65428300  0.25414100  0.02685800  1
  H  981  1  0.95322400  0.28350200  0.76177000  1
  H  984  1  0.07648700  0.22215900  0.74385800  1
  H  985  1  0.08658500  0.22303800  0.76407200  1
  H  986  1  0.11617400  0.25311700  0.74098700  1
  H  995  1  0.82073100  0.49127300  0.76516800  1
  H  998  1  0.68452100  0.53709600  0.73915900  1
  H  999  1  0.67151800  0.53933100  0.75907400  1
  H  1000  1  0.65474500  0.50286400  0.73899100  1
  H  1009  1  0.94482000  0.49259700  0.00227400  1
  H  1012  1  0.08230900  0.53596500  0.02946500  1
  H  1013  1  0.09552200  0.53902100  0.00962600  1
  H  1014  1  0.11095500  0.50146900  0.02883200  1
  H  1023  1  0.20023300  0.73576400  0.01271500  1
  H  1026  1  0.32524100  0.79543300  0.99365700  1
  H  1027  1  0.33528500  0.79526200  0.01388400  1
  H  1028  1  0.36399400  0.76403700  0.99141800  1
  H  1037  1  0.06526500  0.73398300  0.25631500  1
  H  1040  1  0.94235500  0.79563900  0.27403500  1
  H  1041  1  0.93231200  0.79468200  0.25382000  1
  H  1042  1  0.90244700  0.76477600  0.27696500  1
  H  1051  1  0.19728900  0.52682800  0.25322000  1
  H  1054  1  0.33359100  0.48110800  0.27925300  1
  H  1055  1  0.34660000  0.47885700  0.25934100  1
  H  1056  1  0.36329400  0.51535800  0.27940200  1
  H  1065  1  0.45312100  0.78341000  0.76187300  1
  H  1068  1  0.57662500  0.72231100  0.74378100  1
  H  1069  1  0.58680600  0.72312500  0.76399000  1
  H  1070  1  0.61612000  0.75334400  0.74094800  1
  H  1079  1  0.32106500  0.99015100  0.76540900  1
  H  1082  1  0.18512700  0.03649800  0.73966900  1
  H  1083  1  0.17223500  0.03860700  0.75960100  1
  H  1084  1  0.15503900  0.00234700  0.73938000  1
  H  1093  1  0.44482300  0.99260500  0.00228600  1
  H  1096  1  0.58240900  0.03593600  0.02943100  1
  H  1097  1  0.59565700  0.03891600  0.00959000  1
  H  1098  1  0.61095600  0.00141500  0.02886000  1
  H  1107  1  0.56529100  0.23400400  0.25622900  1
  H  1110  1  0.44229400  0.29553500  0.27408500  1
  H  1111  1  0.43217700  0.29462900  0.25387500  1
  H  1112  1  0.40250200  0.26462400  0.27699100  1
  H  1121  1  0.69696400  0.02794900  0.25293400  1
  H  1124  1  0.83297900  0.98176000  0.27876400  1
  H  1125  1  0.84591200  0.97960600  0.25883900  1
  H  1126  1  0.86295100  0.01594100  0.27901100  1
  H  1135  1  0.81715400  0.78313800  0.50622200  1
  H  1138  1  0.69455500  0.72104700  0.52340300  1
  H  1139  1  0.68434600  0.72240400  0.50321200  1
  H  1140  1  0.65462500  0.75183200  0.52669500  1
  H  1149  1  0.94511600  0.99188100  0.50275100  1
  H  1152  1  0.08171500  0.03760400  0.52849300  1
  H  1153  1  0.09488100  0.03941600  0.50857400  1
  H  1154  1  0.11113800  0.00329400  0.52902900  1
  H  1163  1  0.20099200  0.23499100  0.51209200  1
  H  1166  1  0.32384400  0.29689300  0.49483200  1
  H  1167  1  0.33411100  0.29553800  0.51501900  1
  H  1168  1  0.36361500  0.26605100  0.49153500  1
  H  1177  1  0.44514100  0.49182500  0.50278400  1
  H  1180  1  0.58166300  0.53766600  0.52848000  1
  H  1181  1  0.59484400  0.53943900  0.50856000  1
  H  1182  1  0.61111500  0.50336200  0.52905500  1
  H  1191  1  0.88974600  0.37532200  0.10390200  1
  H  1194  1  0.89719400  0.36337100  0.03736600  1
  H  1195  1  0.86824100  0.34003000  0.04227600  1
  H  1196  1  0.95549900  0.34378900  0.04314800  1
  H  1205  1  0.87839700  0.37578900  0.66470800  1
  H  1208  1  0.87139300  0.36285000  0.73115900  1
  H  1209  1  0.90025200  0.33956500  0.72604100  1
  H  1210  1  0.81299600  0.34339500  0.72529100  1
  H  1219  1  0.13024500  0.64224900  0.91468500  1
  H  1222  1  0.12224500  0.65448400  0.98118500  1
  H  1223  1  0.15054500  0.67803200  0.97622300  1
  H  1224  1  0.06340600  0.67356200  0.97533300  1
  H  1233  1  0.14007800  0.64207600  0.35363600  1
  H  1236  1  0.14706100  0.65457900  0.28714200  1
  H  1237  1  0.11816500  0.67788600  0.29218200  1
  H  1238  1  0.20542500  0.67409600  0.29294500  1
  H  1247  1  0.38830000  0.87412600  0.10251900  1
  H  1250  1  0.39547000  0.86103100  0.03608700  1
  H  1251  1  0.36721000  0.83755700  0.04126200  1
  H  1252  1  0.45436500  0.84200200  0.04194000  1
  H  1261  1  0.37805500  0.87572300  0.66454500  1
  H  1264  1  0.37120900  0.86317300  0.73103800  1
  H  1265  1  0.40035000  0.83995400  0.72599600  1
  H  1266  1  0.31305100  0.84348500  0.72522000  1
  H  1275  1  0.63133700  0.14355000  0.91599600  1
  H  1278  1  0.62384600  0.15677500  0.98240700  1
  H  1279  1  0.65154300  0.18042400  0.97719900  1
  H  1280  1  0.56450200  0.17538900  0.97653300  1
  H  1289  1  0.64060700  0.14210800  0.35381500  1
  H  1292  1  0.64730300  0.15422000  0.28727700  1
  H  1293  1  0.61811400  0.17745200  0.29224700  1
  H  1294  1  0.70542100  0.17398700  0.29301400  1
  H  1303  1  0.88779900  0.87437600  0.60374200  1
  H  1306  1  0.89536000  0.86276500  0.53718400  1
  H  1307  1  0.86754000  0.83902400  0.54207900  1
  H  1308  1  0.95460300  0.84394500  0.54287000  1
  H  1317  1  0.88179700  0.87283000  0.16602800  1
  H  1320  1  0.87455100  0.86025000  0.23250100  1
  H  1321  1  0.90160300  0.83635300  0.22736600  1
  H  1322  1  0.81469000  0.84201500  0.22678400  1
  H  1331  1  0.13191000  0.14335500  0.41481300  1
  H  1334  1  0.12396500  0.15509400  0.48135100  1
  H  1335  1  0.15123600  0.17900500  0.47643000  1
  H  1336  1  0.06429700  0.17350200  0.47562900  1
  H  1345  1  0.13641800  0.14498700  0.85225800  1
  H  1348  1  0.14391200  0.15721100  0.78575500  1
  H  1349  1  0.11689200  0.18114800  0.79081400  1
  H  1350  1  0.20379100  0.17544200  0.79144900  1
  H  1359  1  0.38700700  0.37293800  0.60236900  1
  H  1362  1  0.39363900  0.36036100  0.53588400  1
  H  1363  1  0.36639700  0.33653800  0.54104200  1
  H  1364  1  0.45336800  0.34196500  0.54153800  1
  H  1373  1  0.38199000  0.37291400  0.16600400  1
  H  1376  1  0.37454200  0.36043000  0.23248500  1
  H  1377  1  0.40171600  0.33656000  0.22738500  1
  H  1378  1  0.31478200  0.34211600  0.22674300  1
  H  1387  1  0.63226000  0.64482800  0.41609500  1
  H  1390  1  0.62561700  0.65744400  0.48257500  1
  H  1391  1  0.65235700  0.68141800  0.47738700  1
  H  1392  1  0.56550200  0.67549000  0.47694300  1
  H  1401  1  0.63626900  0.64490700  0.85228300  1
  H  1404  1  0.64395500  0.65701700  0.78577100  1
  H  1405  1  0.61679900  0.68092500  0.79079100  1
  H  1406  1  0.70372400  0.67534000  0.79148600  1
  H  1415  1  0.10511700  0.19494700  0.12819900  1
  H  1418  1  0.13798000  0.28584500  0.13803700  1
  H  1419  1  0.18830700  0.27590400  0.13939700  1
  H  1420  1  0.12873900  0.27719400  0.16398500  1
  H  1429  1  0.66333000  0.19475700  0.64000500  1
  H  1432  1  0.62981400  0.28557000  0.63018800  1
  H  1433  1  0.57954800  0.27554200  0.62881700  1
  H  1434  1  0.63914600  0.27693200  0.60424200  1
  H  1443  1  0.10729000  0.57448300  0.64077700  1
  H  1446  1  0.13581500  0.48345600  0.62998000  1
  H  1447  1  0.18654500  0.49268600  0.62839300  1
  H  1448  1  0.12586800  0.49264500  0.60417200  1
  H  1457  1  0.66353800  0.57424600  0.12840100  1
  H  1460  1  0.62939300  0.48346000  0.13806900  1
  H  1461  1  0.57919900  0.49354100  0.13954500  1
  H  1462  1  0.63911500  0.49201900  0.16400600  1
  H  1471  1  0.91336500  0.82287200  0.88981400  1
  H  1474  1  0.88054100  0.73193600  0.88012900  1
  H  1475  1  0.83022500  0.74187700  0.87871700  1
  H  1476  1  0.88989000  0.74048700  0.85416700  1
  H  1485  1  0.35506300  0.82302600  0.37802800  1
  H  1488  1  0.38869500  0.73226200  0.38801100  1
  H  1489  1  0.43894300  0.74231400  0.38939200  1
  H  1490  1  0.37925400  0.74098400  0.41393700  1
  H  1499  1  0.91125500  0.44313700  0.37764600  1
  H  1502  1  0.88198700  0.53406800  0.38856100  1
  H  1503  1  0.83135000  0.52470200  0.39017800  1
  H  1504  1  0.89215000  0.52486100  0.41435400  1
  H  1513  1  0.35479700  0.44335200  0.88994700  1
  H  1516  1  0.38847500  0.53424000  0.88052400  1
  H  1517  1  0.43870500  0.52422900  0.87898000  1
  H  1518  1  0.37865100  0.52582200  0.85456900  1
  H  1527  1  0.60561800  0.69408000  0.12821700  1
  H  1530  1  0.63771200  0.78510900  0.13782300  1
  H  1531  1  0.68810100  0.77528100  0.13926600  1
  H  1532  1  0.62835000  0.77658700  0.16378800  1
  H  1541  1  0.16281800  0.69548800  0.64000500  1
  H  1544  1  0.13004800  0.78642600  0.63040600  1
  H  1545  1  0.07967900  0.77653700  0.62907400  1
  H  1546  1  0.13909400  0.77785500  0.60443400  1
  H  1555  1  0.60754100  0.07381600  0.64112000  1
  H  1558  1  0.63625600  0.98286600  0.63007000  1
  H  1559  1  0.68695700  0.99214000  0.62848200  1
  H  1560  1  0.62619100  0.99218500  0.60429100  1
  H  1569  1  0.16332200  0.07473500  0.12809400  1
  H  1572  1  0.12902500  0.98400600  0.13794000  1
  H  1573  1  0.07883200  0.99410200  0.13934400  1
  H  1574  1  0.13859000  0.99268500  0.16386500  1
  H  1583  1  0.41286700  0.32374900  0.88980400  1
  H  1586  1  0.38079800  0.23268400  0.88035000  1
  H  1587  1  0.33041700  0.24251300  0.87885700  1
  H  1588  1  0.39026300  0.24110700  0.85437300  1
  H  1597  1  0.85562900  0.32229100  0.37803500  1
  H  1600  1  0.88851700  0.23140100  0.38780400  1
  H  1601  1  0.93886700  0.24131500  0.38914500  1
  H  1602  1  0.87936000  0.24006200  0.41375500  1
  H  1611  1  0.41085800  0.94382700  0.37724900  1
  H  1614  1  0.38157400  0.03467800  0.38849000  1
  H  1615  1  0.33094900  0.02529400  0.39011200  1
  H  1616  1  0.39188100  0.02529300  0.41424200  1
  H  1625  1  0.85503900  0.94285700  0.89025700  1
  H  1628  1  0.88887200  0.03369000  0.88066000  1
  H  1629  1  0.93910200  0.02366300  0.87918300  1
  H  1630  1  0.87919500  0.02515400  0.85471700  1
  H  1639  1  0.96585500  0.10753900  0.12460600  1
  H  1642  1  0.85417300  0.16556000  0.15465300  1
  H  1643  1  0.82243700  0.15476700  0.13990200  1
  H  1644  1  0.87091900  0.19344100  0.13836300  1
  H  1653  1  0.80080300  0.10810800  0.64376200  1
  H  1656  1  0.91865700  0.16271400  0.61391800  1
  H  1657  1  0.94793800  0.15263600  0.62963900  1
  H  1658  1  0.90058200  0.19178000  0.62893500  1
  H  1667  1  0.96717500  0.65984000  0.64404300  1
  H  1670  1  0.85130300  0.60488300  0.61340100  1
  H  1671  1  0.82076800  0.61548400  0.62858800  1
  H  1672  1  0.86739700  0.57609400  0.62898000  1
  H  1681  1  0.80058000  0.65852100  0.12422100  1
  H  1684  1  0.91743700  0.60411600  0.15484500  1
  H  1685  1  0.94773000  0.61484000  0.13963100  1
  H  1686  1  0.90172200  0.57524200  0.13929200  1
  H  1695  1  0.05241800  0.91043900  0.89373200  1
  H  1698  1  0.16421000  0.85251600  0.86364400  1
  H  1699  1  0.19591200  0.86330400  0.87840800  1
  H  1700  1  0.14751000  0.82459900  0.87990600  1
  H  1709  1  0.21722300  0.90953100  0.37436400  1
  H  1712  1  0.10020000  0.85447600  0.40426600  1
  H  1713  1  0.07060500  0.86459800  0.38864600  1
  H  1714  1  0.11825100  0.82554900  0.38910800  1
  H  1723  1  0.05147600  0.35794100  0.37415100  1
  H  1726  1  0.16643800  0.41327700  0.40494900  1
  H  1727  1  0.19727700  0.40271200  0.38983900  1
  H  1728  1  0.15030800  0.44198200  0.38929800  1
  H  1737  1  0.21785400  0.35885100  0.89383400  1
  H  1740  1  0.10091200  0.41345500  0.86343200  1
  H  1741  1  0.07064400  0.40260100  0.87860600  1
  H  1742  1  0.11658900  0.44221500  0.87909900  1
  H  1751  1  0.46620600  0.60628700  0.12493900  1
  H  1754  1  0.35452500  0.66471600  0.15459100  1
  H  1755  1  0.32284400  0.65380200  0.13986800  1
  H  1756  1  0.37145100  0.69241700  0.13817500  1
  H  1765  1  0.30031300  0.60849300  0.64356800  1
  H  1768  1  0.41878600  0.66299200  0.61398200  1
  H  1769  1  0.44778800  0.65289300  0.62977000  1
  H  1770  1  0.40055800  0.69207600  0.62895800  1
  H  1779  1  0.46730100  0.15892800  0.64428600  1
  H  1782  1  0.35218600  0.10352400  0.61363300  1
  H  1783  1  0.32136400  0.11421100  0.62870400  1
  H  1784  1  0.36819500  0.07490000  0.62937800  1
  H  1793  1  0.30034800  0.15879200  0.12414100  1
  H  1796  1  0.41725400  0.10443900  0.15477800  1
  H  1797  1  0.44755600  0.11516800  0.13956900  1
  H  1798  1  0.40158800  0.07555700  0.13922400  1
  H  1807  1  0.55205800  0.41170500  0.89340800  1
  H  1810  1  0.66383700  0.35337000  0.86371300  1
  H  1811  1  0.69548800  0.36427900  0.87844700  1
  H  1812  1  0.64695700  0.32563300  0.88010400  1
  H  1821  1  0.71772400  0.40911000  0.37457300  1
  H  1824  1  0.60002000  0.35417800  0.40420200  1
  H  1825  1  0.57072100  0.36433800  0.38851300  1
  H  1826  1  0.61820500  0.32523500  0.38908400  1
  H  1835  1  0.55122400  0.85899800  0.37394900  1
  H  1838  1  0.66588600  0.91450500  0.40475600  1
  H  1839  1  0.69688200  0.90385000  0.38972600  1
  H  1840  1  0.64992600  0.94311700  0.38899400  1
  H  1849  1  0.71811900  0.85857400  0.89391000  1
  H  1852  1  0.60110500  0.91312400  0.86350700  1
  H  1853  1  0.57083700  0.90226300  0.87867900  1
  H  1854  1  0.61674700  0.94189000  0.87917200  1
  C  1  1  0.93618200  0.23246100  0.08541200  1
  C  2  1  0.92350900  0.21087100  0.08887600  1
  C  3  1  0.94360900  0.19761300  0.10007800  1
  C  4  1  0.97810300  0.20590200  0.10855100  1
  C  5  1  0.99390300  0.22720200  0.10474700  1
  C  6  1  0.97227500  0.23973200  0.09329900  1
  C  9  1  0.91001700  0.24681200  0.07598800  1
  C  10  1  0.88471400  0.24009000  0.06319400  1
  C  11  1  0.85552200  0.25409500  0.05566800  1
  C  12  1  0.84990500  0.27570800  0.06181600  1
  C  13  1  0.87662700  0.28314800  0.07391000  1
  C  14  1  0.90535400  0.26882300  0.08075000  1
  C  23  1  0.87501900  0.30389700  0.08035000  1
  C  24  1  0.02824700  0.23692300  0.11231900  1
  C  25  1  0.92822700  0.17653800  0.10201600  1
  C  26  1  0.83120900  0.24584400  0.04326100  1
  C  31  1  0.83278400  0.23242500  0.68263500  1
  C  32  1  0.84563400  0.21090900  0.67904600  1
  C  33  1  0.82555900  0.19769800  0.66780400  1
  C  34  1  0.79075400  0.20591300  0.65947500  1
  C  35  1  0.77473900  0.22712600  0.66340000  1
  C  36  1  0.79644000  0.23962400  0.67486100  1
  C  39  1  0.85903800  0.24677900  0.69205600  1
  C  40  1  0.88471400  0.24010800  0.70477100  1
  C  41  1  0.91391800  0.25418700  0.71225700  1
  C  42  1  0.91916500  0.27581800  0.70609100  1
  C  43  1  0.89202700  0.28322000  0.69412000  1
  C  44  1  0.86330600  0.26883300  0.68734800  1
  C  53  1  0.89319500  0.30400500  0.68772900  1
  C  54  1  0.74013500  0.23680500  0.65592800  1
  C  55  1  0.84124100  0.17671000  0.66573300  1
  C  56  1  0.93856700  0.24603900  0.72463900  1
  C  61  1  0.93655500  0.53567000  0.68301400  1
  C  62  1  0.92219500  0.55683400  0.67909500  1
  C  63  1  0.94152400  0.57033600  0.66781600  1
  C  64  1  0.97689500  0.56266200  0.65957500  1
  C  65  1  0.99414200  0.54180800  0.66365200  1
  C  66  1  0.97352900  0.52919700  0.67532400  1
  C  69  1  0.91225500  0.52109000  0.69312200  1
  C  70  1  0.88421900  0.52787000  0.70507700  1
  C  71  1  0.85789400  0.51322000  0.71351600  1
  C  72  1  0.85873200  0.49046900  0.70942700  1
  C  73  1  0.88825700  0.48319900  0.69830800  1
  C  74  1  0.91343200  0.49826500  0.69031800  1
  C  83  1  0.89241200  0.46257300  0.69439100  1
  C  84  1  0.02898900  0.53250600  0.65614000  1
  C  85  1  0.92517000  0.59125600  0.66590100  1
  C  86  1  0.82990400  0.52177100  0.72466000  1
  C  91  1  0.83089700  0.53476100  0.08519200  1
  C  92  1  0.84548700  0.55585800  0.08915600  1
  C  93  1  0.82651000  0.56927300  0.10055800  1
  C  94  1  0.79138000  0.56155400  0.10891600  1
  C  95  1  0.77384300  0.54080200  0.10475000  1
  C  96  1  0.79405200  0.52826600  0.09294300  1
  C  99  1  0.85488600  0.52026600  0.07495400  1
  C  100  1  0.88270200  0.52722600  0.06299200  1
  C  101  1  0.90895900  0.51270600  0.05444700  1
  C  102  1  0.90823500  0.48989900  0.05836700  1
  C  103  1  0.87886200  0.48246200  0.06948800  1
  C  104  1  0.85373300  0.49740600  0.07761700  1
  C  113  1  0.87472500  0.46177500  0.07323200  1
  C  114  1  0.73892100  0.53158700  0.11223400  1
  C  115  1  0.84307200  0.59010600  0.10252200  1
  C  116  1  0.93685500  0.52148500  0.04339900  1
  C  121  1  0.08210900  0.78544500  0.93279500  1
  C  122  1  0.09476600  0.80704100  0.92934400  1
  C  123  1  0.07468800  0.82030400  0.91814000  1
  C  124  1  0.04023900  0.81200900  0.90964200  1
  C  125  1  0.02445400  0.79069900  0.91342600  1
  C  126  1  0.04604600  0.77817200  0.92488700  1
  C  129  1  0.10823400  0.77110000  0.94224400  1
  C  130  1  0.13356700  0.77784400  0.95502400  1
  C  131  1  0.16270700  0.76383400  0.96257900  1
  C  132  1  0.16820900  0.74218700  0.95648100  1
  C  133  1  0.14142200  0.73472200  0.94441800  1
  C  134  1  0.11277500  0.74905800  0.93753900  1
  C  143  1  0.14280300  0.71388900  0.93808400  1
  C  144  1  0.99016400  0.78096200  0.90582800  1
  C  145  1  0.09002900  0.84139300  0.91623200  1
  C  146  1  0.18705900  0.77210500  0.97497000  1
  C  151  1  0.18578600  0.78523300  0.33538600  1
  C  152  1  0.17289700  0.80674300  0.33896800  1
  C  153  1  0.19293200  0.81996400  0.35021300  1
  C  154  1  0.22774400  0.81177000  0.35854900  1
  C  155  1  0.24379300  0.79056000  0.35463400  1
  C  156  1  0.22211900  0.77804600  0.34317200  1
  C  159  1  0.15954200  0.77086900  0.32597000  1
  C  160  1  0.13390000  0.77752600  0.31324100  1
  C  161  1  0.10467200  0.76344900  0.30576800  1
  C  162  1  0.09935900  0.74183900  0.31196700  1
  C  163  1  0.12645500  0.73445100  0.32395500  1
  C  164  1  0.15521600  0.74883400  0.33070900  1
  C  173  1  0.12520100  0.71369400  0.33038600  1
  C  174  1  0.27839500  0.78090100  0.36212000  1
  C  175  1  0.17715400  0.84092600  0.35230100  1
  C  176  1  0.08006300  0.77158000  0.29337000  1
  C  181  1  0.08158200  0.48229500  0.33537900  1
  C  182  1  0.09598100  0.46112100  0.33924800  1
  C  183  1  0.07668600  0.44755300  0.35049400  1
  C  184  1  0.04131000  0.45516800  0.35875900  1
  C  185  1  0.02404400  0.47604600  0.35474700  1
  C  186  1  0.04462100  0.48871900  0.34309900  1
  C  189  1  0.10581700  0.49691400  0.32527600  1
  C  190  1  0.13388300  0.49017900  0.31331600  1
  C  191  1  0.16013600  0.50486400  0.30487900  1
  C  192  1  0.15918000  0.52761600  0.30896500  1
  C  193  1  0.12961500  0.53484100  0.32008200  1
  C  194  1  0.10453000  0.51974000  0.32807900  1
  C  203  1  0.12531800  0.55546300  0.32398500  1
  C  204  1  0.98918600  0.48529300  0.36228800  1
  C  205  1  0.09302400  0.42660900  0.35230900  1
  C  206  1  0.18817500  0.49634900  0.29373700  1
  C  211  1  0.18735800  0.48230600  0.93334400  1
  C  212  1  0.17283000  0.46123400  0.92927500  1
  C  213  1  0.19183700  0.44794100  0.91780900  1
  C  214  1  0.22690600  0.45577300  0.90947300  1
  C  215  1  0.24439100  0.47649800  0.91373600  1
  C  216  1  0.22417700  0.48889900  0.92561500  1
  C  219  1  0.16337600  0.49665900  0.94369200  1
  C  220  1  0.13539600  0.48951200  0.95554100  1
  C  221  1  0.10914400  0.50390200  0.96419200  1
  C  222  1  0.11012600  0.52679600  0.96054900  1
  C  223  1  0.13963700  0.53440200  0.94953900  1
  C  224  1  0.16470500  0.51957200  0.94127500  1
  C  233  1  0.14390700  0.55516300  0.94601700  1
  C  234  1  0.27926400  0.48581100  0.90628300  1
  C  235  1  0.17537500  0.42710000  0.91577700  1
  C  236  1  0.08106000  0.49495600  0.97508500  1
  C  241  1  0.43671100  0.73089800  0.08515200  1
  C  242  1  0.42416700  0.70931600  0.08870500  1
  C  243  1  0.44427200  0.69620500  0.09998800  1
  C  244  1  0.47862500  0.70464500  0.10846700  1
  C  245  1  0.49431600  0.72593500  0.10457500  1
  C  246  1  0.47270000  0.73831500  0.09303900  1
  C  249  1  0.41051900  0.74509300  0.07562300  1
  C  250  1  0.38524300  0.73814400  0.06288500  1
  C  251  1  0.35595300  0.75199300  0.05527600  1
  C  252  1  0.35026000  0.77369700  0.06124500  1
  C  253  1  0.37695100  0.78135200  0.07327900  1
  C  254  1  0.40574900  0.76716500  0.08022500  1
  C  263  1  0.37517500  0.80217800  0.07958800  1
  C  264  1  0.52853500  0.73578800  0.11213800  1
  C  265  1  0.42903100  0.67512000  0.10200000  1
  C  266  1  0.33163700  0.74350700  0.04296200  1
  C  271  1  0.33268600  0.73269500  0.68265100  1
  C  272  1  0.34541400  0.71116900  0.67903100  1
  C  273  1  0.32524400  0.69802100  0.66777600  1
  C  274  1  0.29046600  0.70631100  0.65946900  1
  C  275  1  0.27457400  0.72754000  0.66342600  1
  C  276  1  0.29637000  0.73997300  0.67489800  1
  C  279  1  0.35904100  0.74698700  0.69207700  1
  C  280  1  0.38466200  0.74026000  0.70479200  1
  C  281  1  0.41394600  0.75428300  0.71228500  1
  C  282  1  0.41933600  0.77590900  0.70612700  1
  C  283  1  0.39228700  0.78335900  0.69414500  1
  C  284  1  0.36347400  0.76902900  0.68736600  1
  C  293  1  0.39359300  0.80414300  0.68775800  1
  C  294  1  0.24002200  0.73730100  0.65597400  1
  C  295  1  0.34079700  0.67700900  0.66567400  1
  C  296  1  0.43852800  0.74609600  0.72467400  1
  C  301  1  0.43699600  0.03482800  0.68334800  1
  C  302  1  0.42259500  0.05598900  0.67944500  1
  C  303  1  0.44190600  0.06952300  0.66818200  1
  C  304  1  0.47730200  0.06188800  0.65993800  1
  C  305  1  0.49455800  0.04102100  0.66397800  1
  C  306  1  0.47396300  0.02838000  0.67564100  1
  C  309  1  0.41272600  0.02023800  0.69346000  1
  C  310  1  0.38464400  0.02700100  0.70540800  1
  C  311  1  0.35835600  0.01233500  0.71384900  1
  C  312  1  0.35929200  0.98958000  0.70977400  1
  C  313  1  0.38889700  0.98233000  0.69868100  1
  C  314  1  0.41401000  0.99741100  0.69068000  1
  C  323  1  0.39325600  0.96169900  0.69482200  1
  C  324  1  0.52940000  0.03174300  0.65644500  1
  C  325  1  0.42553000  0.09044700  0.66632000  1
  C  326  1  0.33033200  0.02086400  0.72499300  1
  C  331  1  0.33088200  0.03502600  0.08512100  1
  C  332  1  0.34547800  0.05612900  0.08906900  1
  C  333  1  0.32646700  0.06957500  0.10044800  1
  C  334  1  0.29128400  0.06188600  0.10878500  1
  C  335  1  0.27372800  0.04113600  0.10462400  1
  C  336  1  0.29399400  0.02856000  0.09285200  1
  C  339  1  0.35491000  0.02048900  0.07492800  1
  C  340  1  0.38269000  0.02740200  0.06294300  1
  C  341  1  0.40899600  0.01285500  0.05444100  1
  C  342  1  0.40838100  0.99007500  0.05844600  1
  C  343  1  0.37910100  0.98267900  0.06961900  1
  C  344  1  0.35388000  0.99765000  0.07768400  1
  C  353  1  0.37525400  0.96202300  0.07351100  1
  C  354  1  0.23873500  0.03196600  0.11208500  1
  C  355  1  0.34306600  0.09040300  0.10241600  1
  C  356  1  0.43687700  0.02159900  0.04337200  1
  C  361  1  0.58157500  0.28702000  0.93306300  1
  C  362  1  0.59410400  0.30860800  0.92952400  1
  C  363  1  0.57401400  0.32172400  0.91823800  1
  C  364  1  0.53970600  0.31327700  0.90973500  1
  C  365  1  0.52403400  0.29197600  0.91360700  1
  C  366  1  0.54561600  0.27960100  0.92515500  1
  C  369  1  0.60773100  0.27283200  0.94261700  1
  C  370  1  0.63304000  0.27980100  0.95534000  1
  C  371  1  0.66227500  0.26595100  0.96297900  1
  C  372  1  0.66784900  0.24420900  0.95706400  1
  C  373  1  0.64109900  0.23653100  0.94505800  1
  C  374  1  0.61238700  0.25072800  0.93807300  1
  C  383  1  0.64265900  0.21562400  0.93885200  1
  C  384  1  0.48987100  0.28210400  0.90601900  1
  C  385  1  0.58920900  0.34282400  0.91625700  1
  C  386  1  0.68664300  0.27445900  0.97526900  1
  C  391  1  0.68591500  0.28494200  0.33538300  1
  C  392  1  0.67313800  0.30646000  0.33899800  1
  C  393  1  0.69326200  0.31962000  0.35025400  1
  C  394  1  0.72805500  0.31135700  0.35856600  1
  C  395  1  0.74399700  0.29013600  0.35461800  1
  C  396  1  0.72223400  0.27768200  0.34314700  1
  C  399  1  0.65957200  0.27063400  0.32596800  1
  C  400  1  0.63396900  0.27734100  0.31324000  1
  C  401  1  0.60467000  0.26331000  0.30576200  1
  C  402  1  0.59924300  0.24170400  0.31195200  1
  C  403  1  0.62627100  0.23427500  0.32394900  1
  C  404  1  0.65510800  0.24860800  0.33070800  1
  C  413  1  0.62490100  0.21351900  0.33037700  1
  C  414  1  0.77855400  0.28040000  0.36208100  1
  C  415  1  0.67760200  0.34060200  0.35237200  1
  C  416  1  0.58015300  0.27144300  0.29333800  1
  C  421  1  0.58106400  0.98318100  0.33503600  1
  C  422  1  0.59557100  0.96203500  0.33892200  1
  C  423  1  0.57635000  0.94845900  0.35017800  1
  C  424  1  0.54093900  0.95603300  0.35844100  1
  C  425  1  0.52357200  0.97687900  0.35442000  1
  C  426  1  0.54407500  0.98956400  0.34275800  1
  C  429  1  0.60523900  0.99781000  0.32491900  1
  C  430  1  0.63338600  0.99109100  0.31298000  1
  C  431  1  0.65956600  0.00580300  0.30453000  1
  C  432  1  0.65842000  0.02856400  0.30857500  1
  C  433  1  0.62874400  0.03576500  0.31965600  1
  C  434  1  0.60376500  0.02064100  0.32767600  1
  C  443  1  0.62415200  0.05639700  0.32347200  1
  C  444  1  0.48869000  0.98609000  0.36196800  1
  C  445  1  0.59282900  0.92755500  0.35201300  1
  C  446  1  0.68761500  0.99734000  0.29337100  1
  C  451  1  0.68741600  0.98202100  0.93343000  1
  C  452  1  0.67288100  0.96094500  0.92937300  1
  C  453  1  0.69191400  0.94762600  0.91792600  1
  C  454  1  0.72703700  0.95543200  0.90960900  1
  C  455  1  0.74453800  0.97615500  0.91387200  1
  C  456  1  0.72427000  0.98859100  0.92572000  1
  C  459  1  0.66339400  0.99640900  0.94374000  1
  C  460  1  0.63544900  0.98929700  0.95561200  1
  C  461  1  0.60913100  0.00370400  0.96421700  1
  C  462  1  0.60998100  0.02657500  0.96049200  1
  C  463  1  0.63941500  0.03415700  0.94944100  1
  C  464  1  0.66459300  0.01930700  0.94123900  1
  C  473  1  0.64340200  0.05489400  0.94578600  1
  C  474  1  0.77948400  0.98542500  0.90644300  1
  C  475  1  0.67542200  0.92679200  0.91588500  1
  C  476  1  0.58101800  0.99476300  0.97511000  1
  C  481  1  0.94137400  0.73242800  0.58436700  1
  C  482  1  0.92925100  0.71142000  0.58958500  1
  C  483  1  0.95046000  0.69972600  0.60145000  1
  C  484  1  0.98566000  0.70957200  0.60876200  1
  C  485  1  0.00148900  0.72989500  0.60284700  1
  C  486  1  0.97861600  0.74060400  0.59085500  1
  C  489  1  0.91346000  0.74613800  0.57516400  1
  C  490  1  0.88735900  0.73910500  0.56268200  1
  C  491  1  0.85736800  0.75292000  0.55534700  1
  C  492  1  0.85130600  0.77442600  0.56164900  1
  C  493  1  0.87848600  0.78211500  0.57350400  1
  C  494  1  0.90824700  0.76809400  0.57998900  1
  C  503  1  0.87645300  0.80279400  0.58006500  1
  C  504  1  0.03686700  0.74063000  0.60896700  1
  C  505  1  0.93255900  0.67969800  0.60580400  1
  C  506  1  0.83294900  0.74481900  0.54286000  1
  C  511  1  0.82563600  0.73075000  0.18417700  1
  C  512  1  0.83771800  0.70978500  0.17886900  1
  C  513  1  0.81677800  0.69838100  0.16680600  1
  C  514  1  0.78193600  0.70846700  0.15941700  1
  C  515  1  0.76597600  0.72864000  0.16553400  1
  C  516  1  0.78854000  0.73910000  0.17770700  1
  C  519  1  0.85344300  0.74423600  0.19354900  1
  C  520  1  0.87923500  0.73683500  0.20599300  1
  C  521  1  0.90933200  0.75037900  0.21347600  1
  C  522  1  0.91574400  0.77200600  0.20744100  1
  C  523  1  0.88884400  0.78004000  0.19560900  1
  C  524  1  0.85898000  0.76625900  0.18893200  1
  C  533  1  0.89140000  0.80079700  0.18920200  1
  C  534  1  0.73072100  0.73945200  0.15944500  1
  C  535  1  0.83451100  0.67835300  0.16240200  1
  C  536  1  0.93353800  0.74183800  0.22582600  1
  C  541  1  0.94245300  0.03713700  0.18447000  1
  C  542  1  0.92938300  0.05810300  0.17947500  1
  C  543  1  0.95047300  0.07059400  0.16801100  1
  C  544  1  0.98666000  0.06172000  0.16079400  1
  C  545  1  0.00231700  0.04094900  0.16593000  1
  C  546  1  0.97989700  0.02961700  0.17774900  1
  C  549  1  0.91616500  0.02322700  0.19428100  1
  C  550  1  0.88840700  0.03068600  0.20609800  1
  C  551  1  0.86059100  0.01662500  0.21434400  1
  C  552  1  0.85922700  0.99394000  0.21006700  1
  C  553  1  0.88811100  0.98600200  0.19893500  1
  C  554  1  0.91506800  0.00045500  0.19122800  1
  C  563  1  0.88989900  0.96537100  0.19472100  1
  C  564  1  0.03721400  0.03032000  0.15936800  1
  C  565  1  0.93137900  0.09040700  0.16384200  1
  C  566  1  0.83332800  0.02568600  0.22552300  1
  C  571  1  0.82590500  0.03482500  0.58419000  1
  C  572  1  0.84000500  0.05511800  0.59015500  1
  C  573  1  0.82043800  0.06628100  0.60268900  1
  C  574  1  0.78556800  0.05632100  0.61012800  1
  C  575  1  0.76656300  0.03765200  0.60299700  1
  C  576  1  0.78747900  0.02758100  0.59024900  1
  C  579  1  0.85155000  0.02106700  0.57400700  1
  C  580  1  0.88042700  0.02846500  0.56255300  1
  C  581  1  0.90750400  0.01417600  0.55409600  1
  C  582  1  0.90720400  0.99132900  0.55795400  1
  C  583  1  0.87714400  0.98350500  0.56865500  1
  C  584  1  0.85081300  0.99814800  0.57647900  1
  C  593  1  0.87347200  0.96274900  0.57232000  1
  C  594  1  0.73010400  0.02769900  0.60876400  1
  C  595  1  0.83737300  0.08666900  0.60677800  1
  C  596  1  0.93551600  0.02297600  0.54303600  1
  C  601  1  0.07690000  0.28552700  0.43389600  1
  C  602  1  0.08901300  0.30654800  0.42870000  1
  C  603  1  0.06782800  0.31825800  0.41683900  1
  C  604  1  0.03264800  0.30842300  0.40950300  1
  C  605  1  0.01685200  0.28806800  0.41537900  1
  C  606  1  0.03969400  0.27735100  0.42737700  1
  C  609  1  0.10477600  0.27182600  0.44312900  1
  C  610  1  0.13089800  0.27888800  0.45559700  1
  C  611  1  0.16085400  0.26508300  0.46296200  1
  C  612  1  0.16683500  0.24353900  0.45671300  1
  C  613  1  0.13960700  0.23581700  0.44488500  1
  C  614  1  0.10990700  0.24983800  0.43836100  1
  C  623  1  0.14146700  0.21505600  0.43842400  1
  C  624  1  0.98153900  0.27731200  0.40922100  1
  C  625  1  0.08576000  0.33828500  0.41250200  1
  C  626  1  0.18534500  0.27324400  0.47541100  1
  C  631  1  0.19296700  0.28690700  0.83382100  1
  C  632  1  0.18086000  0.30788400  0.83909400  1
  C  633  1  0.20182200  0.31934500  0.85112200  1
  C  634  1  0.23675300  0.30933000  0.85849800  1
  C  635  1  0.25263400  0.28909200  0.85246100  1
  C  636  1  0.23003200  0.27857000  0.84032400  1
  C  639  1  0.16516200  0.27340300  0.82446200  1
  C  640  1  0.13940000  0.28078900  0.81200200  1
  C  641  1  0.10928300  0.26724500  0.80453200  1
  C  642  1  0.10282100  0.24563700  0.81059200  1
  C  643  1  0.12967300  0.23762200  0.82244700  1
  C  644  1  0.15956500  0.25140000  0.82911000  1
  C  653  1  0.12703100  0.21689300  0.82889300  1
  C  654  1  0.28786300  0.27828700  0.85858300  1
  C  655  1  0.18388600  0.33930600  0.85555900  1
  C  656  1  0.08508400  0.27578200  0.79217800  1
  C  661  1  0.07558900  0.98091600  0.83390600  1
  C  662  1  0.08873400  0.95996100  0.83889200  1
  C  663  1  0.06770900  0.94744400  0.85036000  1
  C  664  1  0.03151500  0.95628600  0.85759200  1
  C  665  1  0.01576600  0.97703800  0.85246200  1
  C  666  1  0.03812500  0.98839600  0.84063700  1
  C  669  1  0.10181500  0.99485000  0.82408600  1
  C  670  1  0.12962100  0.98741300  0.81227600  1
  C  671  1  0.15738700  0.00149800  0.80402600  1
  C  672  1  0.15863800  0.02419000  0.80828800  1
  C  673  1  0.12970100  0.03210500  0.81940800  1
  C  674  1  0.10280200  0.01762700  0.82712200  1
  C  683  1  0.12780200  0.05273900  0.82360500  1
  C  684  1  0.98081100  0.98761100  0.85902600  1
  C  685  1  0.08686300  0.92764400  0.85451200  1
  C  686  1  0.18470200  0.99245700  0.79285600  1
  C  691  1  0.19245700  0.98216800  0.43437600  1
  C  692  1  0.17836700  0.96193700  0.42830000  1
  C  693  1  0.19790600  0.95092300  0.41569400  1
  C  694  1  0.23271500  0.96098300  0.40828700  1
  C  695  1  0.25174100  0.97956500  0.41552300  1
  C  696  1  0.23086900  0.98948000  0.42834300  1
  C  699  1  0.16685300  0.99577700  0.44468300  1
  C  700  1  0.13776500  0.98818600  0.45599400  1
  C  701  1  0.11069100  0.00234100  0.46456000  1
  C  702  1  0.11129600  0.02528400  0.46101000  1
  C  703  1  0.14155300  0.03328200  0.45045700  1
  C  704  1  0.16782000  0.01875300  0.44249300  1
  C  713  1  0.14541500  0.05411900  0.44704400  1
  C  714  1  0.28817200  0.98958900  0.40979300  1
  C  715  1  0.18104200  0.93055500  0.41152100  1
  C  716  1  0.08241600  0.99334100  0.47543100  1
  C  721  1  0.44196100  0.23077700  0.58409600  1
  C  722  1  0.42991200  0.20982800  0.58945800  1
  C  723  1  0.45103200  0.19837200  0.60145900  1
  C  724  1  0.48604000  0.20841500  0.60876900  1
  C  725  1  0.50191100  0.22862100  0.60267000  1
  C  726  1  0.47912700  0.23909800  0.59055100  1
  C  729  1  0.41403800  0.24429900  0.57476000  1
  C  730  1  0.38795500  0.23700400  0.56235400  1
  C  731  1  0.35786100  0.25064100  0.55491800  1
  C  732  1  0.35170600  0.27225600  0.56101600  1
  C  733  1  0.37885300  0.28018900  0.57280000  1
  C  734  1  0.40870900  0.26632800  0.57939700  1
  C  743  1  0.37660900  0.30094800  0.57922000  1
  C  744  1  0.53722100  0.23946500  0.60874000  1
  C  745  1  0.43330900  0.17833800  0.60589500  1
  C  746  1  0.33340800  0.24224900  0.54255000  1
  C  751  1  0.32563300  0.23099500  0.18415200  1
  C  752  1  0.33762100  0.21002600  0.17882000  1
  C  753  1  0.31661300  0.19867100  0.16675100  1
  C  754  1  0.28179600  0.20881200  0.15938100  1
  C  755  1  0.26594300  0.22899700  0.16551900  1
  C  756  1  0.28857000  0.23940500  0.17769600  1
  C  759  1  0.35350100  0.24443000  0.19353500  1
  C  760  1  0.37925400  0.23697700  0.20597600  1
  C  761  1  0.40940900  0.25046800  0.21347100  1
  C  762  1  0.41593600  0.27209300  0.20745100  1
  C  763  1  0.38908900  0.28017800  0.19561900  1
  C  764  1  0.35915400  0.26644900  0.18893200  1
  C  773  1  0.39174900  0.30093700  0.18922500  1
  C  774  1  0.23075500  0.23988300  0.15943900  1
  C  775  1  0.33425500  0.17862700  0.16232600  1
  C  776  1  0.43361700  0.24183500  0.22578400  1
  C  781  1  0.44290300  0.53631900  0.18483000  1
  C  782  1  0.42972200  0.55727600  0.17986500  1
  C  783  1  0.45080300  0.56985000  0.16844700  1
  C  784  1  0.48713100  0.56109600  0.16125800  1
  C  785  1  0.50277900  0.54027800  0.16630200  1
  C  786  1  0.48035900  0.52885900  0.17808200  1
  C  789  1  0.41666400  0.52236900  0.19462800  1
  C  790  1  0.38888100  0.52979000  0.20644900  1
  C  791  1  0.36112300  0.51569300  0.21469100  1
  C  792  1  0.35987600  0.49300500  0.21042000  1
  C  793  1  0.38876800  0.48511100  0.19927500  1
  C  794  1  0.41565200  0.49959800  0.19156400  1
  C  803  1  0.39066100  0.46448600  0.19506200  1
  C  804  1  0.53765500  0.52967800  0.15969500  1
  C  805  1  0.43145600  0.58957000  0.16423900  1
  C  806  1  0.33386000  0.52469300  0.22589200  1
  C  811  1  0.32583700  0.53507900  0.58412700  1
  C  812  1  0.33998400  0.55536400  0.59009400  1
  C  813  1  0.32041100  0.56654700  0.60261900  1
  C  814  1  0.28549000  0.55661300  0.61004000  1
  C  815  1  0.26641300  0.53798700  0.60288300  1
  C  816  1  0.28735200  0.52788100  0.59015500  1
  C  819  1  0.35148900  0.52127600  0.57397900  1
  C  820  1  0.38036900  0.52862700  0.56251300  1
  C  821  1  0.40745200  0.51430200  0.55409100  1
  C  822  1  0.40717100  0.49147200  0.55800600  1
  C  823  1  0.37713500  0.48369200  0.56873600  1
  C  824  1  0.35076800  0.49836900  0.57651100  1
  C  833  1  0.37358500  0.46295600  0.57249400  1
  C  834  1  0.22986200  0.52809900  0.60861900  1
  C  835  1  0.33733300  0.58694000  0.60670200  1
  C  836  1  0.43546100  0.52305900  0.54301300  1
  C  841  1  0.57625200  0.78717800  0.43414600  1
  C  842  1  0.58830400  0.80813600  0.42880400  1
  C  843  1  0.56720200  0.81960600  0.41680700  1
  C  844  1  0.53221900  0.80957100  0.40947200  1
  C  845  1  0.51636300  0.78934400  0.41554200  1
  C  846  1  0.53911000  0.77886000  0.42766800  1
  C  849  1  0.60414800  0.77365400  0.44349500  1
  C  850  1  0.63027000  0.78096200  0.45588700  1
  C  851  1  0.66031500  0.76731700  0.46334200  1
  C  852  1  0.66636600  0.74567100  0.45728600  1
  C  853  1  0.63915200  0.73772200  0.44553200  1
  C  854  1  0.60936700  0.75159800  0.43890600  1
  C  863  1  0.64117600  0.71688200  0.43921100  1
  C  864  1  0.48111700  0.77847600  0.40943800  1
  C  865  1  0.58494400  0.83964100  0.41238900  1
  C  866  1  0.68476800  0.77569600  0.47571200  1
  C  871  1  0.69297400  0.78665600  0.83383900  1
  C  872  1  0.68096200  0.80763300  0.83914100  1
  C  873  1  0.70198800  0.81903900  0.85118000  1
  C  874  1  0.73688800  0.80896500  0.85853700  1
  C  875  1  0.75267000  0.78872000  0.85247100  1
  C  876  1  0.73001200  0.77825700  0.84032300  1
  C  879  1  0.66510600  0.77320600  0.82446700  1
  C  880  1  0.63937800  0.78064600  0.81201300  1
  C  881  1  0.60920100  0.76715500  0.80453100  1
  C  882  1  0.60263100  0.74554700  0.81057300  1
  C  883  1  0.62943500  0.73747900  0.82242600  1
  C  884  1  0.65939500  0.75120500  0.82910000  1
  C  893  1  0.62668400  0.71675000  0.82886100  1
  C  894  1  0.78783700  0.77783900  0.85857900  1
  C  895  1  0.68415700  0.83902000  0.85563900  1
  C  896  1  0.58498400  0.77578800  0.79222000  1
  C  901  1  0.57511400  0.48174100  0.83354900  1
  C  902  1  0.58837400  0.46079500  0.83850900  1
  C  903  1  0.56736100  0.44819900  0.84992900  1
  C  904  1  0.53102600  0.45691500  0.85713300  1
  C  905  1  0.51528400  0.47771300  0.85209200  1
  C  906  1  0.53763700  0.48915800  0.84030600  1
  C  909  1  0.60128900  0.49571500  0.82374200  1
  C  910  1  0.62912700  0.48831600  0.81193100  1
  C  911  1  0.65683000  0.50243900  0.80368500  1
  C  912  1  0.65795500  0.52513500  0.80793700  1
  C  913  1  0.62899800  0.53300400  0.81906500  1
  C  914  1  0.60217900  0.51849100  0.82678500  1
  C  923  1  0.62698000  0.55363400  0.82325800  1
  C  924  1  0.48035000  0.48825700  0.85870100  1
  C  925  1  0.58677200  0.42849100  0.85412400  1
  C  926  1  0.68415700  0.49345900  0.79249600  1
  C  931  1  0.69258900  0.48187000  0.43445700  1
  C  932  1  0.67843300  0.46165000  0.42838000  1
  C  933  1  0.69797300  0.45060700  0.41578700  1
  C  934  1  0.73286500  0.46062000  0.40840300  1
  C  935  1  0.75195500  0.47917000  0.41565200  1
  C  936  1  0.73106700  0.48912500  0.42845100  1
  C  939  1  0.66699300  0.49553200  0.44472800  1
  C  940  1  0.63787400  0.48800000  0.45604600  1
  C  941  1  0.61082800  0.50220200  0.46458400  1
  C  942  1  0.61148500  0.52513300  0.46099000  1
  C  943  1  0.64174800  0.53307700  0.45041700  1
  C  944  1  0.66800500  0.51849900  0.44249200  1
  C  953  1  0.64557500  0.55389800  0.44693300  1
  C  954  1  0.78844200  0.48914500  0.40993800  1
  C  955  1  0.68107200  0.43024400  0.41161700  1
  C  956  1  0.58256200  0.49327200  0.47548000  1
  C  961  1  0.72549600  0.26219900  0.99865200  1
  C  963  1  0.79297900  0.27256900  0.00735200  1
  C  964  1  0.79151500  0.25801300  0.02020200  1
  C  966  1  0.72369500  0.24750700  0.01155900  1
  C  968  1  0.68767600  0.23336100  0.01456900  1
  C  975  1  0.04529700  0.26305900  0.76901100  1
  C  977  1  0.97806600  0.27362400  0.76010000  1
  C  978  1  0.97900400  0.25854700  0.74754400  1
  C  980  1  0.04654800  0.24781700  0.75641400  1
  C  982  1  0.08207700  0.23320000  0.75371200  1
  C  989  1  0.72293700  0.50481300  0.76882100  1
  C  991  1  0.79368600  0.49846800  0.76210700  1
  C  992  1  0.79044500  0.51062700  0.74808600  1
  C  994  1  0.71935100  0.51708400  0.75473100  1
  C  996  1  0.68056700  0.52776100  0.74997800  1
  C  1003  1  0.04298900  0.50549200  0.99901400  1
  C  1005  1  0.97207000  0.49940800  0.00551400  1
  C  1006  1  0.97565000  0.51088100  0.01980900  1
  C  1008  1  0.04693600  0.51703500  0.01339200  1
  C  1010  1  0.08603000  0.52711400  0.01842900  1
  C  1017  1  0.29277000  0.75581000  0.01959600  1
  C  1019  1  0.22533800  0.74538600  0.01087100  1
  C  1020  1  0.22676300  0.75997500  0.99803900  1
  C  1022  1  0.29452500  0.77054000  0.00671000  1
  C  1024  1  0.33048800  0.78473900  0.00372900  1
  C  1031  1  0.97333900  0.75455800  0.24899600  1
  C  1033  1  0.04048500  0.74391500  0.25795400  1
  C  1034  1  0.03960800  0.75905100  0.27047500  1
  C  1036  1  0.97215600  0.76986300  0.26155300  1
  C  1038  1  0.93672000  0.78456300  0.26420700  1
  C  1045  1  0.29510900  0.51333500  0.24957300  1
  C  1047  1  0.22435100  0.51965100  0.25628500  1
  C  1048  1  0.22761300  0.50750900  0.27031200  1
  C  1050  1  0.29871900  0.50108100  0.26366900  1
  C  1052  1  0.33752300  0.49043300  0.26842900  1
  C  1059  1  0.54529500  0.76304600  0.76904200  1
  C  1061  1  0.47799300  0.77356300  0.76017500  1
  C  1062  1  0.47895900  0.75853200  0.74759300  1
  C  1064  1  0.54659200  0.74786700  0.75640900  1
  C  1066  1  0.58219200  0.73332100  0.75365400  1
  C  1073  1  0.22339200  0.00388900  0.76917700  1
  C  1075  1  0.29406000  0.99742900  0.76239100  1
  C  1076  1  0.29085200  0.00968000  0.74841100  1
  C  1078  1  0.21984800  0.01627200  0.75513500  1
  C  1080  1  0.18114000  0.02708700  0.75045200  1
  C  1087  1  0.54304200  0.00540000  0.99902200  1
  C  1089  1  0.47209200  0.99939800  0.00552200  1
  C  1090  1  0.47570000  0.01088700  0.01980900  1
  C  1092  1  0.54700100  0.01698300  0.01338300  1
  C  1094  1  0.58611800  0.02704500  0.01841100  1
  C  1101  1  0.47332400  0.25456500  0.24896400  1
  C  1103  1  0.54050700  0.24393000  0.25788500  1
  C  1104  1  0.53963600  0.25903200  0.27042600  1
  C  1106  1  0.47213200  0.26982600  0.26155000  1
  C  1108  1  0.43665600  0.28448200  0.26424400  1
  C  1115  1  0.79465800  0.01424400  0.24919900  1
  C  1117  1  0.72397400  0.02068600  0.25596200  1
  C  1118  1  0.72718100  0.00845400  0.26995300  1
  C  1120  1  0.79821700  0.00190600  0.26326000  1
  C  1122  1  0.83695100  0.99114300  0.26796800  1
  C  1129  1  0.72522400  0.76264600  0.49874400  1
  C  1131  1  0.79242300  0.77314500  0.50777900  1
  C  1132  1  0.79173200  0.75773900  0.52014000  1
  C  1134  1  0.72420900  0.74708700  0.51115200  1
  C  1136  1  0.68882300  0.73231700  0.51369600  1
  C  1143  1  0.04318600  0.00488200  0.49909500  1
  C  1145  1  0.97224500  0.99901000  0.50578600  1
  C  1146  1  0.97550100  0.01140200  0.51970900  1
  C  1148  1  0.04678200  0.01740000  0.51308000  1
  C  1150  1  0.08564500  0.02804900  0.51777000  1
  C  1157  1  0.29304400  0.25536500  0.51952700  1
  C  1159  1  0.22576600  0.24494900  0.51052000  1
  C  1160  1  0.22649300  0.26034300  0.49815200  1
  C  1162  1  0.29410100  0.27090600  0.50710800  1
  C  1164  1  0.32955200  0.28562200  0.50454200  1
  C  1171  1  0.54318600  0.50486900  0.49911500  1
  C  1173  1  0.47225700  0.49897700  0.50580800  1
  C  1174  1  0.47547300  0.51142900  0.51970700  1
  C  1176  1  0.54676000  0.51742100  0.51308600  1
  C  1178  1  0.58561000  0.52808900  0.51776800  1
  C  1185  1  0.89030300  0.34069500  0.07419700  1
  C  1187  1  0.89096900  0.37029200  0.09251300  1
  C  1188  1  0.89494700  0.38530200  0.08014600  1
  C  1190  1  0.89450100  0.35579300  0.06172100  1
  C  1192  1  0.89610300  0.34906600  0.04507000  1
  C  1199  1  0.87794800  0.34072500  0.69414900  1
  C  1201  1  0.87723200  0.37059000  0.67606000  1
  C  1202  1  0.87340500  0.38541700  0.68854600  1
  C  1204  1  0.87388500  0.35563800  0.70674400  1
  C  1206  1  0.87238900  0.34866100  0.72334500  1
  C  1213  1  0.12854000  0.67702700  0.94429700  1
  C  1215  1  0.12882700  0.64732700  0.92606100  1
  C  1216  1  0.12531600  0.63234700  0.93846700  1
  C  1218  1  0.12477900  0.66195700  0.95681100  1
  C  1220  1  0.12294700  0.66875600  0.97344400  1
  C  1227  1  0.14046500  0.67694500  0.32407700  1
  C  1229  1  0.14122500  0.64719900  0.34226600  1
  C  1230  1  0.14509200  0.63229300  0.32983000  1
  C  1232  1  0.14455500  0.66195200  0.31153200  1
  C  1234  1  0.14604000  0.66881900  0.29490800  1
  C  1241  1  0.38968500  0.83896800  0.07313500  1
  C  1243  1  0.38959700  0.86890100  0.09117600  1
  C  1244  1  0.39293500  0.88372000  0.07866400  1
  C  1246  1  0.39327800  0.85387400  0.06051500  1
  C  1248  1  0.39486200  0.84685900  0.04392300  1
  C  1255  1  0.37808900  0.84084600  0.69409800  1
  C  1257  1  0.37697600  0.87059200  0.67591300  1
  C  1258  1  0.37291200  0.88547800  0.68835200  1
  C  1260  1  0.37381700  0.85581900  0.70664600  1
  C  1262  1  0.37238700  0.84893900  0.72326800  1
  C  1269  1  0.62905900  0.17877900  0.94532900  1
  C  1271  1  0.62990300  0.14879600  0.92733100  1
  C  1272  1  0.62697700  0.13398400  0.93986400  1
  C  1274  1  0.62585800  0.16388100  0.95797000  1
  C  1276  1  0.62411500  0.17092900  0.97455400  1
  C  1283  1  0.64043000  0.17678700  0.32414200  1
  C  1285  1  0.64164100  0.14716300  0.34242800  1
  C  1286  1  0.64573700  0.13219800  0.33004000  1
  C  1288  1  0.64471600  0.16173200  0.31164500  1
  C  1290  1  0.64610400  0.16850400  0.29499900  1
  C  1297  1  0.88983800  0.83985800  0.57397700  1
  C  1299  1  0.88921100  0.86940500  0.59234400  1
  C  1300  1  0.89228700  0.88451700  0.57999900  1
  C  1302  1  0.89320100  0.85506100  0.56152700  1
  C  1304  1  0.89499300  0.84842000  0.54486100  1
  C  1311  1  0.87885000  0.83786800  0.19552200  1
  C  1313  1  0.88031400  0.86769500  0.17738900  1
  C  1314  1  0.87794800  0.88264900  0.18985600  1
  C  1316  1  0.87616500  0.85290900  0.20809500  1
  C  1318  1  0.87439500  0.84602300  0.22471200  1
  C  1325  1  0.12897000  0.17794200  0.44452800  1
  C  1327  1  0.13035400  0.14834700  0.42620300  1
  C  1328  1  0.12766600  0.13324500  0.43856800  1
  C  1330  1  0.12597700  0.16274700  0.45699700  1
  C  1332  1  0.12400700  0.16941900  0.47365500  1
  C  1339  1  0.13954200  0.17978800  0.82267200  1
  C  1341  1  0.13795700  0.15006000  0.84088500  1
  C  1342  1  0.14033700  0.13504000  0.82845800  1
  C  1344  1  0.14224000  0.16468000  0.81014100  1
  C  1346  1  0.14407300  0.17147600  0.79350600  1
  C  1353  1  0.38935800  0.33798500  0.57286400  1
  C  1355  1  0.38834600  0.36780300  0.59100600  1
  C  1356  1  0.39081100  0.38275100  0.57853800  1
  C  1358  1  0.39212200  0.35302000  0.56029000  1
  C  1360  1  0.39371500  0.34613500  0.54367100  1
  C  1367  1  0.37910100  0.33799800  0.19552600  1
  C  1369  1  0.38049200  0.36779700  0.17736800  1
  C  1370  1  0.37800000  0.38276400  0.18982200  1
  C  1372  1  0.37629400  0.35305600  0.20808400  1
  C  1374  1  0.37447800  0.34619400  0.22470600  1
  C  1381  1  0.62928200  0.67980400  0.44557800  1
  C  1383  1  0.63085400  0.64996700  0.42745700  1
  C  1384  1  0.62877200  0.63501900  0.43993300  1
  C  1386  1  0.62689500  0.66476700  0.45816200  1
  C  1388  1  0.62522500  0.67166100  0.47477900  1
  C  1395  1  0.63931400  0.67965500  0.82266400  1
  C  1397  1  0.63781900  0.64996000  0.84090500  1
  C  1398  1  0.64033200  0.63492200  0.82849500  1
  C  1400  1  0.64214200  0.66452700  0.81014900  1
  C  1402  1  0.64401600  0.67129800  0.79351000  1
  C  1409  1  0.16463000  0.23200600  0.14504400  1
  C  1411  1  0.11486700  0.21032900  0.13111400  1
  C  1412  1  0.09361600  0.22908800  0.12598200  1
  C  1414  1  0.14361600  0.25113300  0.13987900  1
  C  1416  1  0.15727500  0.27359900  0.14377800  1
  C  1423  1  0.60340500  0.23169300  0.62320700  1
  C  1425  1  0.65346700  0.21012100  0.63709900  1
  C  1426  1  0.67468800  0.22891100  0.64220700  1
  C  1428  1  0.62439100  0.25084800  0.62834500  1
  C  1430  1  0.61060200  0.27329100  0.62444300  1
  C  1437  1  0.16498300  0.53705500  0.62337100  1
  C  1439  1  0.11631800  0.55905200  0.63766300  1
  C  1440  1  0.09422200  0.54046600  0.64259900  1
  C  1442  1  0.14309700  0.51810600  0.62836000  1
  C  1444  1  0.15547400  0.49551400  0.62421400  1
  C  1451  1  0.60366100  0.53739100  0.14529400  1
  C  1453  1  0.65349700  0.55890000  0.13126800  1
  C  1454  1  0.67419600  0.54005600  0.12597200  1
  C  1456  1  0.62414000  0.51818500  0.13996800  1
  C  1458  1  0.61030800  0.49574800  0.14386800  1
  C  1465  1  0.85393500  0.78574800  0.87299900  1
  C  1467  1  0.90363300  0.80748000  0.88692000  1
  C  1468  1  0.92486400  0.78874100  0.89210300  1
  C  1470  1  0.87492700  0.76664200  0.87821500  1
  C  1472  1  0.86127600  0.74416200  0.87435100  1
  C  1479  1  0.41498900  0.78617400  0.39492000  1
  C  1481  1  0.36494800  0.80767700  0.38096200  1
  C  1482  1  0.34378800  0.78885900  0.37586800  1
  C  1484  1  0.39406400  0.76699100  0.38979700  1
  C  1486  1  0.40787100  0.74456900  0.39374500  1
  C  1493  1  0.85332700  0.48038300  0.39513500  1
  C  1495  1  0.90211400  0.45853700  0.38078500  1
  C  1496  1  0.92402900  0.47719100  0.37585800  1
  C  1498  1  0.87502800  0.49939700  0.39015600  1
  C  1500  1  0.86246800  0.52195000  0.39433100  1
  C  1507  1  0.41442300  0.48038700  0.87312700  1
  C  1509  1  0.36474900  0.45872700  0.88711900  1
  C  1510  1  0.34397100  0.47751200  0.89247700  1
  C  1512  1  0.39386800  0.49953400  0.87851800  1
  C  1514  1  0.40758000  0.52200900  0.87467400  1
  C  1521  1  0.66472100  0.73136900  0.14501000  1
  C  1523  1  0.61522500  0.70950000  0.13109900  1
  C  1524  1  0.59385600  0.72818100  0.12589400  1
  C  1526  1  0.64358500  0.75042000  0.13977400  1
  C  1528  1  0.65705600  0.77293700  0.14362100  1
  C  1535  1  0.10311300  0.73264700  0.62334000  1
  C  1537  1  0.15307100  0.71088900  0.63714100  1
  C  1538  1  0.17447200  0.72960300  0.64228100  1
  C  1540  1  0.12428900  0.75172700  0.62850600  1
  C  1542  1  0.11067600  0.77421800  0.62466100  1
  C  1549  1  0.66525600  0.03651800  0.62358300  1
  C  1551  1  0.61660000  0.05840800  0.63796400  1
  C  1552  1  0.59458100  0.03977900  0.64287200  1
  C  1554  1  0.64344700  0.01752800  0.62854100  1
  C  1556  1  0.65586400  0.99496800  0.62432600  1
  C  1563  1  0.10329800  0.03797800  0.14502000  1
  C  1565  1  0.15324200  0.05940600  0.13098600  1
  C  1566  1  0.17394400  0.04053100  0.12574800  1
  C  1568  1  0.12378000  0.01874000  0.13975100  1
  C  1570  1  0.10991200  0.99632600  0.14369200  1
  C  1577  1  0.35384000  0.28639500  0.87304200  1
  C  1579  1  0.40327600  0.30831800  0.88694300  1
  C  1580  1  0.42461900  0.28965600  0.89219900  1
  C  1582  1  0.37494900  0.26736700  0.87832800  1
  C  1584  1  0.36148400  0.24483600  0.87451700  1
  C  1591  1  0.91534300  0.28521700  0.39479300  1
  C  1593  1  0.86539700  0.30690400  0.38092600  1
  C  1594  1  0.84405300  0.28816300  0.37580400  1
  C  1596  1  0.89422200  0.26611000  0.38964300  1
  C  1598  1  0.90785200  0.24363700  0.39353700  1
  C  1605  1  0.35297500  0.98094400  0.39489700  1
  C  1607  1  0.40171300  0.95920500  0.38044100  1
  C  1608  1  0.42359200  0.97789500  0.37556100  1
  C  1610  1  0.37464000  0.99999600  0.38996600  1
  C  1612  1  0.36209200  0.02251700  0.39423200  1
  C  1619  1  0.91481400  0.97979600  0.87340500  1
  C  1621  1  0.86503000  0.95821700  0.88740400  1
  C  1622  1  0.84425200  0.97703200  0.89270600  1
  C  1624  1  0.89425300  0.99897400  0.87873800  1
  C  1626  1  0.90800500  0.02142900  0.87485600  1
  C  1633  1  0.91087300  0.15293800  0.12343900  1
  C  1635  1  0.94403700  0.11849100  0.12803900  1
  C  1636  1  0.91874900  0.11440500  0.14102600  1
  C  1638  1  0.88479900  0.14887500  0.13643800  1
  C  1640  1  0.85124100  0.16330200  0.14200900  1
  C  1647  1  0.85770800  0.15274200  0.64447000  1
  C  1649  1  0.82341000  0.11854000  0.64028900  1
  C  1650  1  0.85015900  0.11321300  0.62795500  1
  C  1652  1  0.88495800  0.14759600  0.63202800  1
  C  1654  1  0.91978900  0.16128900  0.62666500  1
  C  1661  1  0.90974500  0.61532000  0.64457200  1
  C  1663  1  0.94474600  0.64936000  0.64044700  1
  C  1664  1  0.91925300  0.65440000  0.62768200  1
  C  1666  1  0.88355500  0.62030300  0.63176800  1
  C  1668  1  0.84902800  0.60663000  0.62610500  1
  C  1675  1  0.85866500  0.61426500  0.12372100  1
  C  1677  1  0.82319600  0.64815600  0.12781000  1
  C  1678  1  0.84867900  0.65332000  0.14055000  1
  C  1680  1  0.88485500  0.61937500  0.13649600  1
  C  1682  1  0.91962000  0.60586300  0.14213800  1
  C  1689  1  0.10743700  0.86505400  0.89485300  1
  C  1691  1  0.07425200  0.89950200  0.89029000  1
  C  1692  1  0.09955100  0.90362300  0.87731200  1
  C  1694  1  0.13353600  0.86915600  0.88186800  1
  C  1696  1  0.16712500  0.85475600  0.87629100  1
  C  1703  1  0.16062600  0.86478300  0.37362000  1
  C  1705  1  0.19473300  0.89902800  0.37784300  1
  C  1706  1  0.16812200  0.90421400  0.39025000  1
  C  1708  1  0.13350800  0.86978900  0.38613400  1
  C  1710  1  0.09886400  0.85598600  0.39152700  1
  C  1717  1  0.10851800  0.40260700  0.37367800  1
  C  1719  1  0.07376400  0.36848500  0.37777800  1
  C  1720  1  0.09912100  0.36354800  0.39060000  1
  C  1722  1  0.13457800  0.39772500  0.38653900  1
  C  1724  1  0.16890400  0.41150100  0.39225200  1
  C  1731  1  0.15972600  0.40308700  0.89450600  1
  C  1733  1  0.19522400  0.36923700  0.89028800  1
  C  1734  1  0.16974400  0.36416800  0.87752900  1
  C  1736  1  0.13352600  0.39806400  0.88171700  1
  C  1738  1  0.09873800  0.41160700  0.87613200  1
  C  1745  1  0.41138100  0.65172600  0.12349400  1
  C  1747  1  0.44439800  0.61729400  0.12829300  1
  C  1748  1  0.41902100  0.61337000  0.14127800  1
  C  1750  1  0.38520600  0.64782000  0.13648800  1
  C  1752  1  0.35166300  0.66233200  0.14195500  1
  C  1759  1  0.35734400  0.65307600  0.64439900  1
  C  1761  1  0.32300000  0.61890700  0.64014200  1
  C  1762  1  0.34992100  0.61355000  0.62786700  1
  C  1764  1  0.38475700  0.64790900  0.63201500  1
  C  1766  1  0.41971200  0.66156800  0.62673100  1
  C  1773  1  0.41010600  0.11432600  0.64488000  1
  C  1775  1  0.44497600  0.14838800  0.64068700  1
  C  1776  1  0.41965100  0.15327400  0.62784600  1
  C  1778  1  0.38407500  0.11915800  0.63200000  1
  C  1780  1  0.34971000  0.10538100  0.62632400  1
  C  1787  1  0.35853000  0.11456700  0.12363500  1
  C  1789  1  0.32298200  0.14843600  0.12772800  1
  C  1790  1  0.34844100  0.15360900  0.14047500  1
  C  1792  1  0.38468000  0.11968400  0.13642000  1
  C  1794  1  0.41945500  0.10618300  0.14207200  1
  C  1801  1  0.60692100  0.36627800  0.89480600  1
  C  1803  1  0.57388200  0.40071300  0.89004400  1
  C  1804  1  0.59926800  0.40467200  0.87706700  1
  C  1806  1  0.63311300  0.37022300  0.88182500  1
  C  1808  1  0.66666667  0.35573600  0.87635000  1
  C  1815  1  0.66097900  0.36442300  0.37370100  1
  C  1817  1  0.69514500  0.39863100  0.37800300  1
  C  1818  1  0.66835600  0.40384700  0.39034900  1
  C  1820  1  0.63368500  0.36945600  0.38615100  1
  C  1822  1  0.59889800  0.35569200  0.39146000  1
  C  1829  1  0.60827800  0.90365400  0.37343500  1
  C  1831  1  0.57348800  0.86955800  0.37757500  1
  C  1832  1  0.59871800  0.86469300  0.39044700  1
  C  1834  1  0.63422000  0.89884200  0.38634400  1
  C  1836  1  0.66848500  0.91265200  0.39206800  1
  C  1843  1  0.65989600  0.90277700  0.89459400  1
  C  1845  1  0.69546900  0.86895000  0.89036700  1
  C  1846  1  0.67000400  0.86387100  0.87760500  1
  C  1848  1  0.63372500  0.89774900  0.88179800  1
  C  1850  1  0.59892500  0.91127900  0.87620700  1
  N  8  1  0.99442000  0.19364000  0.12042000  1
  N  15  1  0.81880500  0.28899900  0.05681700  1
  N  38  1  0.77432000  0.19365600  0.64762800  1
  N  45  1  0.95033200  0.28918100  0.71093000  1
  N  68  1  0.99284800  0.57507000  0.64771600  1
  N  75  1  0.83103200  0.47585200  0.71540700  1
  N  98  1  0.77590700  0.57380200  0.12095300  1
  N  105  1  0.93587000  0.47539800  0.05220000  1
  N  128  1  0.02395200  0.82427900  0.89777000  1
  N  135  1  0.19929300  0.72888600  0.96148400  1
  N  158  1  0.24414500  0.82404300  0.37039400  1
  N  165  1  0.06816200  0.72848600  0.30714000  1
  N  188  1  0.02536900  0.44268200  0.37057900  1
  N  195  1  0.18680200  0.54227300  0.30298400  1
  N  218  1  0.24237000  0.44365700  0.89736500  1
  N  225  1  0.08262700  0.54123600  0.96687700  1
  N  248  1  0.49489400  0.69253300  0.12042600  1
  N  255  1  0.31913300  0.78688300  0.05612400  1
  N  278  1  0.27394600  0.69411100  0.64761000  1
  N  285  1  0.45054900  0.78922500  0.71099200  1
  N  308  1  0.49327400  0.07434800  0.64810900  1
  N  315  1  0.33161600  0.97494100  0.71574100  1
  N  338  1  0.27576600  0.07415700  0.12080200  1
  N  345  1  0.43604800  0.97556700  0.05230900  1
  N  368  1  0.52346900  0.32539500  0.89777300  1
  N  375  1  0.69894900  0.23101300  0.96219600  1
  N  398  1  0.74453800  0.32357700  0.37042400  1
  N  405  1  0.56800300  0.22839000  0.30711100  1
  N  428  1  0.52505800  0.94353700  0.37026800  1
  N  435  1  0.68596400  0.04326200  0.30259100  1
  N  458  1  0.74253800  0.94329900  0.89751800  1
  N  465  1  0.58242500  0.04101000  0.96678900  1
  N  488  1  0.00331100  0.70026900  0.62168800  1
  N  495  1  0.81929800  0.78739000  0.55705300  1
  N  518  1  0.76485700  0.69960500  0.14622500  1
  N  525  1  0.94777000  0.78477300  0.21228400  1
  N  548  1  0.00546000  0.07267400  0.14880900  1
  N  555  1  0.83006600  0.98004100  0.21590500  1
  N  578  1  0.77145200  0.06365400  0.62428100  1
  N  585  1  0.93593800  0.97712300  0.55217000  1
  N  608  1  0.01499100  0.31777500  0.39659900  1
  N  615  1  0.19881900  0.23057200  0.46132500  1
  N  638  1  0.25400100  0.31835000  0.87160300  1
  N  645  1  0.07078800  0.23287400  0.80575100  1
  N  668  1  0.01279200  0.94531800  0.86958900  1
  N  675  1  0.18774600  0.03812100  0.80244900  1
  N  698  1  0.24674300  0.95382900  0.39407400  1
  N  705  1  0.08268400  0.03943500  0.46695000  1
  N  728  1  0.50343600  0.19944000  0.62186300  1
  N  735  1  0.31967400  0.28510300  0.55628100  1
  N  758  1  0.26464700  0.19998700  0.14618700  1
  N  765  1  0.44801200  0.28481100  0.21231000  1
  N  788  1  0.50605000  0.57224400  0.14939400  1
  N  795  1  0.33081500  0.47905900  0.21627500  1
  N  818  1  0.27140500  0.56392200  0.62420400  1
  N  825  1  0.43591000  0.47724800  0.55225200  1
  N  848  1  0.51483700  0.81857700  0.39638700  1
  N  855  1  0.69839200  0.73281500  0.46201300  1
  N  878  1  0.75419300  0.81793200  0.87164900  1
  N  885  1  0.57055300  0.73282900  0.80571300  1
  N  908  1  0.51218400  0.44575400  0.86901000  1
  N  915  1  0.68695700  0.53911400  0.80208100  1
  N  938  1  0.74687100  0.45348400  0.39418600  1
  N  945  1  0.58290500  0.53932400  0.46690500  1
  N  962  1  0.76072400  0.27401200  0.99724100  1
  N  965  1  0.75629700  0.24622100  0.02160300  1
  N  973  1  0.69446600  0.26340100  0.98817800  1
  N  974  1  0.82298500  0.25712600  0.03046600  1
  N  976  1  0.01040800  0.27521500  0.77017000  1
  N  979  1  0.01387200  0.24639900  0.74640200  1
  N  987  1  0.07647200  0.26443500  0.77944200  1
  N  988  1  0.94740000  0.25751900  0.73731200  1
  N  990  1  0.76063500  0.49615300  0.77176000  1
  N  993  1  0.75276800  0.51927300  0.74516000  1
  N  1001  1  0.69095000  0.50287500  0.77884400  1
  N  1002  1  0.82292100  0.51231300  0.73830600  1
  N  1004  1  0.00508400  0.49727800  0.99583500  1
  N  1007  1  0.01355000  0.51905800  0.02298000  1
  N  1015  1  0.07491800  0.50373500  0.98898100  1
  N  1016  1  0.94325400  0.51240600  0.02960500  1
  N  1018  1  0.25758700  0.74395400  0.02098500  1
  N  1021  1  0.26193400  0.77181300  0.99666100  1
  N  1029  1  0.32379200  0.75460800  0.03007400  1
  N  1030  1  0.19529800  0.76084700  0.98777300  1
  N  1032  1  0.00815400  0.74233600  0.24787600  1
  N  1035  1  0.00481500  0.77126700  0.27157500  1
  N  1043  1  0.94217500  0.75318500  0.23856000  1
  N  1044  1  0.07119700  0.76006700  0.28071400  1
  N  1046  1  0.25739600  0.52197300  0.24663000  1
  N  1049  1  0.26530800  0.49888500  0.27324100  1
  N  1057  1  0.32708500  0.51527300  0.23954500  1
  N  1058  1  0.19514000  0.50581100  0.28009200  1
  N  1060  1  0.51036100  0.77515700  0.77023400  1
  N  1063  1  0.51389300  0.74644500  0.74640600  1
  N  1071  1  0.57651800  0.76446300  0.77945300  1
  N  1072  1  0.44734200  0.75752400  0.73736700  1
  N  1074  1  0.26103300  0.99512000  0.77205700  1
  N  1077  1  0.25323800  0.01844900  0.74554800  1
  N  1085  1  0.19142500  0.00192900  0.77921000  1
  N  1086  1  0.32331800  0.01138000  0.73862700  1
  N  1088  1  0.50510600  0.99721700  0.99585000  1
  N  1091  1  0.51361400  0.01905400  0.02296800  1
  N  1099  1  0.57498000  0.00358300  0.98899500  1
  N  1100  1  0.44328500  0.01246900  0.02959500  1
  N  1102  1  0.50815700  0.24236200  0.24781800  1
  N  1105  1  0.50480900  0.27121400  0.27156500  1
  N  1113  1  0.44212600  0.25317300  0.23854100  1
  N  1114  1  0.57119500  0.25997100  0.28067900  1
  N  1116  1  0.75700900  0.02299300  0.24630300  1
  N  1119  1  0.76481800  0.99973100  0.27284100  1
  N  1127  1  0.82663500  0.01621700  0.23917100  1
  N  1128  1  0.69471700  0.00679400  0.27973700  1
  N  1130  1  0.76001700  0.77491300  0.49773900  1
  N  1133  1  0.75695400  0.74549000  0.52113200  1
  N  1141  1  0.69395000  0.76417800  0.48833600  1
  N  1142  1  0.82343100  0.75654700  0.53035000  1
  N  1144  1  0.00535900  0.99635000  0.49619600  1
  N  1147  1  0.01330100  0.01992900  0.52258800  1
  N  1155  1  0.07533300  0.00257800  0.48915500  1
  N  1156  1  0.94289000  0.01344000  0.52942000  1
  N  1158  1  0.25819300  0.24314700  0.52054800  1
  N  1161  1  0.26133900  0.27253600  0.49713800  1
  N  1169  1  0.32435800  0.25377200  0.52991700  1
  N  1170  1  0.19476800  0.26156300  0.48795200  1
  N  1172  1  0.50538100  0.49630700  0.49622600  1
  N  1175  1  0.51326600  0.51996700  0.52258400  1
  N  1183  1  0.57534400  0.50256200  0.48918200  1
  N  1184  1  0.44286000  0.51346900  0.52941700  1
  N  1186  1  0.88885700  0.34865000  0.08906800  1
  N  1189  1  0.89651200  0.37749600  0.06531100  1
  N  1197  1  0.88859400  0.31937700  0.07145600  1
  N  1198  1  0.89724600  0.40541500  0.08255000  1
  N  1200  1  0.87930800  0.34889600  0.67933700  1
  N  1203  1  0.87192200  0.37739300  0.70332200  1
  N  1211  1  0.87967200  0.31937200  0.69673400  1
  N  1212  1  0.87119100  0.40557100  0.68630400  1
  N  1214  1  0.13025900  0.66900500  0.92944700  1
  N  1217  1  0.12347000  0.64021900  0.95328000  1
  N  1225  1  0.12962000  0.69836800  0.94699000  1
  N  1226  1  0.12374300  0.61219500  0.93612100  1
  N  1228  1  0.13911300  0.66887100  0.33891600  1
  N  1231  1  0.14656500  0.64021900  0.31502700  1
  N  1239  1  0.13871200  0.69827900  0.32142200  1
  N  1240  1  0.14738100  0.61215800  0.33214300  1
  N  1242  1  0.38813800  0.84717800  0.08793500  1
  N  1245  1  0.39460200  0.87565600  0.06390200  1
  N  1253  1  0.38854500  0.81759300  0.07058800  1
  N  1254  1  0.39447600  0.90390600  0.08086600  1
  N  1256  1  0.37934200  0.84892800  0.67926000  1
  N  1259  1  0.37153400  0.87754500  0.70315300  1
  N  1267  1  0.38003300  0.81951600  0.69674600  1
  N  1268  1  0.37032600  0.90560000  0.68603600  1
  N  1270  1  0.63080200  0.17053800  0.93054200  1
  N  1273  1  0.62510900  0.14208100  0.95461400  1
  N  1281  1  0.62966500  0.20016700  0.94785500  1
  N  1282  1  0.62603200  0.11377500  0.93769600  1
  N  1284  1  0.63921300  0.16880300  0.33900800  1
  N  1287  1  0.64707000  0.14003400  0.31521000  1
  N  1295  1  0.63843300  0.19809800  0.32142600  1
  N  1296  1  0.64842800  0.11209700  0.33242600  1
  N  1298  1  0.88813500  0.84774700  0.58886300  1
  N  1301  1  0.89412800  0.87677500  0.56515200  1
  N  1309  1  0.88904900  0.81852800  0.57118200  1
  N  1310  1  0.89341200  0.90466800  0.58242100  1
  N  1312  1  0.88066300  0.84597200  0.18069600  1
  N  1315  1  0.87600000  0.87468400  0.20464300  1
  N  1323  1  0.87897200  0.81649200  0.19815600  1
  N  1324  1  0.87766000  0.90286100  0.18761300  1
  N  1326  1  0.13088000  0.17002300  0.42965400  1
  N  1329  1  0.12561500  0.14101900  0.45340400  1
  N  1337  1  0.12923100  0.19927900  0.44730400  1
  N  1338  1  0.12711500  0.11307300  0.43618100  1
  N  1340  1  0.13766000  0.17176500  0.83751900  1
  N  1343  1  0.14234900  0.14292400  0.81365200  1
  N  1351  1  0.13946000  0.20115200  0.81998200  1
  N  1352  1  0.14057700  0.11484100  0.83075800  1
  N  1354  1  0.38773500  0.34608600  0.58769400  1
  N  1357  1  0.39256900  0.37479100  0.56374700  1
  N  1365  1  0.38899400  0.31661200  0.57023100  1
  N  1366  1  0.39140700  0.40295300  0.58079300  1
  N  1368  1  0.38093200  0.34608100  0.18069300  1
  N  1371  1  0.37603400  0.37482400  0.20461400  1
  N  1379  1  0.37929300  0.31662800  0.19817400  1
  N  1380  1  0.37760300  0.40296800  0.18755800  1
  N  1382  1  0.63101300  0.67169200  0.43075300  1
  N  1385  1  0.62690700  0.64298800  0.45472000  1
  N  1393  1  0.62919400  0.70117900  0.44820700  1
  N  1394  1  0.62864000  0.61480700  0.43769500  1
  N  1396  1  0.63741800  0.67165800  0.83751900  1
  N  1399  1  0.64235900  0.64277900  0.81368100  1
  N  1407  1  0.63915200  0.70101100  0.81995600  1
  N  1408  1  0.64070200  0.61473300  0.83081700  1
  N  1410  1  0.14878500  0.21256900  0.14016300  1
  N  1413  1  0.10918300  0.24871600  0.13080700  1
  N  1421  1  0.20013400  0.23003500  0.15290900  1
  N  1422  1  0.05910100  0.22602500  0.11770200  1
  N  1424  1  0.61944400  0.21229500  0.62808800  1
  N  1427  1  0.65892400  0.24849700  0.63738200  1
  N  1435  1  0.56783500  0.22968100  0.61534600  1
  N  1436  1  0.70936500  0.22591900  0.65044000  1
  N  1438  1  0.15010300  0.55657200  0.62855400  1
  N  1441  1  0.10885800  0.52077800  0.63749400  1
  N  1449  1  0.20068200  0.53867500  0.61554800  1
  N  1450  1  0.05967900  0.54365600  0.65086600  1
  N  1452  1  0.61978600  0.55677800  0.14044200  1
  N  1455  1  0.65838900  0.52048500  0.13079100  1
  N  1463  1  0.56848900  0.53954500  0.15334700  1
  N  1464  1  0.70870500  0.54293000  0.11766700  1
  N  1466  1  0.86975700  0.80520400  0.87785400  1
  N  1469  1  0.90931700  0.76909300  0.88730600  1
  N  1477  1  0.81845700  0.78768500  0.86511400  1
  N  1478  1  0.95932700  0.79183600  0.90040800  1
  N  1480  1  0.39893400  0.80554800  0.38999900  1
  N  1483  1  0.35956400  0.76929600  0.38073600  1
  N  1491  1  0.45050600  0.78823500  0.40280900  1
  N  1492  1  0.30912900  0.79180800  0.36761800  1
  N  1494  1  0.86834800  0.46091400  0.38991700  1
  N  1497  1  0.90925300  0.49682900  0.38099600  1
  N  1505  1  0.81766200  0.47865400  0.40296800  1
  N  1506  1  0.95856300  0.47409600  0.36756800  1
  N  1508  1  0.39842000  0.46094900  0.87793600  1
  N  1511  1  0.35965900  0.49713200  0.88770500  1
  N  1519  1  0.44960100  0.47833300  0.86506500  1
  N  1520  1  0.30949600  0.47454100  0.90078400  1
  N  1522  1  0.64907000  0.71186900  0.14017000  1
  N  1525  1  0.60923200  0.74787400  0.13067700  1
  N  1533  1  0.70021100  0.72953000  0.15289600  1
  N  1534  1  0.55942100  0.72498900  0.11759400  1
  N  1536  1  0.11901900  0.71318800  0.62816100  1
  N  1539  1  0.15884700  0.74925000  0.63751200  1
  N  1547  1  0.06749800  0.73075300  0.61549300  1
  N  1548  1  0.20915100  0.72649200  0.65049000  1
  N  1550  1  0.65034200  0.05599700  0.62882300  1
  N  1553  1  0.60924400  0.02012900  0.63770700  1
  N  1561  1  0.70089600  0.03821000  0.61572800  1
  N  1562  1  0.56005700  0.04291100  0.65116200  1
  N  1564  1  0.11947700  0.05733800  0.14013700  1
  N  1567  1  0.15808600  0.02098800  0.13059800  1
  N  1575  1  0.06808500  0.04018200  0.15304200  1
  N  1576  1  0.20851200  0.04335000  0.11747100  1
  N  1578  1  0.36947000  0.30591600  0.87785500  1
  N  1581  1  0.40926200  0.26994500  0.88744500  1
  N  1589  1  0.31837400  0.28820300  0.86513600  1
  N  1590  1  0.45900300  0.29287900  0.90052500  1
  N  1592  1  0.89941400  0.30465300  0.38993200  1
  N  1595  1  0.85969500  0.26854000  0.38061400  1
  N  1603  1  0.95090700  0.28715600  0.40266900  1
  N  1604  1  0.80938500  0.29123000  0.36757700  1
  N  1606  1  0.36798700  0.96151400  0.38960500  1
  N  1609  1  0.40882500  0.99749600  0.38077600  1
  N  1617  1  0.31736200  0.97915500  0.40276000  1
  N  1618  1  0.45811600  0.97485700  0.36725300  1
  N  1620  1  0.89875700  0.96038500  0.87824300  1
  N  1623  1  0.85999200  0.99662600  0.88790300  1
  N  1631  1  0.95002900  0.97769300  0.86537100  1
  N  1632  1  0.80971900  0.97411500  0.90098800  1
  N  1634  1  0.93931600  0.13738700  0.11997100  1
  N  1637  1  0.88986900  0.12969100  0.14446600  1
  N  1645  1  0.90957400  0.17136500  0.11499500  1
  N  1646  1  0.92321900  0.09452100  0.14925100  1
  N  1648  1  0.82812100  0.13780900  0.64786900  1
  N  1651  1  0.88014600  0.12791300  0.62459000  1
  N  1659  1  0.85919400  0.17143200  0.65262100  1
  N  1660  1  0.84727900  0.09235200  0.62087800  1
  N  1662  1  0.93917200  0.63026600  0.64818200  1
  N  1665  1  0.88934300  0.63974900  0.62412900  1
  N  1673  1  0.90769600  0.59663500  0.65272900  1
  N  1674  1  0.92382100  0.67483700  0.62016500  1
  N  1676  1  0.82899900  0.62906800  0.12010600  1
  N  1679  1  0.87881900  0.63881200  0.14411500  1
  N  1687  1  0.86084800  0.59556700  0.11560700  1
  N  1688  1  0.84378400  0.67371400  0.14806700  1
  N  1690  1  0.07897600  0.88058800  0.89833400  1
  N  1693  1  0.12845200  0.88835600  0.87386000  1
  N  1701  1  0.10873300  0.84660500  0.90327300  1
  N  1702  1  0.09505400  0.92351500  0.86910000  1
  N  1704  1  0.19005700  0.87980000  0.37020800  1
  N  1707  1  0.13829000  0.88943000  0.39363000  1
  N  1715  1  0.15918100  0.84613600  0.36542200  1
  N  1716  1  0.17100800  0.92501600  0.39740800  1
  N  1718  1  0.07927700  0.38757400  0.37003000  1
  N  1721  1  0.12885400  0.37828400  0.39419500  1
  N  1729  1  0.11050100  0.42127700  0.36549900  1
  N  1730  1  0.09458900  0.34313200  0.39814600  1
  N  1732  1  0.18940900  0.38826600  0.89806300  1
  N  1735  1  0.13958400  0.37869100  0.87402100  1
  N  1743  1  0.15753400  0.42172300  0.90268800  1
  N  1744  1  0.17470000  0.34385100  0.86991900  1
  N  1746  1  0.43979300  0.63611500  0.12012800  1
  N  1749  1  0.39017500  0.62871400  0.14461900  1
  N  1757  1  0.41017900  0.67006500  0.11495800  1
  N  1758  1  0.42340900  0.59358600  0.14962300  1
  N  1760  1  0.32765700  0.63817000  0.64773400  1
  N  1763  1  0.38000300  0.62822600  0.62456900  1
  N  1771  1  0.35879600  0.67175300  0.65256700  1
  N  1772  1  0.34714500  0.59267500  0.62080300  1
  N  1774  1  0.43939300  0.12935000  0.64849000  1
  N  1777  1  0.38986900  0.13854900  0.62428900  1
  N  1785  1  0.40807000  0.09570600  0.65311300  1
  N  1786  1  0.42424000  0.17364900  0.62025000  1
  N  1788  1  0.32884000  0.12935600  0.12001800  1
  N  1791  1  0.37860200  0.13911500  0.14404100  1
  N  1799  1  0.36076200  0.09587100  0.11551600  1
  N  1800  1  0.34351500  0.17400500  0.14798800  1
  N  1802  1  0.57849300  0.38187400  0.89818700  1
  N  1805  1  0.62813300  0.38934200  0.87371400  1
  N  1813  1  0.60811600  0.34791600  0.90331800  1
  N  1814  1  0.59485000  0.42446200  0.86873400  1
  N  1816  1  0.69051900  0.37940700  0.37035800  1
  N  1819  1  0.63841500  0.38909500  0.39365800  1
  N  1827  1  0.65957200  0.34578700  0.36548600  1
  N  1828  1  0.67115700  0.42466100  0.39749900  1
  N  1830  1  0.57907400  0.88860300  0.36978500  1
  N  1833  1  0.62842000  0.87944400  0.39404600  1
  N  1841  1  0.61029600  0.92228600  0.36521600  1
  N  1842  1  0.59409800  0.84432200  0.39804100  1
  N  1844  1  0.68960500  0.88797100  0.89815000  1
  N  1847  1  0.63982100  0.87837900  0.87409800  1
  N  1855  1  0.65765500  0.92141100  0.90278200  1
  N  1856  1  0.67498200  0.84354900  0.87000100  1
  O  969  1  0.65117700  0.24585900  0.01704800  1
  O  983  1  0.11900200  0.24522000  0.75097000  1
  O  997  1  0.64806400  0.51228500  0.74798200  1
  O  1011  1  0.11800500  0.51124400  0.02007600  1
  O  1025  1  0.36704500  0.77229600  0.00124100  1
  O  1039  1  0.89970400  0.77262900  0.26696200  1
  O  1053  1  0.36999600  0.50593100  0.27041600  1
  O  1067  1  0.61903700  0.74541300  0.75091200  1
  O  1081  1  0.14848600  0.01171100  0.74841600  1
  O  1095  1  0.61804300  0.01115400  0.02008900  1
  O  1109  1  0.39969200  0.27250500  0.26700200  1
  O  1123  1  0.86955200  0.00655600  0.26999000  1
  O  1137  1  0.65180900  0.74417700  0.51661700  1
  O  1151  1  0.11797900  0.01252000  0.51995300  1
  O  1165  1  0.36649800  0.27370900  0.50160800  1
  O  1179  1  0.61795500  0.51257300  0.51997000  1
  O  1193  1  0.93030900  0.33514400  0.04181100  1
  O  1207  1  0.83817400  0.33471500  0.72653500  1
  O  1221  1  0.08834500  0.68241400  0.97665800  1
  O  1235  1  0.18023600  0.68275800  0.29167100  1
  O  1249  1  0.42939500  0.83314500  0.04072500  1
  O  1263  1  0.33833000  0.83489800  0.72649500  1
  O  1277  1  0.58926400  0.18441700  0.97773600  1
  O  1291  1  0.68012100  0.18254700  0.29171700  1
  O  1305  1  0.92981400  0.83497300  0.54154000  1
  O  1319  1  0.83922900  0.83282000  0.22800000  1
  O  1333  1  0.08887300  0.18264100  0.47695400  1
  O  1347  1  0.17927200  0.18464500  0.79019800  1
  O  1361  1  0.42873200  0.33283600  0.54034700  1
  O  1375  1  0.33935700  0.33295200  0.22798100  1
  O  1389  1  0.58995800  0.68476100  0.47811800  1
  O  1403  1  0.67916400  0.68450700  0.79021200  1
  O  1417  1  0.15724300  0.27755300  0.16027900  1
  O  1431  1  0.61063500  0.27724100  0.60794300  1
  O  1445  1  0.15450200  0.49181100  0.60768800  1
  O  1459  1  0.61055000  0.49175000  0.16036400  1
  O  1473  1  0.86137100  0.74014700  0.85785800  1
  O  1487  1  0.40777900  0.74067300  0.41025400  1
  O  1501  1  0.86348900  0.52562500  0.41085900  1
  O  1515  1  0.40723200  0.52610300  0.85819100  1
  O  1529  1  0.65687900  0.77698400  0.16011000  1
  O  1543  1  0.11061400  0.77822700  0.60816700  1
  O  1557  1  0.65484200  0.99135300  0.60779100  1
  O  1571  1  0.11004900  0.99240300  0.16019700  1
  O  1585  1  0.36172200  0.24072900  0.85803500  1
  O  1599  1  0.90785500  0.23968700  0.41003800  1
  O  1613  1  0.36320200  0.02607800  0.41077300  1
  O  1627  1  0.90775800  0.02544800  0.85836200  1
  O  1641  1  0.84778000  0.18440100  0.13480000  1
  O  1655  1  0.92300500  0.18282400  0.63320400  1
  O  1669  1  0.84483000  0.58528200  0.63286900  1
  O  1683  1  0.92411500  0.58453000  0.13537900  1
  O  1697  1  0.17062100  0.83364800  0.88348200  1
  O  1711  1  0.09570300  0.83448800  0.38491900  1
  O  1725  1  0.17301000  0.43284000  0.38546700  1
  O  1739  1  0.09421400  0.43288400  0.88297800  1
  O  1753  1  0.34830900  0.68336100  0.13463800  1
  O  1767  1  0.42289200  0.68310300  0.63327500  1
  O  1781  1  0.34552100  0.08408800  0.63317600  1
  O  1795  1  0.42398000  0.08485000  0.13531500  1
  O  1809  1  0.67007400  0.33469800  0.88365300  1
  O  1823  1  0.59575800  0.33420000  0.38484300  1
  O  1837  1  0.67266100  0.93395000  0.38522300  1
  O  1851  1  0.59437300  0.93255600  0.88305000  1
