# generated using pymatgen
data_H25(C10N)4
_symmetry_space_group_name_H-M   'P 1'
_cell_length_a   48.30540000
_cell_length_b   48.30540000
_cell_length_c   48.30540000
_cell_angle_alpha   90.00000000
_cell_angle_beta   90.00000000
_cell_angle_gamma   90.00000000
_symmetry_Int_Tables_number   1
_chemical_formula_structural   H25(C10N)4
_chemical_formula_sum   'H300 C480 N48'
_cell_volume   112716.38404344
_cell_formula_units_Z   12
loop_
 _symmetry_equiv_pos_site_id
 _symmetry_equiv_pos_as_xyz
  1  'x, y, z'
loop_
 _atom_site_type_symbol
 _atom_site_label
 _atom_site_symmetry_multiplicity
 _atom_site_fract_x
 _atom_site_fract_y
 _atom_site_fract_z
 _atom_site_occupancy
  H  19  1  0.20081000  0.17698700  0.33044400  1
  H  20  1  0.20600000  0.21079800  0.29518000  1
  H  21  1  0.28740900  0.17640300  0.34276500  1
  H  22  1  0.24452600  0.33095500  0.23948500  1
  H  23  1  0.18006600  0.27690700  0.26340500  1
  H  24  1  0.14766200  0.31391100  0.25964600  1
  H  25  1  0.21200100  0.36764000  0.23483100  1
  H  26  1  0.30839800  0.29081900  0.21077600  1
  H  27  1  0.32464700  0.19953500  0.17246900  1
  H  28  1  0.29009400  0.20543800  0.20689000  1
  H  29  1  0.34271300  0.28506600  0.17580000  1
  H  36  1  0.21966700  0.26030400  0.29044400  1
  H  37  1  0.25658000  0.28743200  0.21657400  1
  H  38  1  0.28655400  0.21641300  0.25661700  1
  H  39  1  0.29251000  0.21079000  0.30770900  1
  H  43  1  0.36360100  0.21778900  0.14704500  1
  H  44  1  0.16121100  0.37887100  0.22727100  1
  H  45  1  0.22068800  0.15194200  0.36925300  1
  H  64  1  0.80511500  0.82867000  0.33023200  1
  H  65  1  0.79984300  0.79486400  0.29497700  1
  H  66  1  0.71852900  0.82938000  0.34263300  1
  H  67  1  0.76113700  0.67476700  0.23926500  1
  H  68  1  0.82566000  0.72871600  0.26323800  1
  H  69  1  0.85801200  0.69166800  0.25948500  1
  H  70  1  0.79361100  0.63804100  0.23460900  1
  H  71  1  0.69728700  0.71499700  0.21060400  1
  H  72  1  0.68118100  0.80632400  0.17234200  1
  H  73  1  0.71571700  0.80035200  0.20676400  1
  H  74  1  0.66298800  0.72081800  0.17562500  1
  H  81  1  0.78609700  0.74537500  0.29026200  1
  H  82  1  0.74910900  0.71830900  0.21640900  1
  H  83  1  0.71925300  0.78936100  0.25648500  1
  H  84  1  0.71334700  0.79499600  0.30758500  1
  H  88  1  0.64238800  0.78816100  0.14670400  1
  H  89  1  0.84441700  0.62675600  0.22706200  1
  H  90  1  0.78534700  0.85385900  0.36895500  1
  H  109  1  0.80508200  0.17685900  0.67537800  1
  H  110  1  0.79981200  0.21065600  0.71063900  1
  H  111  1  0.71850600  0.17622700  0.66290800  1
  H  112  1  0.76115700  0.33076200  0.76635400  1
  H  113  1  0.82567600  0.27678700  0.74243300  1
  H  114  1  0.85804900  0.31381400  0.74625800  1
  H  115  1  0.79364900  0.36746200  0.77108000  1
  H  116  1  0.69730300  0.29063000  0.79495100  1
  H  117  1  0.68099000  0.19933600  0.83319900  1
  H  118  1  0.71555000  0.20523700  0.79878500  1
  H  119  1  0.66298600  0.28488100  0.82992200  1
  H  126  1  0.78611300  0.26014700  0.71536300  1
  H  127  1  0.74909300  0.28723700  0.78919000  1
  H  128  1  0.71918700  0.21623100  0.74907400  1
  H  129  1  0.71332600  0.21060200  0.69796600  1
  H  133  1  0.64222000  0.21758900  0.85882800  1
  H  134  1  0.84444800  0.37868200  0.77874300  1
  H  135  1  0.78532900  0.15170900  0.63662500  1
  H  154  1  0.20060000  0.82868800  0.67519600  1
  H  155  1  0.20581300  0.79489500  0.71047200  1
  H  156  1  0.28720200  0.82934900  0.66289700  1
  H  157  1  0.24443900  0.67484400  0.76635600  1
  H  158  1  0.17993300  0.72877000  0.74228800  1
  H  159  1  0.14757100  0.69173000  0.74609700  1
  H  160  1  0.21195800  0.63813200  0.77106300  1
  H  161  1  0.30827200  0.71505700  0.79499000  1
  H  162  1  0.32444600  0.80640300  0.83318300  1
  H  163  1  0.28990800  0.80043000  0.79876000  1
  H  164  1  0.34257100  0.72087800  0.82996800  1
  H  171  1  0.21951800  0.74540600  0.71527600  1
  H  172  1  0.25645200  0.71840200  0.78917900  1
  H  173  1  0.28637000  0.78939200  0.74904700  1
  H  174  1  0.29232400  0.79498000  0.69796600  1
  H  178  1  0.36326400  0.78822100  0.85879700  1
  H  179  1  0.16116800  0.62687600  0.77865200  1
  H  180  1  0.22042700  0.85385900  0.63649000  1
  H  199  1  0.80708600  0.83065300  0.67782100  1
  H  200  1  0.80153000  0.79675400  0.71291000  1
  H  201  1  0.72054900  0.83175800  0.66502700  1
  H  202  1  0.76129800  0.67602600  0.76566400  1
  H  203  1  0.82693300  0.72981500  0.74459200  1
  H  204  1  0.85872000  0.69221700  0.74762100  1
  H  205  1  0.79312100  0.63866600  0.76941700  1
  H  206  1  0.69833000  0.71654800  0.79611400  1
  H  207  1  0.68365700  0.80735900  0.83612800  1
  H  208  1  0.71766500  0.80163700  0.80116500  1
  H  209  1  0.66459900  0.72208300  0.83165100  1
  H  216  1  0.78750200  0.74721700  0.71692400  1
  H  217  1  0.75011300  0.71937300  0.79026600  1
  H  218  1  0.72094500  0.79130500  0.75120000  1
  H  219  1  0.71508800  0.79728200  0.69994900  1
  H  223  1  0.64756800  0.78889100  0.86472600  1
  H  224  1  0.84231400  0.62479800  0.77557400  1
  H  225  1  0.78786500  0.85660000  0.63979600  1
  H  244  1  0.19879400  0.17500000  0.67756400  1
  H  245  1  0.20430600  0.20892100  0.71264100  1
  H  246  1  0.28533300  0.17401100  0.66476700  1
  H  247  1  0.24443200  0.32970400  0.76536000  1
  H  248  1  0.17883700  0.27584500  0.74433900  1
  H  249  1  0.14701600  0.31341200  0.74737400  1
  H  250  1  0.21257500  0.36703600  0.76911700  1
  H  251  1  0.30745600  0.28921600  0.79582000  1
  H  252  1  0.32215900  0.19840600  0.83583200  1
  H  253  1  0.28811900  0.20412800  0.80090000  1
  H  254  1  0.34122900  0.28368100  0.83132400  1
  H  261  1  0.21828200  0.25848100  0.71664500  1
  H  262  1  0.25565100  0.28637000  0.78998700  1
  H  263  1  0.28487500  0.21445400  0.75093500  1
  H  264  1  0.29075000  0.20850500  0.69967600  1
  H  268  1  0.35852700  0.21682500  0.86411700  1
  H  269  1  0.16335700  0.38082900  0.77533600  1
  H  270  1  0.21808100  0.14917600  0.63944400  1
  H  289  1  0.19886500  0.83008100  0.32863200  1
  H  290  1  0.20425700  0.79646000  0.29321600  1
  H  291  1  0.28545300  0.83106900  0.34103000  1
  H  292  1  0.24436000  0.67582300  0.24008100  1
  H  293  1  0.17876400  0.72963500  0.26121900  1
  H  294  1  0.14696500  0.69204500  0.25825500  1
  H  295  1  0.21252300  0.63846500  0.23639400  1
  H  296  1  0.30738200  0.71638000  0.20964700  1
  H  297  1  0.32209700  0.80725400  0.16978500  1
  H  298  1  0.28800300  0.80146100  0.20465300  1
  H  299  1  0.34121500  0.72198800  0.17420800  1
  H  306  1  0.21822800  0.74696400  0.28888500  1
  H  307  1  0.25554900  0.71919300  0.21547700  1
  H  308  1  0.28477200  0.79106900  0.25460700  1
  H  309  1  0.29076300  0.79687600  0.30580000  1
  H  313  1  0.35863100  0.78892200  0.14165900  1
  H  314  1  0.16331700  0.62458100  0.23035900  1
  H  315  1  0.21862000  0.85441600  0.36792400  1
  H  334  1  0.80661800  0.17552800  0.32868600  1
  H  335  1  0.80123000  0.20904300  0.29316200  1
  H  336  1  0.72002700  0.17452800  0.34103700  1
  H  337  1  0.76116400  0.32969800  0.24007500  1
  H  338  1  0.82674400  0.27584300  0.26115500  1
  H  339  1  0.85855900  0.31341800  0.25819100  1
  H  340  1  0.79301900  0.36704200  0.23638800  1
  H  341  1  0.69818700  0.28923500  0.20960200  1
  H  342  1  0.68345200  0.19846200  0.16952300  1
  H  343  1  0.71744800  0.20413100  0.20450800  1
  H  344  1  0.66446600  0.28375300  0.17404500  1
  H  351  1  0.78726200  0.25851000  0.28882700  1
  H  352  1  0.74997400  0.28635300  0.21543800  1
  H  353  1  0.72071100  0.21445200  0.25449500  1
  H  354  1  0.71471700  0.20861900  0.30569900  1
  H  358  1  0.64736700  0.21697600  0.14094900  1
  H  359  1  0.84225400  0.38085400  0.23026600  1
  H  360  1  0.78676700  0.15163600  0.36831300  1
  H  409  1  0.11491100  0.39227300  0.30249400  1
  H  410  1  0.07950300  0.42721700  0.30352100  1
  H  411  1  0.11344600  0.39343600  0.21516400  1
  H  412  1  0.07822700  0.42841800  0.21614200  1
  H  413  1  0.02989600  0.39849800  0.25745400  1
  H  414  1  0.97747900  0.39802200  0.25707700  1
  H  415  1  0.00293800  0.47847900  0.26226900  1
  H  416  1  0.00257600  0.52702400  0.26242200  1
  H  417  1  0.10859000  0.47732400  0.26217200  1
  H  418  1  0.10817600  0.52992000  0.26216700  1
  H  419  1  0.07200800  0.58651200  0.30176600  1
  H  420  1  0.10713100  0.62170300  0.30024400  1
  H  421  1  0.08343100  0.57150800  0.21642900  1
  H  422  1  0.11847500  0.60658300  0.21495900  1
  H  423  1  0.02803700  0.60746000  0.25694400  1
  H  424  1  0.97562000  0.60698600  0.25728000  1
  H  425  1  0.89733700  0.47557000  0.26205800  1
  H  426  1  0.89692100  0.52816900  0.26207600  1
  H  427  1  0.92739400  0.57712800  0.21607100  1
  H  428  1  0.89220100  0.61213500  0.21505100  1
  H  429  1  0.92591300  0.57823400  0.30344900  1
  H  430  1  0.89053200  0.61320300  0.30237800  1
  H  431  1  0.93342800  0.41907300  0.30176600  1
  H  432  1  0.89831000  0.38387600  0.30025400  1
  H  433  1  0.88712500  0.39881700  0.21491600  1
  H  434  1  0.92216400  0.43389600  0.21637800  1
  H  487  1  0.89066700  0.39233700  0.70348100  1
  H  488  1  0.92604400  0.42731300  0.70249300  1
  H  489  1  0.89217800  0.39335600  0.79081000  1
  H  490  1  0.92736700  0.42837000  0.78987300  1
  H  491  1  0.97566400  0.39853100  0.74854600  1
  H  492  1  0.02808000  0.39805100  0.74885200  1
  H  493  1  0.00262500  0.47851200  0.74371400  1
  H  494  1  0.00299400  0.52704700  0.74367900  1
  H  495  1  0.89697300  0.47736700  0.74392100  1
  H  496  1  0.89739300  0.52996600  0.74393000  1
  H  497  1  0.93361900  0.58653700  0.70423400  1
  H  498  1  0.89853600  0.62176900  0.70570400  1
  H  499  1  0.92210200  0.57159500  0.78956800  1
  H  500  1  0.88709600  0.60670700  0.79098600  1
  H  501  1  0.97754900  0.60750200  0.74899100  1
  H  502  1  0.02996400  0.60701700  0.74859800  1
  H  503  1  0.10822900  0.47559100  0.74378700  1
  H  504  1  0.10865000  0.52818800  0.74378900  1
  H  505  1  0.07824700  0.57720900  0.78980000  1
  H  506  1  0.11342800  0.61223000  0.79073000  1
  H  507  1  0.07959900  0.57821300  0.70242100  1
  H  508  1  0.11496900  0.61319700  0.70339800  1
  H  509  1  0.07203000  0.41911700  0.70407500  1
  H  510  1  0.10714000  0.38390800  0.70548000  1
  H  511  1  0.11853300  0.39879000  0.79080200  1
  H  512  1  0.08350200  0.43388300  0.78944400  1
  H  565  1  0.30212600  0.11998200  0.39557100  1
  H  566  1  0.30460800  0.08446900  0.43030600  1
  H  567  1  0.21571300  0.10820600  0.39000400  1
  H  568  1  0.21813700  0.07317200  0.42486600  1
  H  569  1  0.26153000  0.02957000  0.39828700  1
  H  570  1  0.26102100  0.97715800  0.39801600  1
  H  571  1  0.26379700  0.00291100  0.47848100  1
  H  572  1  0.26385500  0.00260900  0.52693500  1
  H  573  1  0.26225600  0.10859500  0.47702100  1
  H  574  1  0.26223200  0.10826400  0.52959700  1
  H  575  1  0.30345900  0.07562000  0.58502200  1
  H  576  1  0.30007000  0.11078600  0.62001200  1
  H  577  1  0.21720800  0.08038700  0.57195700  1
  H  578  1  0.21379400  0.11536500  0.60659900  1
  H  579  1  0.26100800  0.02836900  0.60739800  1
  H  580  1  0.26138900  0.97595800  0.60712500  1
  H  581  1  0.26194800  0.89726200  0.47581000  1
  H  582  1  0.26197900  0.89692700  0.52839200  1
  H  583  1  0.21799000  0.93247000  0.58063900  1
  H  584  1  0.21554500  0.89748200  0.61554000  1
  H  585  1  0.30442400  0.92094700  0.57504800  1
  H  586  1  0.30191700  0.88547900  0.60982200  1
  H  587  1  0.30341500  0.92961900  0.42074000  1
  H  588  1  0.30006600  0.89450700  0.38569000  1
  H  589  1  0.21362200  0.89068800  0.39820400  1
  H  590  1  0.21701100  0.92554300  0.43300600  1
  H  643  1  0.70390300  0.88555600  0.39567800  1
  H  644  1  0.70145600  0.92102800  0.43045500  1
  H  645  1  0.79028500  0.89746700  0.38990700  1
  H  646  1  0.78789600  0.93246100  0.42480800  1
  H  647  1  0.74439500  0.97598200  0.39833500  1
  H  648  1  0.74482200  0.02839500  0.39804900  1
  H  649  1  0.74228800  0.00265400  0.47852800  1
  H  650  1  0.74218600  0.00296300  0.52697600  1
  H  651  1  0.74390700  0.89697300  0.47708300  1
  H  652  1  0.74393000  0.89731000  0.52965900  1
  H  653  1  0.70257600  0.93003500  0.58507400  1
  H  654  1  0.70589700  0.89490200  0.62010300  1
  H  655  1  0.78882300  0.92512500  0.57204800  1
  H  656  1  0.79216800  0.89017000  0.60672100  1
  H  657  1  0.74497300  0.97722900  0.60744800  1
  H  658  1  0.74450100  0.02963700  0.60716200  1
  H  659  1  0.74397100  0.10830500  0.47582900  1
  H  660  1  0.74393000  0.10865000  0.52841100  1
  H  661  1  0.78787900  0.07315000  0.58071200  1
  H  662  1  0.79026200  0.10813000  0.61562500  1
  H  663  1  0.70144600  0.08460800  0.57503100  1
  H  664  1  0.70388600  0.12006800  0.60981800  1
  H  665  1  0.70238800  0.07589600  0.42088900  1
  H  666  1  0.70559600  0.11097500  0.38579100  1
  H  667  1  0.79208200  0.11483800  0.39798100  1
  H  668  1  0.78883100  0.08003200  0.43285200  1
  H  721  1  0.39492300  0.30009300  0.11981500  1
  H  722  1  0.43002500  0.30298500  0.08471300  1
  H  723  1  0.38978100  0.21375100  0.10718900  1
  H  724  1  0.42493200  0.21661100  0.07258300  1
  H  725  1  0.39829700  0.26028200  0.02938200  1
  H  726  1  0.39810700  0.25986100  0.97698200  1
  H  727  1  0.47853500  0.26266200  0.00286800  1
  H  728  1  0.52695800  0.26267500  0.00266500  1
  H  729  1  0.47686800  0.26096100  0.10856200  1
  H  730  1  0.52944800  0.26103100  0.10833400  1
  H  731  1  0.58504000  0.30241400  0.07531700  1
  H  732  1  0.62017500  0.29928800  0.11037000  1
  H  733  1  0.57164600  0.21626800  0.08114700  1
  H  734  1  0.60627800  0.21319400  0.11628200  1
  H  735  1  0.60738400  0.25986100  0.02855200  1
  H  736  1  0.60719500  0.26021900  0.97615400  1
  H  737  1  0.47604200  0.26085300  0.89720200  1
  H  738  1  0.52862200  0.26079300  0.89697300  1
  H  739  1  0.58060800  0.21654100  0.93306800  1
  H  740  1  0.61577000  0.21362400  0.89848000  1
  H  741  1  0.57542200  0.30287300  0.92070300  1
  H  742  1  0.61053900  0.29992900  0.88562200  1
  H  743  1  0.42052900  0.30235100  0.93011200  1
  H  744  1  0.38540800  0.29920300  0.89504700  1
  H  745  1  0.39915000  0.21306300  0.88937500  1
  H  746  1  0.43376700  0.21616800  0.92451000  1
  H  799  1  0.39497000  0.70593800  0.88574400  1
  H  800  1  0.43009500  0.70306900  0.92082500  1
  H  801  1  0.38973700  0.79226800  0.89842600  1
  H  802  1  0.42490500  0.78942600  0.93301200  1
  H  803  1  0.39832000  0.74574900  0.97617900  1
  H  804  1  0.39812300  0.74609300  0.02857700  1
  H  805  1  0.47855300  0.74332700  0.00270000  1
  H  806  1  0.52697900  0.74330200  0.00290700  1
  H  807  1  0.47690100  0.74511800  0.89700600  1
  H  808  1  0.52948300  0.74505600  0.89724000  1
  H  809  1  0.58507100  0.70361100  0.93035800  1
  H  810  1  0.62023900  0.70665800  0.89533100  1
  H  811  1  0.57169600  0.78974400  0.92433800  1
  H  812  1  0.60635900  0.79274000  0.88922400  1
  H  813  1  0.60740600  0.74621900  0.97703800  1
  H  814  1  0.60720800  0.74578400  0.02943300  1
  H  815  1  0.47604600  0.74494200  0.10836900  1
  H  816  1  0.52862800  0.74501600  0.10860500  1
  H  817  1  0.58061200  0.78935900  0.07260600  1
  H  818  1  0.61578600  0.79220400  0.10718500  1
  H  819  1  0.57544100  0.70300000  0.08478800  1
  H  820  1  0.61057000  0.70587400  0.11986200  1
  H  821  1  0.42053100  0.70351400  0.07536300  1
  H  822  1  0.38538600  0.70659600  0.11040900  1
  H  823  1  0.39912100  0.79272300  0.11625200  1
  H  824  1  0.43376300  0.78968400  0.08114000  1
  C  1  1  0.21578300  0.30000200  0.25194900  1
  C  2  1  0.24978400  0.21454300  0.29790300  1
  C  3  1  0.29571900  0.24872200  0.21257700  1
  C  4  1  0.27305700  0.20362200  0.31203100  1
  C  5  1  0.27004000  0.18334500  0.33282400  1
  C  6  1  0.24358200  0.17310800  0.34022900  1
  C  7  1  0.22035600  0.18385800  0.32594900  1
  C  8  1  0.22340200  0.20407600  0.30521200  1
  C  9  1  0.18733000  0.29606000  0.25803300  1
  C  10  1  0.16810600  0.31789000  0.25574400  1
  C  11  1  0.17664200  0.34454300  0.24714800  1
  C  12  1  0.20499600  0.34866100  0.24116800  1
  C  13  1  0.22418000  0.32687200  0.24370400  1
  C  14  1  0.31127800  0.27149800  0.20258800  1
  C  15  1  0.33167900  0.26807800  0.18198700  1
  C  16  1  0.33726100  0.24169800  0.17046300  1
  C  17  1  0.32149000  0.21900300  0.18024300  1
  C  18  1  0.30115300  0.22244300  0.20080700  1
  C  30  1  0.27525100  0.25198200  0.23383900  1
  C  31  1  0.25607100  0.27413100  0.23306300  1
  C  32  1  0.23528000  0.27758800  0.25347700  1
  C  33  1  0.23406100  0.25781200  0.27508900  1
  C  34  1  0.25252300  0.23507700  0.27662500  1
  C  35  1  0.27308100  0.23275300  0.25587800  1
  C  40  1  0.35777000  0.23719700  0.15062000  1
  C  41  1  0.15793400  0.36597600  0.24302100  1
  C  42  1  0.23954100  0.15360700  0.36113000  1
  C  46  1  0.78991200  0.70567700  0.25175900  1
  C  47  1  0.75605700  0.79117900  0.29774100  1
  C  48  1  0.71001800  0.75707700  0.21243800  1
  C  49  1  0.73281300  0.80214000  0.31188900  1
  C  50  1  0.73587900  0.82240900  0.33268100  1
  C  51  1  0.76236000  0.83260700  0.34006800  1
  C  52  1  0.78555400  0.82182400  0.32576100  1
  C  53  1  0.78246100  0.80160800  0.30503000  1
  C  54  1  0.81836600  0.70957100  0.25788000  1
  C  55  1  0.83756500  0.68772000  0.25556000  1
  C  56  1  0.82899700  0.66108400  0.24694600  1
  C  57  1  0.80064000  0.65700800  0.24095700  1
  C  58  1  0.78148400  0.67882300  0.24349500  1
  C  59  1  0.69441500  0.73433200  0.20244700  1
  C  60  1  0.67403700  0.73778900  0.18182900  1
  C  61  1  0.66849700  0.76418200  0.17031300  1
  C  62  1  0.68430100  0.78684800  0.18011000  1
  C  63  1  0.70462100  0.78337000  0.20068300  1
  C  75  1  0.73048800  0.75377700  0.23369700  1
  C  76  1  0.74963500  0.73160000  0.23290800  1
  C  77  1  0.77044400  0.72812000  0.25330100  1
  C  78  1  0.77170700  0.74789600  0.27490900  1
  C  79  1  0.75327200  0.77064900  0.27646400  1
  C  80  1  0.73269700  0.77299900  0.25573800  1
  C  85  1  0.64802100  0.76872400  0.15044000  1
  C  86  1  0.84768000  0.63962900  0.24283400  1
  C  87  1  0.76645100  0.85211800  0.36095200  1
  C  91  1  0.78992900  0.29984200  0.75387500  1
  C  92  1  0.75603200  0.21437200  0.70785300  1
  C  93  1  0.70995000  0.24852500  0.79311900  1
  C  94  1  0.73278800  0.20343000  0.69368900  1
  C  95  1  0.73585400  0.18317600  0.67287700  1
  C  96  1  0.76233100  0.17296000  0.66550800  1
  C  97  1  0.78552300  0.18371200  0.67984100  1
  C  98  1  0.78243000  0.20391700  0.70058400  1
  C  99  1  0.81838700  0.29593600  0.74778600  1
  C  100  1  0.83759600  0.31777400  0.75014000  1
  C  101  1  0.82903600  0.34440900  0.75876200  1
  C  102  1  0.80067300  0.34849900  0.76472200  1
  C  103  1  0.78150700  0.32669900  0.76214500  1
  C  104  1  0.69439100  0.27130100  0.80310700  1
  C  105  1  0.67398900  0.26788300  0.82370700  1
  C  106  1  0.66839800  0.24150500  0.83522800  1
  C  107  1  0.68415400  0.21880600  0.82543200  1
  C  108  1  0.70449300  0.22224200  0.80486900  1
  C  120  1  0.73045100  0.25179200  0.77188500  1
  C  121  1  0.74963700  0.27393400  0.77270300  1
  C  122  1  0.77044800  0.27741200  0.75231600  1
  C  123  1  0.77170300  0.25764400  0.73069900  1
  C  124  1  0.75324900  0.23490300  0.72912800  1
  C  125  1  0.73265800  0.23257000  0.74984200  1
  C  130  1  0.64791300  0.23700900  0.85510300  1
  C  131  1  0.84772500  0.36584700  0.76294400  1
  C  132  1  0.76642600  0.15346100  0.64460900  1
  C  136  1  0.21567000  0.70574500  0.75382300  1
  C  137  1  0.24960000  0.79118700  0.70776200  1
  C  138  1  0.29556500  0.75714500  0.79312700  1
  C  139  1  0.27286400  0.80212600  0.69363300  1
  C  140  1  0.26983500  0.82239300  0.67283000  1
  C  141  1  0.24337000  0.83260300  0.66541200  1
  C  142  1  0.22015400  0.82183400  0.67969200  1
  C  143  1  0.22320900  0.80162700  0.70043700  1
  C  144  1  0.18721600  0.70963700  0.74770800  1
  C  145  1  0.16801300  0.68779100  0.75005100  1
  C  146  1  0.17657700  0.66116000  0.75868800  1
  C  147  1  0.20493300  0.65709000  0.76468900  1
  C  148  1  0.22409300  0.67889700  0.76212000  1
  C  149  1  0.31113900  0.73439200  0.80315100  1
  C  150  1  0.33153000  0.73785400  0.82375500  1
  C  151  1  0.33709500  0.76425000  0.83524400  1
  C  152  1  0.32130600  0.78692100  0.82543200  1
  C  153  1  0.30097900  0.78344100  0.80486500  1
  C  165  1  0.27510000  0.75384100  0.77186600  1
  C  166  1  0.25594300  0.73167400  0.77266500  1
  C  167  1  0.23514800  0.72817800  0.75226200  1
  C  168  1  0.23390600  0.74793300  0.73063100  1
  C  169  1  0.25235300  0.77067800  0.72906400  1
  C  170  1  0.27290700  0.77304600  0.74980900  1
  C  175  1  0.35757900  0.76879000  0.85511000  1
  C  176  1  0.15789200  0.63971500  0.76285500  1
  C  177  1  0.23931500  0.85210800  0.64451400  1
  C  181  1  0.79073400  0.70689000  0.75473800  1
  C  182  1  0.75774400  0.79327600  0.70994600  1
  C  183  1  0.71146300  0.75852400  0.79484300  1
  C  184  1  0.73459500  0.80438700  0.69576300  1
  C  185  1  0.73782900  0.82470500  0.67504300  1
  C  186  1  0.76438500  0.83481600  0.66779700  1
  C  187  1  0.78746700  0.82391200  0.68219900  1
  C  188  1  0.78421500  0.80363500  0.70283500  1
  C  189  1  0.81932100  0.71060000  0.74921500  1
  C  190  1  0.83817200  0.68840400  0.75110100  1
  C  191  1  0.82911500  0.66157400  0.75860100  1
  C  192  1  0.80057300  0.65773600  0.76392500  1
  C  193  1  0.78177400  0.67991000  0.76191500  1
  C  194  1  0.69570500  0.73578300  0.80458500  1
  C  195  1  0.67562000  0.73909200  0.82550600  1
  C  196  1  0.67055900  0.76531400  0.83763300  1
  C  197  1  0.68642900  0.78799500  0.82796200  1
  C  198  1  0.70643100  0.78467700  0.80705300  1
  C  210  1  0.73186500  0.75531800  0.77351600  1
  C  211  1  0.75079000  0.73294100  0.77399700  1
  C  212  1  0.77158500  0.72959000  0.75358300  1
  C  213  1  0.77309400  0.74966000  0.73227700  1
  C  214  1  0.75482300  0.77256200  0.73100300  1
  C  215  1  0.73425600  0.77482500  0.75174600  1
  C  220  1  0.65072000  0.76962000  0.85821900  1
  C  221  1  0.84734500  0.63955400  0.76208300  1
  C  222  1  0.76870100  0.85428000  0.64690100  1
  C  226  1  0.21502000  0.29881100  0.75445200  1
  C  227  1  0.24808800  0.21244800  0.70967900  1
  C  228  1  0.29431900  0.24724200  0.79457200  1
  C  229  1  0.27125300  0.20135900  0.69550800  1
  C  230  1  0.26804500  0.18103700  0.67478600  1
  C  231  1  0.24150300  0.17089200  0.66754500  1
  C  232  1  0.21840200  0.18176500  0.68194500  1
  C  233  1  0.22163000  0.20204800  0.70258000  1
  C  234  1  0.18643300  0.29506900  0.74894800  1
  C  235  1  0.16756300  0.31724600  0.75084000  1
  C  236  1  0.17660000  0.34409000  0.75831700  1
  C  237  1  0.20513900  0.34795500  0.76363300  1
  C  238  1  0.22395800  0.32580200  0.76161900  1
  C  239  1  0.31008300  0.26998400  0.80430000  1
  C  240  1  0.33018500  0.26667600  0.82520200  1
  C  241  1  0.33525700  0.24045400  0.83732300  1
  C  242  1  0.31937600  0.21777300  0.82767200  1
  C  243  1  0.29934600  0.22109100  0.80679200  1
  C  255  1  0.27392200  0.25043600  0.77324300  1
  C  256  1  0.25497600  0.27279400  0.77372300  1
  C  257  1  0.23418700  0.27612900  0.75329900  1
  C  258  1  0.23270100  0.25606300  0.73199100  1
  C  259  1  0.25098700  0.23317100  0.73073000  1
  C  260  1  0.27155600  0.23092900  0.75147100  1
  C  265  1  0.35514300  0.23613700  0.85785500  1
  C  266  1  0.15835000  0.36609000  0.76181600  1
  C  267  1  0.23721600  0.15143200  0.64664400  1
  C  271  1  0.21494100  0.70669800  0.25102600  1
  C  272  1  0.24805900  0.79296300  0.29594800  1
  C  273  1  0.29421400  0.75834400  0.21093100  1
  C  274  1  0.27127600  0.80397500  0.31010000  1
  C  275  1  0.26814200  0.82413600  0.33098400  1
  C  276  1  0.24161700  0.83416000  0.33843600  1
  C  277  1  0.21845800  0.82338900  0.32406700  1
  C  278  1  0.22161900  0.80328700  0.30324200  1
  C  279  1  0.18635900  0.71042200  0.25656600  1
  C  280  1  0.16750500  0.68822800  0.25472500  1
  C  281  1  0.17654800  0.66138800  0.24724400  1
  C  282  1  0.20508100  0.65754400  0.24187400  1
  C  283  1  0.22388600  0.67971300  0.24384700  1
  C  284  1  0.30999700  0.73562000  0.20118400  1
  C  285  1  0.33013900  0.73897400  0.18032600  1
  C  286  1  0.33522100  0.76521700  0.16825800  1
  C  287  1  0.31930600  0.78787300  0.17791100  1
  C  288  1  0.29924800  0.78451300  0.19875700  1
  C  300  1  0.27381400  0.75511900  0.23225200  1
  C  301  1  0.25488300  0.73274900  0.23175700  1
  C  302  1  0.23409800  0.72938900  0.25218100  1
  C  303  1  0.23261800  0.74942800  0.27351800  1
  C  304  1  0.25089800  0.77232200  0.27480600  1
  C  305  1  0.27144400  0.77460300  0.25404600  1
  C  310  1  0.35516300  0.76958500  0.14778900  1
  C  311  1  0.15831200  0.63936100  0.24383000  1
  C  312  1  0.23742300  0.85325900  0.35965800  1
  C  316  1  0.79057000  0.29880700  0.25100100  1
  C  317  1  0.75742100  0.21251900  0.29585500  1
  C  318  1  0.71128500  0.24724800  0.21084800  1
  C  319  1  0.73420000  0.20152300  0.31001100  1
  C  320  1  0.73733400  0.18141700  0.33095300  1
  C  321  1  0.76386300  0.17145800  0.33846700  1
  C  322  1  0.78702600  0.18218500  0.32407400  1
  C  323  1  0.78386100  0.20221700  0.30318200  1
  C  324  1  0.81915100  0.29506900  0.25654300  1
  C  325  1  0.83801600  0.31725000  0.25469400  1
  C  326  1  0.82898200  0.34409800  0.24722500  1
  C  327  1  0.80045100  0.34795900  0.24186500  1
  C  328  1  0.78163500  0.32579800  0.24383400  1
  C  329  1  0.69555000  0.27000700  0.20111500  1
  C  330  1  0.67547300  0.26673000  0.18018200  1
  C  331  1  0.67039500  0.24052200  0.16803500  1
  C  332  1  0.68623800  0.21782000  0.17770100  1
  C  333  1  0.70624200  0.22110800  0.19861300  1
  C  345  1  0.73168500  0.25042300  0.23217700  1
  C  346  1  0.75062900  0.27278300  0.23170500  1
  C  347  1  0.77140900  0.27611800  0.25213500  1
  C  348  1  0.77287200  0.25606500  0.27345800  1
  C  349  1  0.75459500  0.23316400  0.27471300  1
  C  350  1  0.73404900  0.23091200  0.25394700  1
  C  355  1  0.65056300  0.23624700  0.14743700  1
  C  356  1  0.84723300  0.36610600  0.24378400  1
  C  357  1  0.76805900  0.15248100  0.35979200  1
  C  361  1  0.01780900  0.41582700  0.25841400  1
  C  362  1  0.98922300  0.41557300  0.25822400  1
  C  363  1  0.97986400  0.44291300  0.25975400  1
  C  365  1  0.02664100  0.44334000  0.25989000  1
  C  366  1  0.05480400  0.45202400  0.26043500  1
  C  367  1  0.06367500  0.48006200  0.26088800  1
  C  369  1  0.06330200  0.52650000  0.26070200  1
  C  370  1  0.09086700  0.51778300  0.26160600  1
  C  371  1  0.09109900  0.48920000  0.26164200  1
  C  372  1  0.05397800  0.55440600  0.26012800  1
  C  373  1  0.02565000  0.56257500  0.25973500  1
  C  375  1  0.97887400  0.56214900  0.25984100  1
  C  376  1  0.98770800  0.58965700  0.25831100  1
  C  377  1  0.01629300  0.58991200  0.25812400  1
  C  378  1  0.95071000  0.55346800  0.26040000  1
  C  379  1  0.94183700  0.52543000  0.26086300  1
  C  381  1  0.94221200  0.47899200  0.26066000  1
  C  382  1  0.91464600  0.48771000  0.26153000  1
  C  383  1  0.91441400  0.51629000  0.26157500  1
  C  384  1  0.95153800  0.45108600  0.26009100  1
  C  385  1  0.93093800  0.42987600  0.25924900  1
  C  386  1  0.91722900  0.42354500  0.23419300  1
  C  387  1  0.89652500  0.40304800  0.23339200  1
  C  388  1  0.88896700  0.38838300  0.25761900  1
  C  389  1  0.90318900  0.39428900  0.28245900  1
  C  390  1  0.92376500  0.41494800  0.28337000  1
  C  391  1  0.92978000  0.57432700  0.25985700  1
  C  392  1  0.91966200  0.58449600  0.23436900  1
  C  393  1  0.89889000  0.60493700  0.23379200  1
  C  394  1  0.88760300  0.61557700  0.25866100  1
  C  395  1  0.89813600  0.60571300  0.28407600  1
  C  396  1  0.91885600  0.58519200  0.28472400  1
  C  397  1  0.07457900  0.57561500  0.25927800  1
  C  398  1  0.08170600  0.59059900  0.28337800  1
  C  399  1  0.10229000  0.61124700  0.28246500  1
  C  400  1  0.11656000  0.61709900  0.25763800  1
  C  401  1  0.10903900  0.60239000  0.23342700  1
  C  402  1  0.08833500  0.58189400  0.23423300  1
  C  403  1  0.07573300  0.43116500  0.25992300  1
  C  404  1  0.08660400  0.42028000  0.28480500  1
  C  405  1  0.08591700  0.42103200  0.23444800  1
  C  406  1  0.10670900  0.40061000  0.23389700  1
  C  407  1  0.11793800  0.38994400  0.25878300  1
  C  408  1  0.10733400  0.39976700  0.28418400  1
  C  439  1  0.98775100  0.41586300  0.74757700  1
  C  440  1  0.01633800  0.41560400  0.74772400  1
  C  441  1  0.02569800  0.44294200  0.74619200  1
  C  443  1  0.97892000  0.44337500  0.74612200  1
  C  444  1  0.95075700  0.45206100  0.74560000  1
  C  445  1  0.94188900  0.48010200  0.74515700  1
  C  447  1  0.94226600  0.52654200  0.74535000  1
  C  448  1  0.91470100  0.51782600  0.74447200  1
  C  449  1  0.91446500  0.48924400  0.74443100  1
  C  450  1  0.95159400  0.55444800  0.74590900  1
  C  451  1  0.97992600  0.56261200  0.74625200  1
  C  453  1  0.02670400  0.56217800  0.74610700  1
  C  454  1  0.01787500  0.58969000  0.74760400  1
  C  455  1  0.98928900  0.58994900  0.74780900  1
  C  456  1  0.05486700  0.55349500  0.74553200  1
  C  457  1  0.06373500  0.52545500  0.74506400  1
  C  459  1  0.06335600  0.47901500  0.74525000  1
  C  460  1  0.09092100  0.48773000  0.74434600  1
  C  461  1  0.09115800  0.51631300  0.74431700  1
  C  462  1  0.05402800  0.45111100  0.74580700  1
  C  463  1  0.07462500  0.42989400  0.74659200  1
  C  464  1  0.08839000  0.42354100  0.77161200  1
  C  465  1  0.10908700  0.40303400  0.77234900  1
  C  466  1  0.11658800  0.38838500  0.74809500  1
  C  467  1  0.10231700  0.39432000  0.72329000  1
  C  468  1  0.08173700  0.41497900  0.72244300  1
  C  469  1  0.07579800  0.57435400  0.74602200  1
  C  470  1  0.08595100  0.58455600  0.77148300  1
  C  471  1  0.10671900  0.60500500  0.77200500  1
  C  472  1  0.11795900  0.61562700  0.74710700  1
  C  473  1  0.10739600  0.60572300  0.72171900  1
  C  474  1  0.08668200  0.58519400  0.72112700  1
  C  475  1  0.93099800  0.57566500  0.74672600  1
  C  476  1  0.92390700  0.59064200  0.72260900  1
  C  477  1  0.90335100  0.61132100  0.72349500  1
  C  478  1  0.88906500  0.61720700  0.74830400  1
  C  479  1  0.89654200  0.60249400  0.77252700  1
  C  480  1  0.91722500  0.58197500  0.77175300  1
  C  481  1  0.92982800  0.43120000  0.74609500  1
  C  482  1  0.91895100  0.42034700  0.72120300  1
  C  483  1  0.91966600  0.42101500  0.77155800  1
  C  484  1  0.89889200  0.40057200  0.77208600  1
  C  485  1  0.88765100  0.38994400  0.74719000  1
  C  486  1  0.89823300  0.39982100  0.72180000  1
  C  517  1  0.26200000  0.01756100  0.41569100  1
  C  518  1  0.26174900  0.98897500  0.41554000  1
  C  519  1  0.26249500  0.97972500  0.44294700  1
  C  521  1  0.26270000  0.02651200  0.44319900  1
  C  522  1  0.26280700  0.05472000  0.45178600  1
  C  523  1  0.26298300  0.06366100  0.47981200  1
  C  525  1  0.26272600  0.06336400  0.52624800  1
  C  526  1  0.26253000  0.09092700  0.51748900  1
  C  527  1  0.26259000  0.09111000  0.48891000  1
  C  528  1  0.26241600  0.05409100  0.55417000  1
  C  529  1  0.26255500  0.02580000  0.56246700  1
  C  531  1  0.26263700  0.97901100  0.56221500  1
  C  532  1  0.26193800  0.98796400  0.58972300  1
  C  533  1  0.26173700  0.01655200  0.58987200  1
  C  534  1  0.26266000  0.95080100  0.55363000  1
  C  535  1  0.26280300  0.94186000  0.52560400  1
  C  537  1  0.26255500  0.94216000  0.47916600  1
  C  538  1  0.26228100  0.91459600  0.48792300  1
  C  539  1  0.26235000  0.91441400  0.51650100  1
  C  540  1  0.26227900  0.95143400  0.45124600  1
  C  541  1  0.26052600  0.93081300  0.43013600  1
  C  542  1  0.23464700  0.91914400  0.42315800  1
  C  543  1  0.23273400  0.89850900  0.40268000  1
  C  544  1  0.25662400  0.88893800  0.38858800  1
  C  545  1  0.28240700  0.90088100  0.39551500  1
  C  546  1  0.28441600  0.92150200  0.41606500  1
  C  547  1  0.26142200  0.92992100  0.57453400  1
  C  548  1  0.23579600  0.92264300  0.58658700  1
  C  549  1  0.23437800  0.90188900  0.60699700  1
  C  550  1  0.25848300  0.88763200  0.61571200  1
  C  551  1  0.28409100  0.89523600  0.60382300  1
  C  552  1  0.28559100  0.91603700  0.58341700  1
  C  553  1  0.26064000  0.07471900  0.57527300  1
  C  554  1  0.28447800  0.08387300  0.58953500  1
  C  555  1  0.28244700  0.10452800  0.61004800  1
  C  556  1  0.25669000  0.11663900  0.61678000  1
  C  557  1  0.23286600  0.10729000  0.60242800  1
  C  558  1  0.23480000  0.08661700  0.58199500  1
  C  559  1  0.26158600  0.07560400  0.43088600  1
  C  560  1  0.28577600  0.08943400  0.42197200  1
  C  561  1  0.23595500  0.08295800  0.41888900  1
  C  562  1  0.23455200  0.10373300  0.39850400  1
  C  563  1  0.25867500  0.11794500  0.38976600  1
  C  564  1  0.28428700  0.11026300  0.40159300  1
  C  595  1  0.74390300  0.98799300  0.41573600  1
  C  596  1  0.74413000  0.01658200  0.41557900  1
  C  597  1  0.74343100  0.02583700  0.44298400  1
  C  599  1  0.74329200  0.97904800  0.44324700  1
  C  600  1  0.74326100  0.95084000  0.45184000  1
  C  601  1  0.74311600  0.94190300  0.47986800  1
  C  603  1  0.74337700  0.94221000  0.52630600  1
  C  604  1  0.74361100  0.91464600  0.51754900  1
  C  605  1  0.74355300  0.91445900  0.48897000  1
  C  606  1  0.74366500  0.95148600  0.55422800  1
  C  607  1  0.74347200  0.97978100  0.56251500  1
  C  609  1  0.74330800  0.02657200  0.56225200  1
  C  610  1  0.74399200  0.01762600  0.58976000  1
  C  611  1  0.74423400  0.98903900  0.58991800  1
  C  612  1  0.74324400  0.05478100  0.55366100  1
  C  613  1  0.74311200  0.06371800  0.52563100  1
  C  615  1  0.74336600  0.06341000  0.47919100  1
  C  616  1  0.74363100  0.09097400  0.48794600  1
  C  617  1  0.74356100  0.09116300  0.51652400  1
  C  618  1  0.74363800  0.05412900  0.45127300  1
  C  619  1  0.74530800  0.07474900  0.43015500  1
  C  620  1  0.77115400  0.08642300  0.42307100  1
  C  621  1  0.77298600  0.10703500  0.40256400  1
  C  622  1  0.74903900  0.11659100  0.38855700  1
  C  623  1  0.72329000  0.10462500  0.39556900  1
  C  624  1  0.72136500  0.08402700  0.41614800  1
  C  625  1  0.74445100  0.07566600  0.57456300  1
  C  626  1  0.77006100  0.08296100  0.58664500  1
  C  627  1  0.77144000  0.10370500  0.60706700  1
  C  628  1  0.74731400  0.11793800  0.61576600  1
  C  629  1  0.72172700  0.11032400  0.60384200  1
  C  630  1  0.72026300  0.08953100  0.58342400  1
  C  631  1  0.74539900  0.93086300  0.57534200  1
  C  632  1  0.72154300  0.92175900  0.58960300  1
  C  633  1  0.72353200  0.90111900  0.61013700  1
  C  634  1  0.74926800  0.88898000  0.61690000  1
  C  635  1  0.77311100  0.89827500  0.60253900  1
  C  636  1  0.77121800  0.91893300  0.58208600  1
  C  637  1  0.74446600  0.92995900  0.43093700  1
  C  638  1  0.72027600  0.91609700  0.42207100  1
  C  639  1  0.77007800  0.92265300  0.41886800  1
  C  640  1  0.77146100  0.90190000  0.39845900  1
  C  641  1  0.74733500  0.88767100  0.38975400  1
  C  642  1  0.72174400  0.89529600  0.40166300  1
  C  673  1  0.41572200  0.26078900  0.01740700  1
  C  674  1  0.41561800  0.26058800  0.98882200  1
  C  675  1  0.44303800  0.26137900  0.97961600  1
  C  677  1  0.44321600  0.26148200  0.02640600  1
  C  678  1  0.45174500  0.26150500  0.05463400  1
  C  679  1  0.47975000  0.26171200  0.06363700  1
  C  681  1  0.52618600  0.26152800  0.06342900  1
  C  682  1  0.51737300  0.26131700  0.09097500  1
  C  683  1  0.48879200  0.26132500  0.09110200  1
  C  684  1  0.55412300  0.26125200  0.05420100  1
  C  685  1  0.56245500  0.26141000  0.02591900  1
  C  687  1  0.56227700  0.26147000  0.97912900  1
  C  688  1  0.58976900  0.26079300  0.98812800  1
  C  689  1  0.58987400  0.26060000  0.01671300  1
  C  690  1  0.55374800  0.26145500  0.95090000  1
  C  691  1  0.52574300  0.26166400  0.94189700  1
  C  693  1  0.47930700  0.26147000  0.94210600  1
  C  694  1  0.48811700  0.26120900  0.91456100  1
  C  695  1  0.51669800  0.26121100  0.91443200  1
  C  696  1  0.45137200  0.26118400  0.95133500  1
  C  697  1  0.43027500  0.25952200  0.93068900  1
  C  698  1  0.42358800  0.23377500  0.91855800  1
  C  699  1  0.40307900  0.23198200  0.89794100  1
  C  700  1  0.38851800  0.25583700  0.88903100  1
  C  701  1  0.39540700  0.28154400  0.90114800  1
  C  702  1  0.41598700  0.28342600  0.92174600  1
  C  703  1  0.57470200  0.25996900  0.93008900  1
  C  704  1  0.58672300  0.23423700  0.92314600  1
  C  705  1  0.60736300  0.23256200  0.90264700  1
  C  706  1  0.61640800  0.25651800  0.88832800  1
  C  707  1  0.60438800  0.28220300  0.89546800  1
  C  708  1  0.58377600  0.28397000  0.91604500  1
  C  709  1  0.57522000  0.25960000  0.07484900  1
  C  710  1  0.58955500  0.28350100  0.08372600  1
  C  711  1  0.61014100  0.28163300  0.10431900  1
  C  712  1  0.61700200  0.25594000  0.11648000  1
  C  713  1  0.60237800  0.23209400  0.10765800  1
  C  714  1  0.58186100  0.23387000  0.08704800  1
  C  715  1  0.43079100  0.26005400  0.07544700  1
  C  716  1  0.42169400  0.28408400  0.08942500  1
  C  717  1  0.41880000  0.23432800  0.08246000  1
  C  718  1  0.39817500  0.23268400  0.10297400  1
  C  719  1  0.38910800  0.25666700  0.11723100  1
  C  720  1  0.40109000  0.28234900  0.11001200  1
  C  751  1  0.41574500  0.74521300  0.98815500  1
  C  752  1  0.41563500  0.74537500  0.01674000  1
  C  753  1  0.44305400  0.74458400  0.02594900  1
  C  755  1  0.44323800  0.74453800  0.97915800  1
  C  756  1  0.45177200  0.74455100  0.95093100  1
  C  757  1  0.47977700  0.74435400  0.94193200  1
  C  759  1  0.52621500  0.74454000  0.94214600  1
  C  760  1  0.51740600  0.74475600  0.91459800  1
  C  761  1  0.48882500  0.74476600  0.91446700  1
  C  762  1  0.55415200  0.74482000  0.95137600  1
  C  763  1  0.56247800  0.74463300  0.97965900  1
  C  765  1  0.56229100  0.74452200  0.02645200  1
  C  766  1  0.58978500  0.74523800  0.01745700  1
  C  767  1  0.58989500  0.74545100  0.98887100  1
  C  768  1  0.55375800  0.74447400  0.05467900  1
  C  769  1  0.52575300  0.74425900  0.06367900  1
  C  771  1  0.47931700  0.74445300  0.06346400  1
  C  772  1  0.48812600  0.74466900  0.09101200  1
  C  773  1  0.51670400  0.74465400  0.09114300  1
  C  774  1  0.45138200  0.74471800  0.05423200  1
  C  775  1  0.43028100  0.74634100  0.07487800  1
  C  776  1  0.42358200  0.77206700  0.08705300  1
  C  777  1  0.40306700  0.77381600  0.10766600  1
  C  778  1  0.38849700  0.74994800  0.11652000  1
  C  779  1  0.39539100  0.72426500  0.10435300  1
  C  780  1  0.41598500  0.72242300  0.08376600  1
  C  781  1  0.57471200  0.74592500  0.07549500  1
  C  782  1  0.58673000  0.77164300  0.08249000  1
  C  783  1  0.60738000  0.77327400  0.10298400  1
  C  784  1  0.61643900  0.74928900  0.11724200  1
  C  785  1  0.60441100  0.72361900  0.11005700  1
  C  786  1  0.58379000  0.72189500  0.08948500  1
  C  787  1  0.57525700  0.74642600  0.93073100  1
  C  788  1  0.58959700  0.72250500  0.92191400  1
  C  789  1  0.61020100  0.72432700  0.90133600  1
  C  790  1  0.61707600  0.74999300  0.88912700  1
  C  791  1  0.60245000  0.77386000  0.89789000  1
  C  792  1  0.58191900  0.77213100  0.91848800  1
  C  793  1  0.43081700  0.74599600  0.93011600  1
  C  794  1  0.42174400  0.72196300  0.91612800  1
  C  795  1  0.41879200  0.77170900  0.92312500  1
  C  796  1  0.39815000  0.77334000  0.90262400  1
  C  797  1  0.38910600  0.74935500  0.88835700  1
  C  798  1  0.40112500  0.72368500  0.89555000  1
  N  364  1  0.00311100  0.45865700  0.26071000  1
  N  368  1  0.04785200  0.50315300  0.26033700  1
  N  374  1  0.00240400  0.54683300  0.26069800  1
  N  380  1  0.95766100  0.50233900  0.26031700  1
  N  435  1  0.86811000  0.63513200  0.25934600  1
  N  436  1  0.13595600  0.63677200  0.25811800  1
  N  437  1  0.13745900  0.37041800  0.25949100  1
  N  438  1  0.86956400  0.36872100  0.25810800  1
  N  442  1  0.00245100  0.45868800  0.74527500  1
  N  446  1  0.95771300  0.50319200  0.74569700  1
  N  452  1  0.00317000  0.54686700  0.74527500  1
  N  458  1  0.04791000  0.50236400  0.74562100  1
  N  513  1  0.13745000  0.63518400  0.74636800  1
  N  514  1  0.86969000  0.63690000  0.74779000  1
  N  515  1  0.86816200  0.37038300  0.74645300  1
  N  516  1  0.13598900  0.36872100  0.74754400  1
  N  520  1  0.26317200  0.00303000  0.45861400  1
  N  524  1  0.26306800  0.04787300  0.50293400  1
  N  530  1  0.26319000  0.00249100  0.54680200  1
  N  536  1  0.26293600  0.95764900  0.50248200  1
  N  591  1  0.25864600  0.86787800  0.63509300  1
  N  592  1  0.25655300  0.13619400  0.63639300  1
  N  593  1  0.25884500  0.13772400  0.37041200  1
  N  594  1  0.25648100  0.86945000  0.36892000  1
  N  598  1  0.74282000  0.00253200  0.45865700  1
  N  602  1  0.74300800  0.95769700  0.50298700  1
  N  608  1  0.74281000  0.00308600  0.54684400  1
  N  614  1  0.74299000  0.04792600  0.50251100  1
  N  669  1  0.74711300  0.13769100  0.63514900  1
  N  670  1  0.74936800  0.86944400  0.63653400  1
  N  671  1  0.74713800  0.86790700  0.37038300  1
  N  672  1  0.74911700  0.13603600  0.36884100  1
  N  676  1  0.45866500  0.26202900  0.00295000  1
  N  680  1  0.50290000  0.26185300  0.04789300  1
  N  686  1  0.54682700  0.26205400  0.00258400  1
  N  692  1  0.50259200  0.26182400  0.95764100  1
  N  747  1  0.63597500  0.25657400  0.86874200  1
  N  748  1  0.63652300  0.25588000  0.13609400  1
  N  749  1  0.36955300  0.25674800  0.13682800  1
  N  750  1  0.36899600  0.25577500  0.86941900  1
  N  754  1  0.45868600  0.74396700  0.00261700  1
  N  758  1  0.50292700  0.74421300  0.95767800  1
  N  764  1  0.54684600  0.74396900  0.00299200  1
  N  770  1  0.50260400  0.74413000  0.04793200  1
  N  825  1  0.63601400  0.74918800  0.13682100  1
  N  826  1  0.63661600  0.75001400  0.86953300  1
  N  827  1  0.36953000  0.74925400  0.86877700  1
  N  828  1  0.36894900  0.74996800  0.13611200  1
