# generated using pymatgen
data_H9(C6N)2
_symmetry_space_group_name_H-M   'P 1'
_cell_length_a   44.53059325
_cell_length_b   44.53059325
_cell_length_c   44.53059325
_cell_angle_alpha   109.47122063
_cell_angle_beta   109.47122063
_cell_angle_gamma   109.47122063
_symmetry_Int_Tables_number   1
_chemical_formula_structural   H9(C6N)2
_chemical_formula_sum   'H432 C576 N96'
_cell_volume   67975.67865098
_cell_formula_units_Z   48
loop_
 _symmetry_equiv_pos_site_id
 _symmetry_equiv_pos_as_xyz
  1  'x, y, z'
loop_
 _atom_site_type_symbol
 _atom_site_label
 _atom_site_symmetry_multiplicity
 _atom_site_fract_x
 _atom_site_fract_y
 _atom_site_fract_z
 _atom_site_occupancy
  C  1  1  0.15439350  0.09424750  0.20422500  1
  C  2  1  0.13700000  0.08634350  0.22437650  1
  C  3  1  0.15312350  0.10952900  0.26270350  1
  C  4  1  0.18478150  0.14441500  0.27910650  1
  C  5  1  0.20734850  0.14848600  0.26270550  1
  C  6  1  0.19194000  0.12319200  0.22469900  1
  C  9  1  0.13324150  0.07342750  0.16440900  1
  C  10  1  0.11346150  0.03397350  0.14295200  1
  C  11  1  0.08740650  0.01610400  0.10464950  1
  C  12  1  0.08197350  0.03820250  0.08875800  1
  C  13  1  0.10730250  0.07648750  0.10758400  1
  C  14  1  0.13147200  0.09370000  0.14564300  1
  C  27  1  0.36542000  0.05751400  0.44944500  1
  C  28  1  0.38371400  0.09526300  0.45959600  1
  C  29  1  0.36833450  0.11820800  0.46711150  1
  C  30  1  0.33702200  0.10367950  0.47108250  1
  C  31  1  0.31366900  0.06482250  0.45256450  1
  C  32  1  0.32794200  0.04142500  0.44137400  1
  C  35  1  0.38415100  0.03632200  0.44635400  1
  C  36  1  0.40058500  0.03211000  0.42358800  1
  C  37  1  0.41907700  0.01114950  0.42340950  1
  C  38  1  0.41904350  0.99243200  0.44420050  1
  C  39  1  0.40023750  0.99433200  0.46469650  1
  C  40  1  0.38565550  0.01823400  0.46731850  1
  C  53  1  0.61885700  0.40597250  0.04955150  1
  C  54  1  0.64742600  0.41446800  0.04076500  1
  C  55  1  0.66353000  0.39204300  0.03478600  1
  C  56  1  0.64548700  0.35709850  0.03160950  1
  C  57  1  0.62398550  0.35231350  0.04902000  1
  C  58  1  0.61064800  0.37713400  0.05833800  1
  C  61  1  0.59848950  0.42547150  0.04761100  1
  C  62  1  0.61481000  0.46471950  0.06551350  1
  C  63  1  0.59268300  0.48069500  0.05576800  1
  C  64  1  0.55477650  0.45720950  0.02763200  1
  C  65  1  0.53717800  0.41882000  0.01520300  1
  C  66  1  0.55955600  0.40388700  0.02559800  1
  C  79  1  0.90059200  0.44148200  0.29599100  1
  C  80  1  0.87210650  0.40411700  0.27543950  1
  C  81  1  0.85717100  0.38205450  0.23715850  1
  C  82  1  0.87567450  0.39726750  0.22073700  1
  C  83  1  0.89734950  0.43622800  0.23773050  1
  C  84  1  0.91022700  0.45857450  0.27590250  1
  C  87  1  0.91830800  0.45967850  0.33582050  1
  C  88  1  0.89903550  0.46126500  0.35600750  1
  C  89  1  0.91714600  0.47093200  0.39385900  1
  C  90  1  0.95509500  0.48110900  0.41138300  1
  C  91  1  0.97611000  0.48821100  0.39396500  1
  C  92  1  0.95709100  0.47549800  0.35595400  1
  C  105  1  0.95023850  0.79579700  0.89001950  1
  C  106  1  0.91267950  0.77568200  0.86200550  1
  C  107  1  0.89045300  0.73735750  0.84685750  1
  C  108  1  0.90568900  0.72093500  0.86532700  1
  C  109  1  0.94465350  0.73729700  0.88576550  1
  C  110  1  0.96728000  0.77528450  0.89844350  1
  C  113  1  0.96899750  0.83562000  0.90902250  1
  C  114  1  0.97078600  0.85710050  0.89104950  1
  C  115  1  0.98349300  0.89551200  0.91159800  1
  C  116  1  0.99420550  0.91147050  0.94965700  1
  C  117  1  0.00039850  0.89248050  0.96901000  1
  C  118  1  0.98605200  0.85434200  0.94806700  1
  C  131  1  0.91594850  0.55055450  0.60806600  1
  C  132  1  0.92407700  0.54038750  0.63565250  1
  C  133  1  0.90117750  0.53287450  0.65107900  1
  C  134  1  0.86590400  0.52892450  0.63258950  1
  C  135  1  0.86108150  0.54745100  0.61225650  1
  C  136  1  0.88655200  0.55864050  0.60005550  1
  C  139  1  0.93777150  0.55363600  0.58996450  1
  C  140  1  0.97697650  0.57636100  0.60851550  1
  C  141  1  0.99564550  0.57651350  0.58773100  1
  C  142  1  0.97481750  0.55573800  0.54822350  1
  C  143  1  0.93551250  0.53529550  0.52962900  1
  C  144  1  0.91830500  0.53269100  0.55090900  1
  C  157  1  0.56931150  0.95044750  0.35642300  1
  C  158  1  0.60666850  0.95923500  0.37370550  1
  C  159  1  0.62874900  0.96521050  0.35725650  1
  C  160  1  0.61387800  0.96838200  0.32548600  1
  C  161  1  0.57496600  0.95096500  0.30329200  1
  C  162  1  0.55231350  0.94165250  0.31879600  1
  C  165  1  0.55088600  0.95238950  0.37786450  1
  C  166  1  0.54930450  0.93448800  0.39921050  1
  C  167  1  0.53692250  0.94423500  0.42493050  1
  C  168  1  0.52715200  0.97237050  0.42957950  1
  C  169  1  0.52198100  0.98479750  0.40361750  1
  C  170  1  0.53396650  0.97440300  0.37829150  1
  C  183  1  0.60461100  0.70400900  0.14546600  1
  C  184  1  0.59666850  0.72455800  0.12865150  1
  C  185  1  0.62000500  0.76284050  0.14486950  1
  C  186  1  0.65493200  0.77926800  0.17650500  1
  C  187  1  0.65961800  0.76227650  0.19847450  1
  C  188  1  0.63433250  0.72410300  0.18264950  1
  C  191  1  0.58250850  0.66417800  0.12383150  1
  C  192  1  0.54304900  0.64397850  0.10521750  1
  C  193  1  0.52332050  0.60612750  0.07703700  1
  C  194  1  0.54375800  0.58861400  0.06969700  1
  C  195  1  0.58219600  0.60605300  0.09421500  1
  C  196  1  0.60116950  0.64405700  0.11952550  1
  C  209  1  0.06022500  0.11002000  0.90578800  1
  C  210  1  0.05073250  0.13807100  0.91370550  1
  C  211  1  0.04367450  0.15322700  0.89053250  1
  C  212  1  0.04044500  0.13475500  0.85564400  1
  C  213  1  0.05894950  0.11429300  0.85156650  1
  C  214  1  0.06884200  0.10157650  0.87685450  1
  C  217  1  0.05981150  0.09093850  0.92652500  1
  C  218  1  0.07943800  0.10882200  0.96597300  1
  C  219  1  0.07125900  0.08825400  0.98373000  1
  C  220  1  0.04363250  0.05029550  0.96153300  1
  C  221  1  0.03058900  0.03095400  0.92321700  1
  C  222  1  0.03772650  0.05190650  0.90614300  1
  C  235  1  0.30790500  0.39193600  0.94248800  1
  C  236  1  0.28845200  0.36434350  0.90473850  1
  C  237  1  0.25012900  0.34891650  0.88179250  1
  C  238  1  0.23334250  0.36741200  0.89631950  1
  C  239  1  0.24884450  0.38775100  0.93517650  1
  C  240  1  0.28651600  0.39995500  0.95857600  1
  C  243  1  0.34782700  0.41003600  0.96368000  1
  C  244  1  0.36847150  0.39148200  0.96789150  1
  C  245  1  0.40792350  0.41226300  0.98885550  1
  C  246  1  0.42660950  0.45177050  0.00757400  1
  C  247  1  0.40590350  0.47036850  0.00567200  1
  C  248  1  0.36742050  0.44908950  0.98177000  1
  C  261  1  0.21287800  0.64353450  0.59402050  1
  C  262  1  0.23295350  0.62626150  0.58551500  1
  C  263  1  0.27148550  0.64271350  0.60793000  1
  C  264  1  0.28838700  0.67448100  0.64287700  1
  C  265  1  0.27166650  0.69667250  0.64766500  1
  C  266  1  0.23350500  0.68116100  0.62285800  1
  C  269  1  0.17301200  0.62208750  0.57452450  1
  C  270  1  0.15008350  0.60075750  0.53527600  1
  C  271  1  0.11198500  0.57502900  0.51929800  1
  C  272  1  0.09757500  0.57033850  0.54278150  1
  C  273  1  0.11835850  0.59628900  0.58117250  1
  C  274  1  0.15566400  0.62163900  0.59610900  1
  C  287  1  0.45914500  0.85452500  0.55853400  1
  C  288  1  0.46801550  0.87133650  0.59589700  1
  C  289  1  0.47513900  0.85511700  0.61795900  1
  C  290  1  0.47843250  0.82348400  0.60274950  1
  C  291  1  0.46115100  0.80151800  0.56379000  1
  C  292  1  0.45168500  0.81734300  0.54144200  1
  C  295  1  0.45867700  0.87616150  0.54033950  1
  C  296  1  0.43783150  0.89477700  0.53875350  1
  C  297  1  0.44628750  0.92296300  0.52908950  1
  C  298  1  0.47406550  0.93030200  0.51891650  1
  C  299  1  0.48798750  0.90578500  0.51183750  1
  C  300  1  0.48164600  0.88047100  0.52452800  1
  C  313  1  0.65444200  0.20421700  0.09421400  1
  C  314  1  0.63701100  0.22433900  0.08631300  1
  C  315  1  0.65311250  0.26266350  0.10949200  1
  C  316  1  0.68477350  0.27908250  0.14438200  1
  C  317  1  0.70737000  0.26271350  0.14845150  1
  C  318  1  0.69199700  0.22472100  0.12314900  1
  C  321  1  0.63334700  0.16439750  0.07342150  1
  C  322  1  0.61360200  0.14289250  0.03396750  1
  C  323  1  0.58778800  0.10451950  0.01613750  1
  C  324  1  0.58246750  0.08863000  0.03826850  1
  C  325  1  0.60769700  0.10759550  0.07659450  1
  C  326  1  0.63165950  0.14569200  0.09375650  1
  C  339  1  0.86538800  0.44943550  0.05750650  1
  C  340  1  0.88368850  0.45961450  0.09526300  1
  C  341  1  0.86830300  0.46712600  0.11820200  1
  C  342  1  0.83697800  0.47107600  0.10366000  1
  C  343  1  0.81362350  0.45253750  0.06480000  1
  C  344  1  0.82790450  0.44134200  0.04141050  1
  C  347  1  0.88413150  0.44636050  0.03632400  1
  C  348  1  0.90064850  0.42366650  0.03218300  1
  C  349  1  0.91918300  0.42353600  0.01126400  1
  C  350  1  0.91911200  0.44429550  0.99251650  1
  C  351  1  0.90019750  0.46468800  0.99431650  1
  C  352  1  0.88558100  0.46728100  0.01818900  1
  C  365  1  0.11886200  0.04950350  0.40597150  1
  C  366  1  0.14744850  0.04074250  0.41447400  1
  C  367  1  0.16356750  0.03479300  0.39206150  1
  C  368  1  0.14552650  0.03162900  0.35712250  1
  C  369  1  0.12401800  0.04903100  0.35234200  1
  C  370  1  0.11065100  0.05830400  0.37714400  1
  C  373  1  0.09849200  0.04753600  0.42546700  1
  C  374  1  0.11481450  0.06546100  0.46471650  1
  C  375  1  0.09269900  0.05570100  0.48069700  1
  C  376  1  0.05481850  0.02749150  0.45721400  1
  C  377  1  0.03720100  0.01504600  0.41882200  1
  C  378  1  0.05956150  0.02548350  0.40388500  1
  C  391  1  0.40061150  0.29599250  0.44144400  1
  C  392  1  0.37211500  0.27544600  0.40408100  1
  C  393  1  0.35716750  0.23716300  0.38201350  1
  C  394  1  0.37566850  0.22073450  0.39721700  1
  C  395  1  0.39735000  0.23772300  0.43617600  1
  C  396  1  0.41023900  0.27589650  0.45852850  1
  C  399  1  0.41834050  0.33582550  0.45964600  1
  C  400  1  0.39908000  0.35602500  0.46123400  1
  C  401  1  0.41720350  0.39387850  0.47090800  1
  C  402  1  0.45515550  0.41139250  0.48108500  1
  C  403  1  0.47615450  0.39395400  0.48816250  1
  C  404  1  0.45712300  0.35594700  0.47546300  1
  C  417  1  0.45019700  0.88999550  0.79577150  1
  C  418  1  0.41264950  0.86194600  0.77563450  1
  C  419  1  0.39043700  0.84679750  0.73730850  1
  C  420  1  0.40568200  0.86527450  0.72089650  1
  C  421  1  0.44464700  0.88573300  0.73728000  1
  C  422  1  0.46725700  0.89844450  0.77528250  1
  C  425  1  0.46887550  0.90904250  0.83559000  1
  C  426  1  0.47060350  0.89111500  0.85711250  1
  C  427  1  0.48298750  0.91164100  0.89544050  1
  C  428  1  0.49340200  0.94962100  0.91126300  1
  C  429  1  0.49974750  0.96899800  0.89232950  1
  C  430  1  0.48584800  0.94807700  0.85428100  1
  C  443  1  0.41596750  0.60806650  0.55055900  1
  C  444  1  0.42410700  0.63565950  0.54040350  1
  C  445  1  0.40121000  0.65108550  0.53288050  1
  C  446  1  0.36592500  0.63258600  0.52891000  1
  C  447  1  0.36108950  0.61224950  0.54743000  1
  C  448  1  0.38655700  0.60004550  0.55862550  1
  C  451  1  0.43779000  0.58996650  0.55365150  1
  C  452  1  0.47699000  0.60852100  0.57641800  1
  C  453  1  0.49566300  0.58774250  0.57659850  1
  C  454  1  0.47484100  0.54823400  0.55580600  1
  C  455  1  0.43553900  0.52963550  0.53530750  1
  C  456  1  0.41833300  0.55091550  0.53268750  1
  C  469  1  0.06936800  0.35648700  0.95051400  1
  C  470  1  0.10671450  0.37375500  0.95927050  1
  C  471  1  0.12879000  0.35729800  0.96523100  1
  C  472  1  0.11392400  0.32553300  0.96841200  1
  C  473  1  0.07501350  0.30334700  0.95101650  1
  C  474  1  0.05236500  0.31886350  0.94172950  1
  C  477  1  0.05096000  0.37794550  0.95247250  1
  C  478  1  0.04934750  0.39925800  0.93453750  1
  C  479  1  0.03698800  0.42499700  0.94429200  1
  C  480  1  0.02732050  0.42973100  0.97250550  1
  C  481  1  0.02215550  0.40378950  0.98495800  1
  C  482  1  0.03408300  0.37841600  0.97452600  1
  C  495  1  0.10461050  0.14548850  0.70401000  1
  C  496  1  0.09667900  0.12867400  0.72456200  1
  C  497  1  0.12003300  0.14488950  0.76283950  1
  C  498  1  0.15496000  0.17651550  0.77925650  1
  C  499  1  0.15964050  0.19848550  0.76226600  1
  C  500  1  0.13433850  0.18266500  0.72409550  1
  C  503  1  0.08248400  0.12386100  0.66418000  1
  C  504  1  0.04302300  0.10527500  0.64400700  1
  C  505  1  0.02326400  0.07709650  0.60615050  1
  C  506  1  0.04367650  0.06974450  0.58861200  1
  C  507  1  0.08210550  0.09426600  0.60601150  1
  C  508  1  0.10111850  0.11954150  0.64403000  1
  C  521  1  0.56018700  0.90576950  0.10998350  1
  C  522  1  0.55067600  0.91367350  0.13802250  1
  C  523  1  0.54360400  0.89048950  0.15316350  1
  C  524  1  0.54037350  0.85560100  0.13468550  1
  C  525  1  0.55888600  0.85152950  0.11423150  1
  C  526  1  0.56879600  0.87682850  0.10153150  1
  C  529  1  0.55987450  0.92658050  0.09097600  1
  C  530  1  0.57956950  0.96603450  0.10895400  1
  C  531  1  0.57148650  0.98388950  0.08847100  1
  C  532  1  0.54399700  0.96177850  0.05046450  1
  C  533  1  0.53097050  0.92347200  0.03104950  1
  C  534  1  0.53784250  0.90628050  0.05193700  1
  C  547  1  0.80788750  0.94248900  0.39192550  1
  C  548  1  0.78842750  0.90473450  0.36434300  1
  C  549  1  0.75010400  0.88179700  0.34891600  1
  C  550  1  0.73332200  0.89633900  0.36741000  1
  C  551  1  0.74883050  0.93519800  0.38773750  1
  C  552  1  0.78650050  0.95858750  0.39993300  1
  C  555  1  0.84781300  0.96366900  0.41003100  1
  C  556  1  0.86847100  0.96781600  0.39148000  1
  C  557  1  0.90792550  0.98873500  0.41226750  1
  C  558  1  0.92660000  0.00747550  0.45177350  1
  C  559  1  0.90588650  0.00567100  0.47036650  1
  C  560  1  0.86739750  0.98180050  0.44908700  1
  C  573  1  0.71289750  0.59404200  0.64359750  1
  C  574  1  0.73296800  0.58554150  0.62631250  1
  C  575  1  0.77149600  0.60796150  0.64275450  1
  C  576  1  0.78840150  0.64290850  0.67452300  1
  C  577  1  0.77168850  0.64769800  0.69672250  1
  C  578  1  0.73353000  0.62288000  0.68122100  1
  C  581  1  0.67302900  0.57454200  0.62215800  1
  C  582  1  0.65010150  0.53529400  0.60081150  1
  C  583  1  0.61199900  0.51931750  0.57508950  1
  C  584  1  0.59757850  0.54280400  0.57044050  1
  C  585  1  0.61836800  0.58119400  0.59640300  1
  C  586  1  0.65568100  0.59612800  0.62173200  1
  C  599  1  0.95910400  0.55852100  0.85450400  1
  C  600  1  0.96798200  0.59588450  0.87133550  1
  C  601  1  0.97513350  0.61796750  0.85514200  1
  C  602  1  0.97845550  0.60278200  0.82352450  1
  C  603  1  0.96116950  0.56382500  0.80153550  1
  C  604  1  0.95166950  0.54145450  0.81732900  1
  C  607  1  0.95858950  0.54029750  0.87611200  1
  C  608  1  0.93771050  0.53870400  0.89469350  1
  C  609  1  0.94613200  0.52902700  0.92287200  1
  C  610  1  0.97389600  0.51884100  0.93022200  1
  C  611  1  0.98780150  0.51171800  0.90569850  1
  C  612  1  0.98154050  0.52446650  0.88042700  1
  C  1249  1  0.08652400  0.11816700  0.04883400  1
  C  1250  1  0.09568950  0.11497500  0.08092750  1
  C  1251  1  0.11268200  0.09405900  0.08680700  1
  C  1252  1  0.12269250  0.07908150  0.06085600  1
  C  1253  1  0.11403250  0.08264850  0.02929900  1
  C  1254  1  0.09422750  0.10082250  0.02160000  1
  C  1259  1  0.43133800  0.97313200  0.53915900  1
  C  1260  1  0.41928500  0.99178850  0.52202650  1
  C  1261  1  0.39711100  0.97376000  0.48328800  1
  C  1262  1  0.38266300  0.93524700  0.46336700  1
  C  1263  1  0.39500000  0.91687300  0.48047000  1
  C  1264  1  0.42154150  0.93598100  0.51832150  1
  C  1269  1  0.43829450  0.38685050  0.96046300  1
  C  1270  1  0.47227250  0.38851250  0.96695500  1
  C  1271  1  0.49884550  0.39868800  0.00228950  1
  C  1272  1  0.48775650  0.40127750  0.02899600  1
  C  1273  1  0.45354700  0.39898700  0.02231400  1
  C  1274  1  0.42935700  0.39449900  0.98883800  1
  C  1279  1  0.07625300  0.52559000  0.45394600  1
  C  1280  1  0.04124650  0.50317750  0.42150700  1
  C  1281  1  0.01447200  0.51431850  0.41600750  1
  C  1282  1  0.02516850  0.54984350  0.44267500  1
  C  1283  1  0.06004750  0.57229000  0.47454850  1
  C  1284  1  0.08585350  0.56007300  0.48170150  1
  C  1289  1  0.03765500  0.95093500  0.06927500  1
  C  1290  1  0.01495200  0.91884400  0.03398300  1
  C  1291  1  0.02635850  0.91307050  0.00741200  1
  C  1292  1  0.06240600  0.93909100  0.01866400  1
  C  1293  1  0.08508750  0.97063400  0.05380350  1
  C  1294  1  0.07266600  0.97825250  0.07941550  1
  C  1299  1  0.89209050  0.46086800  0.43393550  1
  C  1300  1  0.89717850  0.47799400  0.46972750  1
  C  1301  1  0.91379550  0.51673700  0.49046850  1
  C  1302  1  0.91931600  0.53667900  0.47190500  1
  C  1303  1  0.91453450  0.51957950  0.43642000  1
  C  1304  1  0.90316950  0.48171600  0.41764350  1
  C  1309  1  0.47784000  0.03954150  0.42638850  1
  C  1310  1  0.50532650  0.03304700  0.42155950  1
  C  1311  1  0.49656350  0.99771250  0.39640000  1
  C  1312  1  0.45876750  0.97100750  0.37228300  1
  C  1313  1  0.43124100  0.97768900  0.37667600  1
  C  1314  1  0.44052700  0.01116550  0.40566250  1
  C  1319  1  0.62226700  0.54599000  0.07157200  1
  C  1320  1  0.61971850  0.57843950  0.08157300  1
  C  1321  1  0.59853400  0.58402750  0.09830350  1
  C  1322  1  0.58262050  0.55742700  0.10725750  1
  C  1323  1  0.58559750  0.52553600  0.09784450  1
  C  1324  1  0.60415650  0.51830000  0.07839450  1
  C  1329  1  0.96838700  0.93048750  0.88163550  1
  C  1330  1  0.98056650  0.96578300  0.88485750  1
  C  1331  1  0.01845400  0.99262000  0.90553700  1
  C  1332  1  0.04358600  0.98167700  0.92024800  1
  C  1333  1  0.03153450  0.94655250  0.91667300  1
  C  1334  1  0.99359750  0.92064300  0.89876850  1
  C  1339  1  0.45820000  0.56602750  0.02686850  1
  C  1340  1  0.42749150  0.53023900  0.00821350  1
  C  1341  1  0.42334850  0.50953050  0.02624400  1
  C  1342  1  0.44741300  0.52812250  0.06475650  1
  C  1343  1  0.47812350  0.56360050  0.08312800  1
  C  1344  1  0.48555600  0.58234250  0.06401850  1
  C  1349  1  0.05142950  0.57353100  0.61314050  1
  C  1350  1  0.08373950  0.57834850  0.61146600  1
  C  1351  1  0.10013750  0.60350050  0.60128400  1
  C  1352  1  0.08645050  0.62760800  0.59867450  1
  C  1353  1  0.05453400  0.62322250  0.60096650  1
  C  1354  1  0.03484250  0.59425600  0.60548550  1
  C  1359  1  0.55070400  0.92843200  0.47442300  1
  C  1360  1  0.53815250  0.91842900  0.49686950  1
  C  1361  1  0.50023700  0.90169700  0.48572500  1
  C  1362  1  0.47536900  0.89274250  0.45017050  1
  C  1363  1  0.48776100  0.90215800  0.42769400  1
  C  1364  1  0.52577150  0.92161050  0.43990900  1
  C  1369  1  0.58672850  0.04898450  0.11833300  1
  C  1370  1  0.59596300  0.08107050  0.11512350  1
  C  1371  1  0.61312200  0.08696500  0.09434200  1
  C  1372  1  0.62325700  0.06105650  0.07955850  1
  C  1373  1  0.61453450  0.02951100  0.08314750  1
  C  1374  1  0.59453100  0.02177450  0.10114350  1
  C  1379  1  0.93109450  0.53908050  0.97297600  1
  C  1380  1  0.91907750  0.52196100  0.99165750  1
  C  1381  1  0.89700700  0.48321350  0.97368350  1
  C  1382  1  0.88261100  0.46325000  0.93518400  1
  C  1383  1  0.89490500  0.48034400  0.91678400  1
  C  1384  1  0.92135350  0.51822250  0.93584900  1
  C  1389  1  0.93829350  0.96033700  0.38685150  1
  C  1390  1  0.97228200  0.96682750  0.38853850  1
  C  1391  1  0.99887250  0.00216100  0.39873050  1
  C  1392  1  0.98780750  0.02888800  0.40135450  1
  C  1393  1  0.95360100  0.02221650  0.39906250  1
  C  1394  1  0.92937400  0.98872500  0.39451900  1
  C  1399  1  0.57629000  0.45402200  0.52559300  1
  C  1400  1  0.54129300  0.42157150  0.50314150  1
  C  1401  1  0.51451750  0.41597850  0.51428000  1
  C  1402  1  0.52520100  0.44257800  0.54983400  1
  C  1403  1  0.56006850  0.47447150  0.57231600  1
  C  1404  1  0.58586850  0.48171200  0.56010750  1
  C  1409  1  0.53781600  0.06943400  0.95112300  1
  C  1410  1  0.51480150  0.03414100  0.91904250  1
  C  1411  1  0.52590900  0.00734550  0.91301450  1
  C  1412  1  0.56194700  0.01832950  0.93879750  1
  C  1413  1  0.58492450  0.05345700  0.97034850  1
  C  1414  1  0.57283050  0.07932450  0.97821600  1
  C  1419  1  0.39218350  0.43397900  0.46084050  1
  C  1420  1  0.39726000  0.46976500  0.47797600  1
  C  1421  1  0.41382200  0.49047250  0.51671350  1
  C  1422  1  0.41929450  0.47187850  0.53663300  1
  C  1423  1  0.41452950  0.43640200  0.51952650  1
  C  1424  1  0.40322300  0.41766300  0.48167500  1
  C  1429  1  0.97795600  0.42653000  0.03966500  1
  C  1430  1  0.00545600  0.42173000  0.03317700  1
  C  1431  1  0.99671350  0.39658400  0.99784650  1
  C  1432  1  0.95892300  0.37247700  0.97112100  1
  C  1433  1  0.93138500  0.37685150  0.97779050  1
  C  1434  1  0.94064750  0.40580200  0.01127850  1
  C  1439  1  0.12235100  0.07170600  0.54610200  1
  C  1440  1  0.11976650  0.08175300  0.57853150  1
  C  1441  1  0.09840950  0.09831000  0.58395150  1
  C  1442  1  0.08238250  0.10707900  0.55722250  1
  C  1443  1  0.08541500  0.09764200  0.52536400  1
  C  1444  1  0.10415700  0.07835050  0.51829050  1
  C  1449  1  0.46837450  0.88175800  0.93066250  1
  C  1450  1  0.48078450  0.88495850  0.96595400  1
  C  1451  1  0.51871100  0.90581700  0.99268800  1
  C  1452  1  0.54365600  0.92070400  0.98163200  1
  C  1453  1  0.53137850  0.91712550  0.94650400  1
  C  1454  1  0.49338750  0.89903150  0.92070400  1
  C  1459  1  0.95812100  0.02699700  0.56609500  1
  C  1460  1  0.92742400  0.00832000  0.53029400  1
  C  1461  1  0.92333050  0.02630050  0.50952700  1
  C  1462  1  0.94743700  0.06479850  0.52806850  1
  C  1463  1  0.97812950  0.08319300  0.56356150  1
  C  1464  1  0.98551200  0.06412600  0.58237100  1
  C  1469  1  0.55145100  0.61316050  0.57362650  1
  C  1470  1  0.58377000  0.61149950  0.57846050  1
  C  1471  1  0.60016600  0.60132250  0.60361950  1
  C  1472  1  0.58647900  0.59872800  0.62773000  1
  C  1473  1  0.55456000  0.60101600  0.62333500  1
  C  1474  1  0.53486100  0.60550750  0.59434950  1
  C  1479  1  0.05062100  0.47438500  0.92826900  1
  C  1480  1  0.03798200  0.49675900  0.91821400  1
  C  1481  1  0.00006650  0.48561850  0.90165900  1
  C  1482  1  0.97527750  0.45012200  0.89290050  1
  C  1483  1  0.98775600  0.42770950  0.90234650  1
  C  1484  1  0.02579050  0.43993250  0.92163500  1
  C  1729  1  0.09920000  0.05467100  0.29579000  1
  C  1730  1  0.10659600  0.06949950  0.27372750  1
  C  1731  1  0.14262700  0.09630450  0.28542750  1
  C  1732  1  0.17056250  0.10730200  0.32056350  1
  C  1733  1  0.16313200  0.09422300  0.34329100  1
  C  1734  1  0.12750900  0.06677400  0.33099000  1
  C  1739  1  0.42222500  0.20517900  0.46565500  1
  C  1740  1  0.41479450  0.17540950  0.47269900  1
  C  1741  1  0.37896750  0.15148550  0.46428300  1
  C  1742  1  0.35127000  0.15939000  0.44827500  1
  C  1743  1  0.35874250  0.18973650  0.44286900  1
  C  1744  1  0.39422800  0.21293050  0.45061350  1
  C  1749  1  0.75099900  0.44642850  0.03463750  1
  C  1750  1  0.71419650  0.43166400  0.02753150  1
  C  1751  1  0.69975500  0.40596250  0.03816150  1
  C  1752  1  0.72451750  0.39626850  0.05647800  1
  C  1753  1  0.76028050  0.40936350  0.06195800  1
  C  1754  1  0.77472450  0.43546450  0.05203300  1
  C  1759  1  0.77006700  0.29440100  0.20423200  1
  C  1760  1  0.80687200  0.32399600  0.22606900  1
  C  1761  1  0.82125200  0.34888550  0.21460250  1
  C  1762  1  0.79658100  0.34220100  0.17999000  1
  C  1763  1  0.76083700  0.31188650  0.15742650  1
  C  1764  1  0.74637850  0.28793500  0.16948150  1
  C  1769  1  0.80345000  0.70427550  0.75890650  1
  C  1770  1  0.83291450  0.72634400  0.79579550  1
  C  1771  1  0.85723800  0.71464050  0.81090550  1
  C  1772  1  0.85003200  0.67949950  0.78676850  1
  C  1773  1  0.81987100  0.65676850  0.75096250  1
  C  1774  1  0.79655000  0.66906900  0.73581400  1
  C  1779  1  0.95651400  0.53431250  0.73949850  1
  C  1780  1  0.94202900  0.52725950  0.70268150  1
  C  1781  1  0.91464050  0.53570450  0.68718500  1
  C  1782  1  0.90296800  0.55173500  0.71110600  1
  C  1783  1  0.91585800  0.55715550  0.74686250  1
  C  1784  1  0.94361450  0.54943550  0.76231500  1
  C  1789  1  0.71636700  0.96535900  0.41179200  1
  C  1790  1  0.68667000  0.97246400  0.40413200  1
  C  1791  1  0.66160000  0.96183800  0.36780100  1
  C  1792  1  0.66805150  0.94352750  0.33979200  1
  C  1793  1  0.69833500  0.93805000  0.34740800  1
  C  1794  1  0.72270000  0.94796800  0.38343300  1
  C  1799  1  0.56580800  0.79575250  0.09013850  1
  C  1800  1  0.58078000  0.77391850  0.09789650  1
  C  1801  1  0.60663750  0.78539300  0.13425150  1
  C  1802  1  0.61658450  0.82001100  0.16217650  1
  C  1803  1  0.60340050  0.84257100  0.15442250  1
  C  1804  1  0.57687600  0.83050800  0.11841900  1
  C  1809  1  0.04458550  0.24115550  0.94539100  1
  C  1810  1  0.03717000  0.20427100  0.93057000  1
  C  1811  1  0.04639200  0.18917150  0.90375950  1
  C  1812  1  0.06331100  0.21331150  0.89275350  1
  C  1813  1  0.06894000  0.24911000  0.90582500  1
  C  1814  1  0.06077200  0.26425300  0.93327800  1
  C  1819  1  0.21706500  0.26050450  0.79481250  1
  C  1820  1  0.23939800  0.29731350  0.82458850  1
  C  1821  1  0.22748700  0.31281350  0.84850750  1
  C  1822  1  0.19188050  0.28889650  0.84059600  1
  C  1823  1  0.16900750  0.25315000  0.81024150  1
  C  1824  1  0.18131300  0.23771650  0.78705450  1
  C  1829  1  0.30456650  0.58818900  0.55353050  1
  C  1830  1  0.28253000  0.59584500  0.56829800  1
  C  1831  1  0.29378900  0.63217400  0.59400400  1
  C  1832  1  0.32824600  0.66018600  0.60369900  1
  C  1833  1  0.35091250  0.65257400  0.59060350  1
  C  1834  1  0.33925800  0.61655050  0.56449750  1
  C  1839  1  0.47566700  0.90983550  0.70560250  1
  C  1840  1  0.48288150  0.90208200  0.67601250  1
  C  1841  1  0.47238450  0.86572900  0.65112850  1
  C  1842  1  0.45440500  0.83780100  0.65781600  1
  C  1843  1  0.44897350  0.84555000  0.68812850  1
  C  1844  1  0.45845250  0.88155150  0.71207300  1
  C  1849  1  0.59917700  0.29573800  0.05462900  1
  C  1850  1  0.60657850  0.27367350  0.06945000  1
  C  1851  1  0.64260650  0.28538150  0.09626400  1
  C  1852  1  0.67053650  0.32052800  0.10727250  1
  C  1853  1  0.66310050  0.34325750  0.09420000  1
  C  1854  1  0.62748050  0.33094900  0.06674750  1
  C  1859  1  0.92222300  0.46570300  0.20518500  1
  C  1860  1  0.91478000  0.47273700  0.17541000  1
  C  1861  1  0.87894850  0.46431750  0.15149100  1
  C  1862  1  0.85125650  0.44831700  0.15940750  1
  C  1863  1  0.85874050  0.44292500  0.18976250  1
  C  1864  1  0.89423050  0.45067300  0.21294450  1
  C  1869  1  0.25104300  0.03465900  0.44645800  1
  C  1870  1  0.21424000  0.02754650  0.43168750  1
  C  1871  1  0.19979450  0.03817150  0.40598300  1
  C  1872  1  0.22455850  0.05649050  0.39629100  1
  C  1873  1  0.26032000  0.06197200  0.40938700  1
  C  1874  1  0.27476850  0.05205500  0.43549450  1
  C  1879  1  0.27005000  0.20425900  0.29438100  1
  C  1880  1  0.30685700  0.22609050  0.32396950  1
  C  1881  1  0.32124350  0.21461150  0.34884300  1
  C  1882  1  0.29657600  0.17999050  0.34214550  1
  C  1883  1  0.26083000  0.15743250  0.31183250  1
  C  1884  1  0.24636300  0.16950000  0.28790000  1
  C  1889  1  0.30342550  0.75886050  0.70423200  1
  C  1890  1  0.33288950  0.79574650  0.72629600  1
  C  1891  1  0.35721450  0.81085150  0.71459000  1
  C  1892  1  0.35000050  0.78671150  0.67944700  1
  C  1893  1  0.31983800  0.75091150  0.65671950  1
  C  1894  1  0.29652100  0.73576500  0.66902400  1
  C  1899  1  0.45655700  0.73949850  0.53431650  1
  C  1900  1  0.44208200  0.70269000  0.52728200  1
  C  1901  1  0.41466900  0.68718750  0.53569950  1
  C  1902  1  0.40297600  0.71110200  0.55169900  1
  C  1903  1  0.41584800  0.74684850  0.55709150  1
  C  1904  1  0.44359000  0.76228550  0.54934450  1
  C  1909  1  0.21638950  0.41181550  0.96534300  1
  C  1910  1  0.18670100  0.40416300  0.97246200  1
  C  1911  1  0.16163050  0.36783500  0.96184050  1
  C  1912  1  0.16806800  0.33981850  0.94351650  1
  C  1913  1  0.19834350  0.34742800  0.93802650  1
  C  1914  1  0.22271200  0.38345050  0.94794350  1
  C  1919  1  0.06585750  0.09018200  0.79578350  1
  C  1920  1  0.08081900  0.09792850  0.77393950  1
  C  1921  1  0.10667500  0.13428050  0.78540450  1
  C  1922  1  0.11663250  0.16221200  0.82002150  1
  C  1923  1  0.10345500  0.15446900  0.84258900  1
  C  1924  1  0.07693300  0.11846900  0.83053700  1
  C  1929  1  0.54453150  0.94534200  0.24110350  1
  C  1930  1  0.53710550  0.93052050  0.20421400  1
  C  1931  1  0.54633150  0.90371650  0.18911200  1
  C  1932  1  0.56326450  0.89271450  0.21324900  1
  C  1933  1  0.56890900  0.90579100  0.24905500  1
  C  1934  1  0.56073100  0.93323600  0.26419800  1
  C  1939  1  0.71702750  0.79481750  0.26049900  1
  C  1940  1  0.73936300  0.82458800  0.29731200  1
  C  1941  1  0.72745800  0.84851200  0.31281400  1
  C  1942  1  0.69185450  0.84060550  0.28889800  1
  C  1943  1  0.66898450  0.81025650  0.25314800  1
  C  1944  1  0.68127950  0.78706500  0.23770250  1
  C  1949  1  0.80456000  0.55355650  0.58820950  1
  C  1950  1  0.78252850  0.56832700  0.59587550  1
  C  1951  1  0.79379950  0.59404100  0.63220450  1
  C  1952  1  0.82826500  0.60374250  0.66020850  1
  C  1953  1  0.85092850  0.59064550  0.65258700  1
  C  1954  1  0.83926000  0.56452900  0.61656400  1
  C  1959  1  0.97564100  0.70559550  0.90986150  1
  C  1960  1  0.98285800  0.67600600  0.90210600  1
  C  1961  1  0.97237300  0.65113200  0.86575600  1
  C  1962  1  0.95440250  0.65782500  0.83782850  1
  C  1963  1  0.94896300  0.68813400  0.84557800  1
  C  1964  1  0.95843450  0.71207100  0.88157850  1
  H  7  1  0.11214150  0.06285850  0.21079000  1
  H  16  1  0.14811550  0.12170400  0.15987450  1
  H  19  1  0.20379200  0.10762700  0.18330300  1
  H  20  1  0.23844550  0.14535550  0.22154700  1
  H  21  1  0.10707000  0.98687400  0.14464700  1
  H  22  1  0.13949500  0.02497300  0.18375600  1
  H  23  1  0.03024350  0.99987950  0.04730900  1
  H  24  1  0.04416100  0.03930250  0.04891150  1
  H  25  1  0.21490400  0.19754100  0.32148000  1
  H  26  1  0.17787650  0.17176150  0.32086300  1
  H  33  1  0.40836350  0.10593650  0.46045000  1
  H  42  1  0.37342200  0.02050400  0.48318500  1
  H  45  1  0.31383200  0.98756000  0.41222900  1
  H  46  1  0.28037500  0.99256700  0.41684100  1
  H  47  1  0.40594250  0.04195000  0.38325150  1
  H  48  1  0.38098000  0.05664300  0.39664200  1
  H  49  1  0.45378950  0.97398050  0.43544600  1
  H  50  1  0.44361200  0.96649800  0.46457900  1
  H  51  1  0.30832300  0.11710450  0.49553250  1
  H  52  1  0.34560000  0.15289650  0.50625550  1
  H  59  1  0.65697650  0.43778950  0.03905200  1
  H  68  1  0.54697150  0.37596550  0.01501500  1
  H  71  1  0.58412950  0.39218050  0.08509700  1
  H  72  1  0.58504200  0.35470100  0.08237100  1
  H  73  1  0.66255800  0.51326050  0.10558250  1
  H  74  1  0.66538150  0.47640500  0.10203250  1
  H  75  1  0.54905800  0.49642150  0.01657950  1
  H  76  1  0.51170500  0.45674550  0.99100250  1
  H  77  1  0.63659450  0.30450850  0.00968000  1
  H  78  1  0.66212100  0.33079650  0.99913650  1
  H  85  1  0.86160800  0.39283650  0.28871550  1
  H  94  1  0.97201850  0.47824600  0.34284050  1
  H  97  1  0.93774700  0.51177350  0.31795550  1
  H  98  1  0.93774650  0.50818550  0.27988200  1
  H  99  1  0.84942200  0.45354850  0.35185450  1
  H  100  1  0.85117850  0.44901000  0.31428950  1
  H  101  1  0.95835700  0.47418500  0.45537500  1
  H  102  1  0.99579750  0.48459800  0.45316050  1
  H  103  1  0.88550000  0.38465950  0.17770350  1
  H  104  1  0.85957150  0.34836017  0.17788367  1
  H  111  1  0.90142500  0.78929150  0.85212750  1
  H  120  1  0.98828000  0.84003700  0.96178400  1
  H  123  1  0.02054700  0.81660950  0.92417950  1
  H  124  1  0.01691600  0.77835850  0.92366750  1
  H  125  1  0.96262750  0.85538000  0.84222950  1
  H  126  1  0.95553600  0.81615850  0.84109550  1
  H  127  1  0.98485150  0.95352700  0.95318550  1
  H  128  1  0.99678900  0.95161300  0.99080800  1
  H  129  1  0.89340500  0.67855700  0.87607400  1
  H  130  1  0.85701250  0.67921550  0.85093900  1
  H  137  1  0.94786450  0.53951850  0.64546700  1
  H  146  1  0.89020100  0.51685550  0.53731250  1
  H  149  1  0.90160650  0.58779900  0.57535550  1
  H  150  1  0.86353800  0.58319450  0.57574650  1
  H  151  1  0.02268700  0.61665850  0.65869550  1
  H  152  1  0.98433300  0.60331950  0.65999850  1
  H  153  1  0.01830850  0.56437200  0.53852750  1
  H  154  1  0.97898450  0.53533850  0.50190000  1
  H  155  1  0.81275650  0.50449500  0.62157150  1
  H  156  1  0.83929800  0.49375650  0.64663350  1
  H  163  1  0.61793400  0.96095200  0.39874100  1
  H  172  1  0.53196250  0.98498400  0.36095050  1
  H  175  1  0.49903750  0.91489450  0.30708900  1
  H  176  1  0.50267050  0.91760950  0.27233000  1
  H  177  1  0.55698550  0.89442200  0.40768550  1
  H  178  1  0.56335850  0.89796950  0.37437900  1
  H  179  1  0.53248500  0.98342350  0.47984350  1
  H  180  1  0.52071050  0.00900100  0.46574550  1
  H  181  1  0.62690900  0.99030950  0.29482150  1
  H  182  1  0.66298100  0.00086100  0.33165500  1
  H  189  1  0.57289600  0.71127900  0.10409300  1
  H  198  1  0.62921050  0.65718100  0.13539150  1
  H  201  1  0.61980450  0.68204950  0.19379600  1
  H  202  1  0.65787150  0.72012650  0.22828200  1
  H  203  1  0.49757650  0.64811400  0.10163950  1
  H  204  1  0.53688900  0.68568350  0.13467350  1
  H  205  1  0.50302200  0.54456800  0.01881400  1
  H  206  1  0.54270150  0.54684600  0.03142350  1
  H  207  1  0.70779000  0.82230100  0.20692700  1
  H  208  1  0.68167783  0.82211683  0.17044400  1
  H  215  1  0.04934200  0.14794650  0.93718550  1
  H  224  1  0.02638850  0.03821450  0.87814000  1
  H  227  1  0.09626500  0.07574850  0.89241150  1
  H  228  1  0.09320600  0.07628650  0.85469550  1
  H  229  1  0.12014500  0.15753750  0.01316250  1
  H  230  1  0.11447400  0.15871650  0.97513850  1
  H  231  1  0.03057800  0.04687900  0.00002100  1
  H  232  1  0.00441050  0.00950400  0.96023150  1
  H  233  1  0.01742650  0.12400050  0.80251700  1
  H  234  1  0.00617000  0.14914650  0.82830050  1
  H  241  1  0.30242950  0.35452500  0.89406650  1
  H  250  1  0.35291500  0.46268500  0.97949900  1
  H  253  1  0.32626700  0.42467100  0.01244100  1
  H  254  1  0.28780450  0.42427850  0.00743400  1
  H  255  1  0.36398750  0.34130400  0.95805150  1
  H  256  1  0.32433250  0.34000400  0.94335650  1
  H  257  1  0.47980500  0.46146750  0.02602450  1
  H  258  1  0.47711400  0.49808550  0.03350950  1
  H  259  1  0.19121950  0.37843900  0.88289550  1
  H  260  1  0.19270600  0.35337300  0.84710200  1
  H  267  1  0.21918250  0.60122700  0.56219150  1
  H  276  1  0.17099650  0.63897400  0.62403050  1
  H  279  1  0.19192450  0.69285650  0.60782800  1
  H  280  1  0.23032150  0.72761950  0.64529600  1
  H  281  1  0.14928850  0.59232300  0.48674150  1
  H  282  1  0.18896700  0.62562350  0.52360250  1
  H  283  1  0.05265900  0.52006350  0.50355050  1
  H  284  1  0.05499800  0.53412350  0.54323750  1
  H  285  1  0.33209000  0.70514500  0.69546200  1
  H  286  1  0.33133100  0.66831850  0.66917350  1
  H  293  1  0.46879850  0.89589300  0.60717650  1
  H  302  1  0.49382050  0.86460400  0.52178450  1
  H  305  1  0.42601250  0.80619900  0.48824450  1
  H  306  1  0.42959700  0.77171350  0.49183250  1
  H  307  1  0.39593850  0.89835500  0.54646850  1
  H  308  1  0.40221500  0.86532000  0.55100200  1
  H  309  1  0.48421500  0.98118700  0.52575700  1
  H  310  1  0.51128300  0.96857650  0.51542450  1
  H  311  1  0.50087100  0.79306350  0.61535950  1
  H  312  1  0.51123383  0.82954250  0.65165433  1
  H  319  1  0.61214250  0.21073250  0.06282900  1
  H  328  1  0.64824750  0.15999100  0.12177150  1
  H  331  1  0.70390950  0.18337250  0.10756600  1
  H  332  1  0.73854500  0.22162450  0.14529550  1
  H  333  1  0.60715150  0.14455200  0.98684150  1
  H  334  1  0.63938300  0.18375750  0.02491050  1
  H  335  1  0.53097600  0.04669500  0.99978100  1
  H  336  1  0.54476950  0.04872250  0.03938100  1
  H  337  1  0.71487200  0.32145200  0.19751000  1
  H  338  1  0.67782200  0.32080100  0.17172400  1
  H  345  1  0.90834850  0.46049200  0.10594750  1
  H  354  1  0.87328400  0.48309050  0.02040250  1
  H  357  1  0.81379350  0.41215950  0.98755300  1
  H  358  1  0.78032650  0.41676100  0.99254550  1
  H  359  1  0.90610750  0.38340300  0.04210050  1
  H  360  1  0.88104850  0.39669900  0.05670050  1
  H  361  1  0.95407000  0.43576950  0.97429450  1
  H  362  1  0.94367200  0.46470550  0.96659650  1
  H  363  1  0.80826300  0.49551450  0.11706350  1
  H  364  1  0.84554950  0.50626550  0.15286600  1
  H  371  1  0.15700000  0.03902400  0.43779400  1
  H  380  1  0.04697100  0.01490200  0.37596400  1
  H  383  1  0.08407750  0.08499950  0.39217100  1
  H  384  1  0.08501700  0.08232100  0.35471400  1
  H  385  1  0.16254850  0.10558050  0.51324800  1
  H  386  1  0.16535950  0.10202050  0.47638600  1
  H  387  1  0.04916050  0.01644800  0.49645650  1
  H  388  1  0.01181600  0.99077750  0.45675750  1
  H  389  1  0.13664300  0.00972200  0.30453400  1
  H  390  1  0.16216900  0.99917200  0.33081000  1
  H  397  1  0.36162300  0.28872700  0.39280500  1
  H  406  1  0.47203950  0.34282300  0.47820450  1
  H  409  1  0.43776500  0.31794300  0.51173100  1
  H  410  1  0.43775550  0.27986550  0.50813400  1
  H  411  1  0.34947300  0.35188900  0.45351900  1
  H  412  1  0.35121550  0.31431950  0.44898100  1
  H  413  1  0.45846600  0.45544000  0.47424900  1
  H  414  1  0.49586900  0.45316400  0.48458400  1
  H  415  1  0.38549450  0.17770150  0.38459800  1
  H  416  1  0.35956450  0.17788650  0.34830100  1
  H  423  1  0.40138450  0.85206500  0.78923650  1
  H  432  1  0.48820550  0.96179650  0.83999400  1
  H  435  1  0.52050850  0.92425850  0.81666000  1
  H  436  1  0.51690750  0.92373150  0.77841100  1
  H  437  1  0.46255800  0.84236550  0.85551550  1
  H  438  1  0.45572750  0.84124150  0.81633700  1
  H  439  1  0.48360400  0.95296300  0.95305000  1
  H  440  1  0.49522600  0.99050200  0.95093400  1
  H  441  1  0.39341700  0.87602750  0.67852250  1
  H  442  1  0.35701400  0.85087850  0.67915850  1
  H  449  1  0.44790200  0.64547750  0.53954850  1
  H  458  1  0.39023200  0.53731650  0.51681950  1
  H  461  1  0.40159150  0.57532950  0.58777400  1
  H  462  1  0.36351900  0.57572000  0.58315700  1
  H  463  1  0.52268400  0.65870100  0.61675400  1
  H  464  1  0.48432900  0.66000000  0.60336200  1
  H  465  1  0.51834100  0.53853850  0.56455850  1
  H  466  1  0.47903250  0.50192150  0.53542400  1
  H  467  1  0.31277550  0.62155650  0.50445700  1
  H  468  1  0.33932750  0.64662250  0.49372900  1
  H  475  1  0.11797600  0.39878600  0.96097700  1
  H  484  1  0.03208150  0.36108600  0.98511750  1
  H  487  1  0.99909000  0.30717900  0.91502800  1
  H  488  1  0.00272300  0.27241400  0.91773000  1
  H  489  1  0.05695700  0.40766200  0.89441200  1
  H  490  1  0.06333550  0.37436500  0.89798250  1
  H  491  1  0.03270200  0.48001150  0.98353850  1
  H  492  1  0.02102900  0.46598900  0.00921300  1
  H  493  1  0.12696250  0.29486650  0.99033100  1
  H  494  1  0.16303200  0.33169050  0.00086450  1
  H  501  1  0.07290050  0.10412250  0.71128900  1
  H  510  1  0.12915850  0.13539550  0.65713400  1
  H  513  1  0.11979850  0.19382100  0.68205150  1
  H  514  1  0.15788100  0.22829800  0.72012000  1
  H  515  1  0.99757600  0.10173250  0.64817950  1
  H  516  1  0.03690650  0.13474300  0.68574050  1
  H  517  1  0.00294750  0.01880750  0.54466500  1
  H  518  1  0.04257850  0.03144800  0.54681550  1
  H  519  1  0.20782550  0.20693000  0.82227750  1
  H  520  1  0.18171850  0.17045250  0.82210300  1
  H  527  1  0.54930150  0.93715850  0.14791200  1
  H  536  1  0.52644900  0.87827150  0.03819150  1
  H  539  1  0.59625200  0.89240200  0.07573400  1
  H  540  1  0.59316600  0.85467250  0.07625050  1
  H  541  1  0.62026250  0.01314200  0.15774550  1
  H  542  1  0.61450500  0.97505600  0.15881300  1
  H  543  1  0.53077950  0.00017900  0.04719250  1
  H  544  1  0.50514550  0.96067950  0.00947800  1
  H  545  1  0.51735850  0.80247450  0.12393300  1
  H  546  1  0.50610400  0.82825750  0.14908150  1
  H  553  1  0.80240250  0.89404900  0.35453450  1
  H  562  1  0.85288750  0.97958300  0.46268350  1
  H  565  1  0.82625100  0.01244400  0.42461200  1
  H  566  1  0.78779300  0.00745200  0.42422400  1
  H  567  1  0.86401100  0.95790500  0.34129900  1
  H  568  1  0.82435350  0.94330250  0.33999500  1
  H  569  1  0.97978250  0.02570150  0.46147000  1
  H  570  1  0.97708150  0.03338800  0.49810250  1
  H  571  1  0.69120150  0.88293350  0.37844100  1
  H  572  1  0.69268150  0.84713100  0.35338350  1
  H  579  1  0.71919400  0.56221950  0.60127850  1
  H  588  1  0.67101500  0.62404750  0.63906950  1
  H  591  1  0.69196700  0.60784000  0.69293800  1
  H  592  1  0.73036350  0.64531700  0.72769050  1
  H  593  1  0.64930850  0.48675300  0.59233750  1
  H  594  1  0.68898600  0.52360800  0.62564500  1
  H  595  1  0.55265050  0.50359300  0.52017250  1
  H  596  1  0.55497400  0.54326950  0.53427250  1
  H  597  1  0.83209600  0.69549850  0.70517550  1
  H  598  1  0.83132950  0.66921000  0.66834350  1
  H  605  1  0.96874300  0.60714800  0.89588200  1
  H  614  1  0.99373100  0.52172050  0.86457550  1
  H  617  1  0.92595450  0.48824150  0.80613500  1
  H  618  1  0.92957300  0.49186150  0.77167350  1
  H  619  1  0.89580650  0.54641750  0.89823500  1
  H  620  1  0.90212500  0.55097000  0.86522400  1
  H  621  1  0.98411250  0.52584150  0.98116400  1
  H  622  1  0.01110050  0.51535000  0.96852150  1
  H  623  1  0.00093850  0.61542900  0.79314650  1
  H  624  1  0.01128700  0.65171300  0.82963100  1
  H  1255  1  0.13299800  0.06192950  0.06266150  1
  H  1256  1  0.08489250  0.12323350  0.09695200  1
  H  1257  1  0.06937500  0.12853150  0.04292150  1
  H  1258  1  0.11805300  0.06757600  0.00950900  1
  H  1265  1  0.36808900  0.92154450  0.43521050  1
  H  1266  1  0.43226350  0.01986600  0.53710250  1
  H  1267  1  0.45230000  0.98862900  0.56591600  1
  H  1268  1  0.38868900  0.89076000  0.46379200  1
  H  1275  1  0.50673300  0.41077550  0.05549650  1
  H  1276  1  0.47997150  0.38858850  0.94771800  1
  H  1277  1  0.42307000  0.38598700  0.93682000  1
  H  1278  1  0.44941600  0.40712850  0.04426650  1
  H  1285  1  0.00618300  0.55829350  0.44097550  1
  H  1286  1  0.03371850  0.47664050  0.40473000  1
  H  1287  1  0.09275850  0.51445800  0.45929650  1
  H  1288  1  0.06469650  0.59581200  0.49469750  1
  H  1295  1  0.07111300  0.93737250  0.99986450  1
  H  1296  1  0.98806450  0.90278550  0.02600500  1
  H  1297  1  0.02620950  0.95678050  0.08535000  1
  H  1298  1  0.10896550  0.99048250  0.05869300  1
  H  1305  1  0.93293650  0.56483550  0.48638100  1
  H  1306  1  0.89504650  0.46289850  0.48270900  1
  H  1307  1  0.88625600  0.43409850  0.42265250  1
  H  1308  1  0.92493300  0.53626450  0.42700250  1
  H  1315  1  0.45124350  0.94450450  0.35528000  1
  H  1316  1  0.53226050  0.05228400  0.44087050  1
  H  1317  1  0.48625950  0.06318250  0.44916800  1
  H  1318  1  0.40515650  0.95573650  0.36286500  1
  H  1325  1  0.56538550  0.55918050  0.11746200  1
  H  1326  1  0.62891650  0.59516150  0.07174200  1
  H  1327  1  0.63336050  0.54058000  0.05503850  1
  H  1328  1  0.57012500  0.50542650  0.10127550  1
  H  1335  1  0.07104900  0.00066700  0.93725700  1
  H  1336  1  0.96143500  0.97351800  0.87681000  1
  H  1337  1  0.94093000  0.91420650  0.87150350  1
  H  1338  1  0.05075600  0.94188100  0.93162100  1
  H  1345  1  0.44654200  0.51367000  0.07845900  1
  H  1346  1  0.41239150  0.51723750  0.98013500  1
  H  1347  1  0.46366400  0.57728700  0.01137000  1
  H  1348  1  0.49792750  0.57303850  0.10924300  1
  H  1355  1  0.09592700  0.64460150  0.58916750  1
  H  1356  1  0.09136600  0.55904300  0.61140600  1
  H  1357  1  0.03707400  0.55076150  0.61402050  1
  H  1358  1  0.04225900  0.63702800  0.59281700  1
  H  1365  1  0.44793100  0.88253750  0.44171950  1
  H  1366  1  0.55718100  0.92826050  0.52342250  1
  H  1367  1  0.57832950  0.94496700  0.48554650  1
  H  1368  1  0.46885900  0.89872600  0.40415200  1
  H  1375  1  0.63367150  0.06285950  0.06248500  1
  H  1376  1  0.58506650  0.09704700  0.12321950  1
  H  1377  1  0.56944700  0.04304450  0.12855350  1
  H  1378  1  0.61863050  0.00973550  0.06817500  1
  H  1385  1  0.86811650  0.43509300  0.92152450  1
  H  1386  1  0.93202350  0.53707450  0.01973100  1
  H  1387  1  0.95200000  0.56586350  0.98845050  1
  H  1388  1  0.88864650  0.46365450  0.89069600  1
  H  1395  1  0.00679850  0.05538800  0.41086950  1
  H  1396  1  0.97995950  0.94757150  0.38858500  1
  H  1397  1  0.92304700  0.93668350  0.38595850  1
  H  1398  1  0.94948350  0.04417650  0.40722100  1
  H  1405  1  0.50621050  0.44082300  0.55828350  1
  H  1406  1  0.53377250  0.40485100  0.47659050  1
  H  1407  1  0.59279600  0.45943550  0.51447250  1
  H  1408  1  0.56470350  0.49457900  0.59585650  1
  H  1415  1  0.57045350  0.99937100  0.93690250  1
  H  1416  1  0.48794600  0.02637050  0.90315550  1
  H  1417  1  0.52659300  0.08569250  0.95716650  1
  H  1418  1  0.60878950  0.05816700  0.99004550  1
  H  1425  1  0.43287350  0.48632950  0.56478700  1
  H  1426  1  0.39516200  0.48276800  0.46289900  1
  H  1427  1  0.38639050  0.42272150  0.43408400  1
  H  1428  1  0.42489850  0.42696600  0.53620450  1
  H  1435  1  0.95141300  0.35548750  0.94461950  1
  H  1436  1  0.03238900  0.44103600  0.05243000  1
  H  1437  1  0.98636050  0.44929150  0.06331600  1
  H  1438  1  0.90530550  0.36304550  0.95582900  1
  H  1445  1  0.06504750  0.11717400  0.55887050  1
  H  1446  1  0.12906450  0.07205650  0.59535600  1
  H  1447  1  0.13356450  0.05527200  0.54080350  1
  H  1448  1  0.06988850  0.10096050  0.50518100  1
  H  1455  1  0.57112850  0.93782250  0.00054800  1
  H  1456  1  0.46176450  0.87677600  0.97378050  1
  H  1457  1  0.44086550  0.87145750  0.91444600  1
  H  1458  1  0.55045400  0.93215050  0.94173850  1
  H  1465  1  0.94660250  0.07846250  0.51357400  1
  H  1466  1  0.91229500  0.98024800  0.51733200  1
  H  1467  1  0.96354850  0.01151700  0.57739850  1
  H  1468  1  0.99796250  0.10928200  0.57296450  1
  H  1475  1  0.59595700  0.58922750  0.64473150  1
  H  1476  1  0.59139800  0.61142950  0.55915250  1
  H  1477  1  0.53709450  0.61402600  0.55084750  1
  H  1478  1  0.54228300  0.59286900  0.63714300  1
  H  1485  1  0.94784700  0.44167200  0.88280600  1
  H  1486  1  0.05697300  0.52328200  0.92790500  1
  H  1487  1  0.07827100  0.48552700  0.94470300  1
  H  1488  1  0.96891300  0.40420750  0.89903350  1
  H  1735  1  0.19758950  0.12448750  0.33010900  1
  H  1736  1  0.08532650  0.05966500  0.24838050  1
  H  1737  1  0.07329550  0.03397450  0.28545100  1
  H  1738  1  0.18479050  0.10301250  0.36802900  1
  H  1745  1  0.32428600  0.14223500  0.43888900  1
  H  1746  1  0.43589200  0.17082150  0.48331250  1
  H  1747  1  0.44796300  0.22039150  0.47029850  1
  H  1748  1  0.33712450  0.19311750  0.43054000  1
  H  1755  1  0.71718650  0.37976950  0.06708800  1
  H  1756  1  0.69812200  0.44044450  0.01495150  1
  H  1757  1  0.76072750  0.46601650  0.02792000  1
  H  1758  1  0.77651300  0.40109800  0.07532400  1
  H  1765  1  0.80388300  0.36010850  0.17076950  1
  H  1766  1  0.82290350  0.32771450  0.25106300  1
  H  1767  1  0.76025950  0.27831350  0.21437200  1
  H  1768  1  0.74446700  0.30904100  0.13299300  1
  H  1775  1  0.86750700  0.66994800  0.79441200  1
  H  1776  1  0.83699800  0.75169500  0.81130400  1
  H  1777  1  0.78788300  0.71461100  0.74854500  1
  H  1778  1  0.81678600  0.63202550  0.73501850  1
  H  1785  1  0.88537600  0.56112850  0.70333850  1
  H  1786  1  0.95248650  0.51661250  0.68746500  1
  H  1787  1  0.97759150  0.52964450  0.75005600  1
  H  1788  1  0.90658600  0.56950200  0.76258200  1
  H  1795  1  0.65011350  0.93292000  0.31268450  1
  H  1796  1  0.68317300  0.98504000  0.42549200  1
  H  1797  1  0.73280800  0.97207050  0.43809450  1
  H  1798  1  0.70120350  0.92468700  0.32577650  1
  H  1805  1  0.63311250  0.82923800  0.18930550  1
  H  1806  1  0.57181250  0.74892100  0.07662550  1
  H  1807  1  0.54584950  0.78560600  0.06391250  1
  H  1808  1  0.61146700  0.86700850  0.17600950  1
  H  1815  1  0.07315150  0.20567700  0.87556450  1
  H  1816  1  0.02575000  0.18875950  0.94041150  1
  H  1817  1  0.03938400  0.25151350  0.96609450  1
  H  1818  1  0.08179450  0.26505750  0.89702600  1
  H  1825  1  0.18205100  0.29666200  0.85775000  1
  H  1826  1  0.26508700  0.31251900  0.82918500  1
  H  1827  1  0.22759300  0.24993700  0.77960400  1
  H  1828  1  0.14400700  0.23743650  0.80685150  1
  H  1835  1  0.33741300  0.68729200  0.62020200  1
  H  1836  1  0.25767550  0.57448300  0.55951650  1
  H  1837  1  0.29470750  0.56188700  0.53394050  1
  H  1838  1  0.37541250  0.67420750  0.59887400  1
  H  1845  1  0.44380550  0.81067200  0.63991050  1
  H  1846  1  0.49518750  0.92335750  0.67229100  1
  H  1847  1  0.48193400  0.93606050  0.72168450  1
  H  1848  1  0.43545100  0.82396000  0.69097400  1
  H  1855  1  0.69756550  0.33008300  0.12446750  1
  H  1856  1  0.58531550  0.24831800  0.05960550  1
  H  1857  1  0.57327350  0.28539700  0.03392850  1
  H  1858  1  0.68475550  0.36800400  0.10300150  1
  H  1865  1  0.82427200  0.43892500  0.14225500  1
  H  1866  1  0.93587050  0.48334250  0.17081000  1
  H  1867  1  0.94796000  0.47034100  0.22039100  1
  H  1868  1  0.83712850  0.43060000  0.19315350  1
  H  1875  1  0.21722750  0.06709900  0.37979150  1
  H  1876  1  0.19816500  0.01496450  0.44046650  1
  H  1877  1  0.26077300  0.02794500  0.46604700  1
  H  1878  1  0.27655100  0.07533650  0.40111750  1
  H  1885  1  0.30387950  0.17075850  0.36004200  1
  H  1886  1  0.32288450  0.25109150  0.32770000  1
  H  1887  1  0.26023400  0.21441100  0.27831000  1
  H  1888  1  0.24446100  0.13299400  0.30898300  1
  H  1895  1  0.36747800  0.79435150  0.66989550  1
  H  1896  1  0.33697600  0.81125800  0.75164700  1
  H  1897  1  0.28786100  0.74850100  0.71457300  1
  H  1898  1  0.31674800  0.73496450  0.63197450  1
  H  1905  1  0.38537900  0.70333600  0.56108600  1
  H  1906  1  0.45256950  0.68748750  0.51667800  1
  H  1907  1  0.47765550  0.75006850  0.52968100  1
  H  1908  1  0.40655800  0.76256150  0.56941450  1
  H  1915  1  0.15012950  0.31271450  0.93291600  1
  H  1916  1  0.18321300  0.42552750  0.98504650  1
  H  1917  1  0.23283400  0.43811800  0.97205700  1
  H  1918  1  0.20120700  0.32579350  0.92466250  1
  H  1925  1  0.13316300  0.18934000  0.82924200  1
  H  1926  1  0.07184300  0.07665100  0.74894100  1
  H  1927  1  0.04589650  0.06395750  0.78564200  1
  H  1928  1  0.11152600  0.17606200  0.86702500  1
  H  1935  1  0.57310600  0.87552700  0.20561000  1
  H  1936  1  0.52567450  0.94035700  0.18870250  1
  H  1937  1  0.53932000  0.96603850  0.25146150  1
  H  1938  1  0.58177200  0.89699550  0.26500150  1
  H  1945  1  0.68202550  0.85776100  0.29666250  1
  H  1946  1  0.76505000  0.82918000  0.31251700  1
  H  1947  1  0.72755650  0.77960900  0.24993450  1
  H  1948  1  0.64398600  0.80687350  0.23743550  1
  H  1955  1  0.83744100  0.62025050  0.68731850  1
  H  1956  1  0.75766850  0.55953900  0.57451750  1
  H  1957  1  0.79469150  0.53395900  0.56190650  1
  H  1958  1  0.87543300  0.59891850  0.67421450  1
  H  1965  1  0.94381550  0.63992800  0.81070050  1
  H  1966  1  0.99515950  0.67228000  0.92338050  1
  H  1967  1  0.98190800  0.72167800  0.93608700  1
  H  1968  1  0.93545100  0.69098800  0.82399000  1
  N  8  1  0.19479450  0.17309000  0.31141550  1
  N  15  1  0.05084900  0.02341050  0.05638450  1
  N  17  1  0.21291500  0.12606550  0.20828250  1
  N  18  1  0.12003650  0.01357450  0.15861100  1
  N  34  1  0.32813300  0.12664650  0.49065050  1
  N  41  1  0.43937850  0.97512850  0.44727200  1
  N  43  1  0.30576950  0.00410950  0.42252100  1
  N  44  1  0.39685800  0.04614650  0.40040650  1
  N  60  1  0.65029150  0.32903000  0.01380650  1
  N  67  1  0.53601600  0.47186850  0.01233750  1
  N  69  1  0.59095600  0.37392250  0.07602850  1
  N  70  1  0.65079950  0.48661200  0.09271450  1
  N  86  1  0.87126950  0.37485050  0.18800700  1
  N  93  1  0.97198100  0.48299700  0.44435900  1
  N  95  1  0.93078350  0.49590400  0.29281750  1
  N  96  1  0.86339250  0.45331300  0.33912250  1
  N  112  1  0.88337250  0.68863800  0.86169950  1
  N  119  1  0.99597500  0.94410000  0.96744200  1
  N  121  1  0.00467250  0.79165000  0.91766950  1
  N  122  1  0.96147500  0.84138200  0.85492400  1
  N  138  1  0.83744400  0.50936450  0.63598950  1
  N  145  1  0.99207350  0.55262350  0.52784500  1
  N  147  1  0.88324500  0.57750600  0.58160500  1
  N  148  1  0.99644050  0.59953250  0.64573600  1
  N  164  1  0.63648250  0.98618650  0.31521900  1
  N  171  1  0.52368550  0.98766500  0.45953250  1
  N  173  1  0.51492900  0.92395850  0.29789650  1
  N  174  1  0.55809400  0.90728800  0.39390400  1
  N  190  1  0.68325450  0.81199600  0.18681350  1
  N  197  1  0.52767450  0.55562250  0.03863100  1
  N  199  1  0.63797650  0.70719050  0.20306600  1
  N  200  1  0.52427900  0.66085250  0.11414250  1
  N  216  1  0.02176850  0.13838150  0.82697000  1
  N  223  1  0.02726350  0.03260650  0.97623300  1
  N  225  1  0.08695200  0.08229400  0.87397800  1
  N  226  1  0.10640900  0.14488300  0.98646500  1
  N  242  1  0.20148700  0.36401550  0.87335250  1
  N  249  1  0.46424900  0.47214650  0.02487750  1
  N  251  1  0.30165550  0.41841600  0.99589250  1
  N  252  1  0.35070750  0.35426450  0.95385600  1
  N  268  1  0.32126600  0.68475150  0.67094150  1
  N  275  1  0.06417000  0.54036150  0.52811450  1
  N  277  1  0.21701400  0.70205400  0.62607700  1
  N  278  1  0.16417800  0.60609250  0.51338850  1
  N  294  1  0.49644650  0.81317450  0.62516800  1
  N  301  1  0.48905100  0.96136900  0.51699300  1
  N  303  1  0.43491650  0.79692950  0.50411400  1
  N  304  1  0.41013750  0.88585300  0.54670350  1
  N  320  1  0.69475800  0.31137650  0.17305550  1
  N  327  1  0.55151200  0.05610350  0.02347750  1
  N  329  1  0.71301000  0.20834000  0.12601100  1
  N  330  1  0.62004700  0.15855950  0.01353650  1
  N  346  1  0.82808300  0.49064650  0.12661750  1
  N  353  1  0.93951350  0.44744600  0.97528650  1
  N  355  1  0.80572550  0.42245900  0.00409350  1
  N  356  1  0.89695900  0.40050700  0.04624300  1
  N  372  1  0.15033900  0.01384200  0.32905200  1
  N  379  1  0.03609850  0.01216300  0.47188450  1
  N  381  1  0.09093050  0.07596750  0.37392800  1
  N  382  1  0.15078950  0.09270100  0.48660050  1
  N  398  1  0.37126250  0.18800800  0.37479250  1
  N  405  1  0.47206550  0.44438500  0.48301350  1
  N  407  1  0.43079750  0.29280600  0.49585750  1
  N  408  1  0.36343700  0.33915100  0.45328300  1
  N  424  1  0.38337650  0.86164600  0.68859350  1
  N  431  1  0.49475250  0.96729050  0.94367500  1
  N  433  1  0.50464850  0.91772000  0.79168550  1
  N  434  1  0.46149050  0.85504850  0.84149900  1
  N  450  1  0.33746600  0.63598100  0.50933800  1
  N  457  1  0.49210400  0.52785950  0.55273250  1
  N  459  1  0.38323450  0.58158300  0.57747950  1
  N  460  1  0.49644300  0.64574050  0.59959850  1
  N  476  1  0.13653350  0.31526000  0.98620250  1
  N  483  1  0.02392950  0.45972950  0.98782900  1
  N  485  1  0.01498400  0.29797850  0.92407050  1
  N  486  1  0.05808150  0.39389950  0.90729800  1
  N  502  1  0.18329000  0.18682100  0.81198000  1
  N  509  1  0.02757650  0.03864300  0.55564650  1
  N  511  1  0.13797850  0.20308400  0.70718550  1
  N  512  1  0.02427700  0.11421600  0.66090400  1
  N  528  1  0.52169800  0.82692600  0.13831300  1
  N  535  1  0.52774950  0.97657200  0.03281150  1
  N  537  1  0.58692200  0.87396000  0.08226500  1
  N  538  1  0.60649600  0.98644450  0.14503250  1
  N  554  1  0.70146700  0.87338150  0.36402050  1
  N  561  1  0.96423200  0.02470500  0.47215400  1
  N  563  1  0.80164200  0.99590400  0.41837100  1
  N  564  1  0.85072050  0.95376000  0.35425950  1
  N  580  1  0.82127200  0.67097850  0.68478350  1
  N  587  1  0.56416100  0.52814650  0.54048450  1
  N  589  1  0.71705200  0.62609500  0.70212600  1
  N  590  1  0.66419750  0.51340050  0.60611800  1
  N  606  1  0.99649450  0.62522150  0.81324700  1
  N  613  1  0.98890300  0.51698300  0.96132700  1
  N  615  1  0.93488250  0.50412600  0.79688750  1
  N  616  1  0.91002300  0.54666000  0.88575200  1
