# generated using pymatgen
data_H5C14(N3O2)2
_symmetry_space_group_name_H-M   'P 1'
_cell_length_a   22.33700000
_cell_length_b   44.36317583
_cell_length_c   44.36317583
_cell_angle_alpha   86.36622315
_cell_angle_beta   75.41881357
_cell_angle_gamma   75.41881357
_symmetry_Int_Tables_number   1
_chemical_formula_structural   H5C14(N3O2)2
_chemical_formula_sum   'H160 C448 N192 O128'
_cell_volume   41175.04246819
_cell_formula_units_Z   32
loop_
 _symmetry_equiv_pos_site_id
 _symmetry_equiv_pos_as_xyz
  1  'x, y, z'
loop_
 _atom_site_type_symbol
 _atom_site_label
 _atom_site_symmetry_multiplicity
 _atom_site_fract_x
 _atom_site_fract_y
 _atom_site_fract_z
 _atom_site_occupancy
  C  1  1  0.80859100  0.92938050  0.90062050  1
  C  2  1  0.75149300  0.94539500  0.92118500  1
  C  3  1  0.69353800  0.95699000  0.91200700  1
  C  4  1  0.69469600  0.95209250  0.88044850  1
  C  5  1  0.75128900  0.93694200  0.85893500  1
  C  6  1  0.80791550  0.92559850  0.86921350  1
  C  9  1  0.86420700  0.91703400  0.91175300  1
  C  10  1  0.88571700  0.93465300  0.93067600  1
  C  11  1  0.94143150  0.92187750  0.94183750  1
  C  12  1  0.97533050  0.89064550  0.93344850  1
  C  13  1  0.95328700  0.87236950  0.91569950  1
  C  14  1  0.89912200  0.88604100  0.90441400  1
  C  31  1  0.63810850  0.57159200  0.59937100  1
  C  32  1  0.61762450  0.55554000  0.57882000  1
  C  33  1  0.56205700  0.54397250  0.58801350  1
  C  34  1  0.52679250  0.54886700  0.61957500  1
  C  35  1  0.54675800  0.56400800  0.64108000  1
  C  36  1  0.60229850  0.57536650  0.63078850  1
  C  39  1  0.69249500  0.58394900  0.58821800  1
  C  40  1  0.75056600  0.56632200  0.56931300  1
  C  41  1  0.80462900  0.57912050  0.55815150  1
  C  42  1  0.79886550  0.61037000  0.56649600  1
  C  43  1  0.74077100  0.62865100  0.58421400  1
  C  44  1  0.68900350  0.61497100  0.59549600  1
  C  61  1  0.73737850  0.90113800  0.57110700  1
  C  62  1  0.69639300  0.92169100  0.55503400  1
  C  63  1  0.64993150  0.91251500  0.54351300  1
  C  64  1  0.64616550  0.88096300  0.54843400  1
  C  65  1  0.68762700  0.85945650  0.56357750  1
  C  66  1  0.73289700  0.86973550  0.57492650  1
  C  69  1  0.78064000  0.91228300  0.58344600  1
  C  70  1  0.81988000  0.93113400  0.56578600  1
  C  71  1  0.86282900  0.94229900  0.57854600  1
  C  72  1  0.86536550  0.93401000  0.60981300  1
  C  73  1  0.82493600  0.91633450  0.62812650  1
  C  74  1  0.78440500  0.90505300  0.61447700  1
  C  91  1  0.20916550  0.59985500  0.92893600  1
  C  92  1  0.17265550  0.57930000  0.94500000  1
  C  93  1  0.10550600  0.58848450  0.95654450  1
  C  94  1  0.07511450  0.62004300  0.95164800  1
  C  95  1  0.11021500  0.64154900  0.93650100  1
  C  96  1  0.17711650  0.63126700  0.92514700  1
  C  99  1  0.27590750  0.58871000  0.91657600  1
  C  100  1  0.31635300  0.56981100  0.93420000  1
  C  101  1  0.38321950  0.55863600  0.92141800  1
  C  102  1  0.40872000  0.56699800  0.89017400  1
  C  103  1  0.36891350  0.58473700  0.87189800  1
  C  104  1  0.30346250  0.59602150  0.88557150  1
  C  121  1  0.19194800  0.07163300  0.09937300  1
  C  122  1  0.24904650  0.05564300  0.07878900  1
  C  123  1  0.30703500  0.04408150  0.08794550  1
  C  124  1  0.30590800  0.04898250  0.11949850  1
  C  125  1  0.24931800  0.06410800  0.14102800  1
  C  126  1  0.19265800  0.07542200  0.13077300  1
  C  129  1  0.13629500  0.08395350  0.08826250  1
  C  130  1  0.11478250  0.06631600  0.06936000  1
  C  131  1  0.05903750  0.07906700  0.05821700  1
  C  132  1  0.02510900  0.11029800  0.06660400  1
  C  133  1  0.04715550  0.12859250  0.08433350  1
  C  134  1  0.10135150  0.11494200  0.09560200  1
  C  151  1  0.36244100  0.42939350  0.40064350  1
  C  152  1  0.38293050  0.44542550  0.42120850  1
  C  153  1  0.43853950  0.45696300  0.41203700  1
  C  154  1  0.47383750  0.45206050  0.38048050  1
  C  155  1  0.45387000  0.43694050  0.35895950  1
  C  156  1  0.39828900  0.42561250  0.36923250  1
  C  159  1  0.30801500  0.41706400  0.41177400  1
  C  160  1  0.24993850  0.43471500  0.43065500  1
  C  161  1  0.19583550  0.42194150  0.44179650  1
  C  162  1  0.20156650  0.39069200  0.43345900  1
  C  163  1  0.25966250  0.37239200  0.41576400  1
  C  164  1  0.31146850  0.38604800  0.40450100  1
  C  181  1  0.26307850  0.09988100  0.42888400  1
  C  182  1  0.30406800  0.07933100  0.44495700  1
  C  183  1  0.35051500  0.08851350  0.45648450  1
  C  184  1  0.35426300  0.12006750  0.45156950  1
  C  185  1  0.31279450  0.14157300  0.43642800  1
  C  186  1  0.26753900  0.13128650  0.42507350  1
  C  189  1  0.21983800  0.08873100  0.41653400  1
  C  190  1  0.18061500  0.06986600  0.43418300  1
  C  191  1  0.13769100  0.05869200  0.42141200  1
  C  192  1  0.13516500  0.06698750  0.39014450  1
  C  193  1  0.17557800  0.08467750  0.37184250  1
  C  194  1  0.21608500  0.09596600  0.38550400  1
  C  211  1  0.79132200  0.40113000  0.07109000  1
  C  212  1  0.82784100  0.42168100  0.05502200  1
  C  213  1  0.89498800  0.41249150  0.04347450  1
  C  214  1  0.92536950  0.38093150  0.04837250  1
  C  215  1  0.89026250  0.35942900  0.06352100  1
  C  216  1  0.82336600  0.36971850  0.07488050  1
  C  219  1  0.72458050  0.41227850  0.08345050  1
  C  220  1  0.68413600  0.43117500  0.06582400  1
  C  221  1  0.61726700  0.44234600  0.07860600  1
  C  222  1  0.59176850  0.43398950  0.10985150  1
  C  223  1  0.63157550  0.41625850  0.12812950  1
  C  224  1  0.69702450  0.40497100  0.11445600  1
  C  481  1  0.03595100  0.01880250  0.00953350  1
  C  483  1  0.93502800  0.00620300  0.01301200  1
  C  484  1  0.96452850  0.98212050  0.99054750  1
  C  486  1  0.06544850  0.99472400  0.98706600  1
  C  487  1  0.12574650  0.98674350  0.97309850  1
  C  488  1  0.87472700  0.01418700  0.02697000  1
  C  491  1  0.93357600  0.96297350  0.97863150  1
  C  492  1  0.06690550  0.03796850  0.02142350  1
  C  495  1  0.06378400  0.48221800  0.49045600  1
  C  497  1  0.95372400  0.49477800  0.48700900  1
  C  498  1  0.93668350  0.51887850  0.50945250  1
  C  500  1  0.04674100  0.50631850  0.51289950  1
  C  501  1  0.08510850  0.51432900  0.52683500  1
  C  502  1  0.91535700  0.48676800  0.47307500  1
  C  505  1  0.87466250  0.53802400  0.52135500  1
  C  506  1  0.12580000  0.46306100  0.47856600  1
  C  509  1  0.05433200  0.00998800  0.48164900  1
  C  511  1  0.94083550  0.01341150  0.49417950  1
  C  512  1  0.94623300  0.99096300  0.51827300  1
  C  514  1  0.05972350  0.98754800  0.50575300  1
  C  515  1  0.11201400  0.97362600  0.51377900  1
  C  516  1  0.88854400  0.02733950  0.48615650  1
  C  519  1  0.89611600  0.97905300  0.53741000  1
  C  520  1  0.10443950  0.02191450  0.46252450  1
  C  523  1  0.54545050  0.49099900  0.01833800  1
  C  525  1  0.44799850  0.48750650  0.00576050  1
  C  526  1  0.45503650  0.50995150  0.98165850  1
  C  528  1  0.55248700  0.51344650  0.99424050  1
  C  529  1  0.59883250  0.52740250  0.98623750  1
  C  530  1  0.40166250  0.47354500  0.01375800  1
  C  533  1  0.41217200  0.52183200  0.96250200  1
  C  534  1  0.58831700  0.47910950  0.03748950  1
  C  537  1  0.46282150  0.49264600  0.48152200  1
  C  539  1  0.56617700  0.49350350  0.48909950  1
  C  540  1  0.53777250  0.50826750  0.51854350  1
  C  542  1  0.43441950  0.50740550  0.51096750  1
  C  543  1  0.37373500  0.51520850  0.52420950  1
  C  544  1  0.62686150  0.48570250  0.47585750  1
  C  547  1  0.57009800  0.51768200  0.53872600  1
  C  548  1  0.43049100  0.48324050  0.46133450  1
  C  551  1  0.43647550  0.00838850  0.01846150  1
  C  553  1  0.54827850  0.00749750  0.01090750  1
  C  554  1  0.56408850  0.99273400  0.98146300  1
  C  556  1  0.45228900  0.99362250  0.98901750  1
  C  557  1  0.41264850  0.98583150  0.97576750  1
  C  558  1  0.58791800  0.01528900  0.02415700  1
  C  561  1  0.62602300  0.98331050  0.96128850  1
  C  562  1  0.37454850  0.01780050  0.03864250  1
  C  565  1  0.44424550  0.01903550  0.49219250  1
  C  567  1  0.55520550  0.01142300  0.49301200  1
  C  568  1  0.55620900  0.98199450  0.50780350  1
  C  570  1  0.44524900  0.98960800  0.50698400  1
  C  571  1  0.39777800  0.97638600  0.51481500  1
  C  572  1  0.60267800  0.02464300  0.48518100  1
  C  575  1  0.60871500  0.96180050  0.51721150  1
  C  576  1  0.39173900  0.03922950  0.48278350  1
  C  579  1  0.95498350  0.48196350  0.00778350  1
  C  581  1  0.05915900  0.48955700  0.00697900  1
  C  582  1  0.04552450  0.51900400  0.99222300  1
  C  584  1  0.94134950  0.51141050  0.99302650  1
  C  585  1  0.88849250  0.52464550  0.98519750  1
  C  586  1  0.11201900  0.47632100  0.01480600  1
  C  589  1  0.08725250  0.53919700  0.98284400  1
  C  590  1  0.91325150  0.46177000  0.01716300  1
  C  705  1  0.77329850  0.91250500  0.77701700  1
  C  707  1  0.73093250  0.94371300  0.73709300  1
  C  708  1  0.76880200  0.92137500  0.71409100  1
  C  710  1  0.81051300  0.88997400  0.75400000  1
  C  711  1  0.85058700  0.86446000  0.75902600  1
  C  712  1  0.69423850  0.97028700  0.73181000  1
  C  715  1  0.76934050  0.92377400  0.68193500  1
  C  716  1  0.77285200  0.91080500  0.80929500  1
  C  719  1  0.46257250  0.58841150  0.72302850  1
  C  721  1  0.41174950  0.55715350  0.76299550  1
  C  722  1  0.40411300  0.57954150  0.78597250  1
  C  724  1  0.45416600  0.61097000  0.74603000  1
  C  725  1  0.47354800  0.63653700  0.74097700  1
  C  726  1  0.39640100  0.53056750  0.76829850  1
  C  729  1  0.37485000  0.57716950  0.81812850  1
  C  730  1  0.49261350  0.59012500  0.69073800  1
  C  733  1  0.68520300  0.77754150  0.58804850  1
  C  735  1  0.67418650  0.73758600  0.55682900  1
  C  736  1  0.68973500  0.71459500  0.57917000  1
  C  738  1  0.69992850  0.75453000  0.61057900  1
  C  739  1  0.71438750  0.75957750  0.63611250  1
  C  740  1  0.66420050  0.73228350  0.53022950  1
  C  743  1  0.69272050  0.68243050  0.57676950  1
  C  744  1  0.68300700  0.80982750  0.58974550  1
  C  747  1  0.05046450  0.72349850  0.91208250  1
  C  749  1  0.96853350  0.76351100  0.94336000  1
  C  750  1  0.98331600  0.78646800  0.92095200  1
  C  752  1  0.06458850  0.74647500  0.88948900  1
  C  753  1  0.10953050  0.74140400  0.86392000  1
  C  754  1  0.92674950  0.76885700  0.96998800  1
  C  757  1  0.95174250  0.81863250  0.92331750  1
  C  758  1  0.08217200  0.69120200  0.91037800  1
  C  761  1  0.22729950  0.08854150  0.22294850  1
  C  763  1  0.26964650  0.05732600  0.26287500  1
  C  764  1  0.23176000  0.07965900  0.28587900  1
  C  766  1  0.19007500  0.11106750  0.24596650  1
  C  767  1  0.15000400  0.13658350  0.24094350  1
  C  768  1  0.30633800  0.03075100  0.26815900  1
  C  771  1  0.23120350  0.07725550  0.31803750  1
  C  772  1  0.22775450  0.09024400  0.19067000  1
  C  775  1  0.53801700  0.41255050  0.27700350  1
  C  777  1  0.58880750  0.44382100  0.23703600  1
  C  778  1  0.59642400  0.42143850  0.21405550  1
  C  780  1  0.54640550  0.38999950  0.25399750  1
  C  781  1  0.52703150  0.36442950  0.25904650  1
  C  782  1  0.60415100  0.47040700  0.23173600  1
  C  785  1  0.62566400  0.42382050  0.18189650  1
  C  786  1  0.50799300  0.41083150  0.30929550  1
  C  789  1  0.31516200  0.22349750  0.41197250  1
  C  791  1  0.32608700  0.26346000  0.44321400  1
  C  792  1  0.31059400  0.28644750  0.42086050  1
  C  794  1  0.30048650  0.24650500  0.38943200  1
  C  795  1  0.28609900  0.24145300  0.36387900  1
  C  796  1  0.33600200  0.26876800  0.46983000  1
  C  799  1  0.30761600  0.31861050  0.42326050  1
  C  800  1  0.31738400  0.19120800  0.41027000  1
  C  803  1  0.94997200  0.27746700  0.08792300  1
  C  805  1  0.03183150  0.23744750  0.05662050  1
  C  806  1  0.01708450  0.21449250  0.07903950  1
  C  808  1  0.93587650  0.25449200  0.11052600  1
  C  809  1  0.89098300  0.25956900  0.13611200  1
  C  810  1  0.07356750  0.23209650  0.02997950  1
  C  813  1  0.04865900  0.18232800  0.07667300  1
  C  814  1  0.91828650  0.30976750  0.08963450  1
  C  1857  1  0.05563300  0.68233850  0.65357850  1
  C  1858  1  0.99853500  0.69835300  0.67414300  1
  C  1859  1  0.94058000  0.70994800  0.66496500  1
  C  1860  1  0.94173800  0.70505050  0.63340650  1
  C  1861  1  0.99833100  0.68990000  0.61189300  1
  C  1862  1  0.05495750  0.67855650  0.62217150  1
  C  1865  1  0.11124900  0.66999200  0.66471100  1
  C  1866  1  0.13275900  0.68761100  0.68363400  1
  C  1867  1  0.18847350  0.67483550  0.69479550  1
  C  1868  1  0.22237250  0.64360350  0.68640650  1
  C  1869  1  0.20032900  0.62532750  0.66865750  1
  C  1870  1  0.14616400  0.63899900  0.65737200  1
  C  1887  1  0.88515050  0.32455000  0.35232900  1
  C  1888  1  0.86466650  0.30849800  0.33177800  1
  C  1889  1  0.80909900  0.29693050  0.34097150  1
  C  1890  1  0.77383450  0.30182500  0.37253300  1
  C  1891  1  0.79380000  0.31696600  0.39403800  1
  C  1892  1  0.84934050  0.32832450  0.38374650  1
  C  1895  1  0.93953700  0.33690700  0.34117600  1
  C  1896  1  0.99760800  0.31928000  0.32227100  1
  C  1897  1  0.05167100  0.33207850  0.31110950  1
  C  1898  1  0.04590750  0.36332800  0.31945400  1
  C  1899  1  0.98781300  0.38160900  0.33717200  1
  C  1900  1  0.93604550  0.36792900  0.34845400  1
  C  1917  1  0.98442075  0.65409575  0.32406475  1
  C  1918  1  0.94343524  0.67464875  0.30799175  1
  C  1919  1  0.89697375  0.66547275  0.29647075  1
  C  1920  1  0.89320775  0.63392075  0.30139175  1
  C  1921  1  0.93466925  0.61241425  0.31653525  1
  C  1922  1  0.97993925  0.62269325  0.32788425  1
  C  1925  1  0.02768200  0.66524100  0.33640400  1
  C  1926  1  0.06692200  0.68409200  0.31874400  1
  C  1927  1  0.10987100  0.69525700  0.33150400  1
  C  1928  1  0.11240750  0.68696800  0.36277100  1
  C  1929  1  0.07197800  0.66929250  0.38108450  1
  C  1930  1  0.03144700  0.65801100  0.36743500  1
  C  1947  1  0.45620750  0.35281300  0.68189400  1
  C  1948  1  0.41969750  0.33225800  0.69795800  1
  C  1949  1  0.35254800  0.34144250  0.70950250  1
  C  1950  1  0.32215650  0.37300100  0.70460600  1
  C  1951  1  0.35725700  0.39450700  0.68945900  1
  C  1952  1  0.42415850  0.38422500  0.67810500  1
  C  1955  1  0.52294950  0.34166800  0.66953400  1
  C  1956  1  0.56339500  0.32276900  0.68715800  1
  C  1957  1  0.63026175  0.31159376  0.67437575  1
  C  1958  1  0.65576225  0.31995575  0.64313175  1
  C  1959  1  0.61595575  0.33769475  0.62485575  1
  C  1960  1  0.55050474  0.34897925  0.63852926  1
  C  1977  1  0.43899000  0.82459100  0.85233100  1
  C  1978  1  0.49608850  0.80860100  0.83174700  1
  C  1979  1  0.55407700  0.79703950  0.84090350  1
  C  1980  1  0.55295000  0.80194050  0.87245650  1
  C  1981  1  0.49636000  0.81706600  0.89398600  1
  C  1982  1  0.43970000  0.82838000  0.88373100  1
  C  1985  1  0.38333700  0.83691150  0.84122050  1
  C  1986  1  0.36182450  0.81927400  0.82231800  1
  C  1987  1  0.30607950  0.83202500  0.81117500  1
  C  1988  1  0.27215100  0.86325600  0.81956200  1
  C  1989  1  0.29419750  0.88155050  0.83729150  1
  C  1990  1  0.34839350  0.86790000  0.84856000  1
  C  2007  1  0.60948300  0.18235150  0.15360150  1
  C  2008  1  0.62997250  0.19838350  0.17416650  1
  C  2009  1  0.68558150  0.20992100  0.16499500  1
  C  2010  1  0.72087950  0.20501850  0.13343850  1
  C  2011  1  0.70091200  0.18989850  0.11191750  1
  C  2012  1  0.64533100  0.17857050  0.12219050  1
  C  2015  1  0.55505700  0.17002200  0.16473200  1
  C  2016  1  0.49698050  0.18767300  0.18361300  1
  C  2017  1  0.44287750  0.17489950  0.19475450  1
  C  2018  1  0.44860850  0.14365000  0.18641700  1
  C  2019  1  0.50670450  0.12535000  0.16872200  1
  C  2020  1  0.55851050  0.13900600  0.15745900  1
  C  2037  1  0.51012050  0.85283900  0.18184200  1
  C  2038  1  0.55111000  0.83228900  0.19791500  1
  C  2039  1  0.59755700  0.84147150  0.20944250  1
  C  2040  1  0.60130500  0.87302550  0.20452750  1
  C  2041  1  0.55983650  0.89453100  0.18938600  1
  C  2042  1  0.51458100  0.88424450  0.17803150  1
  C  2045  1  0.46688000  0.84168900  0.16949200  1
  C  2046  1  0.42765700  0.82282400  0.18714100  1
  C  2047  1  0.38473325  0.81164976  0.17436975  1
  C  2048  1  0.38220725  0.81994525  0.14310225  1
  C  2049  1  0.42262025  0.83763525  0.12480025  1
  C  2050  1  0.46312724  0.84892376  0.13846176  1
  C  2067  1  0.03836425  0.15408775  0.82404775  1
  C  2068  1  0.07488324  0.17463875  0.80797976  1
  C  2069  1  0.14203025  0.16544925  0.79643225  1
  C  2070  1  0.17241175  0.13388925  0.80133025  1
  C  2071  1  0.13730475  0.11238675  0.81647875  1
  C  2072  1  0.07040825  0.12267625  0.82783825  1
  C  2075  1  0.97162250  0.16523650  0.83640850  1
  C  2076  1  0.93117800  0.18413300  0.81878200  1
  C  2077  1  0.86430900  0.19530400  0.83156400  1
  C  2078  1  0.83881050  0.18694750  0.86280950  1
  C  2079  1  0.87861750  0.16921650  0.88108750  1
  C  2080  1  0.94406650  0.15792900  0.86741400  1
  C  2337  1  0.28299300  0.77176050  0.76249150  1
  C  2339  1  0.18207000  0.75916100  0.76597000  1
  C  2340  1  0.21157050  0.73507850  0.74350550  1
  C  2342  1  0.31249050  0.74768200  0.74002400  1
  C  2343  1  0.37278850  0.73970150  0.72605650  1
  C  2344  1  0.12176900  0.76714500  0.77992800  1
  C  2347  1  0.18061800  0.71593150  0.73158950  1
  C  2348  1  0.31394750  0.79092650  0.77438150  1
  C  2351  1  0.31082600  0.23517600  0.24341400  1
  C  2353  1  0.20076600  0.24773600  0.23996700  1
  C  2354  1  0.18372550  0.27183650  0.26241050  1
  C  2356  1  0.29378300  0.25927650  0.26585750  1
  C  2357  1  0.33215050  0.26728700  0.27979300  1
  C  2358  1  0.16239900  0.23972600  0.22603300  1
  C  2361  1  0.12170450  0.29098200  0.27431300  1
  C  2362  1  0.37284200  0.21601900  0.23152400  1
  C  2365  1  0.30137424  0.76294575  0.23460676  1
  C  2367  1  0.18787750  0.76636950  0.24713750  1
  C  2368  1  0.19327500  0.74392100  0.27123100  1
  C  2370  1  0.30676574  0.74050576  0.25871075  1
  C  2371  1  0.35905624  0.72658375  0.26673676  1
  C  2372  1  0.13558600  0.78029750  0.23911450  1
  C  2375  1  0.14315800  0.73201100  0.29036800  1
  C  2376  1  0.35148174  0.77487226  0.21548226  1
  C  2379  1  0.79249250  0.24395700  0.77129600  1
  C  2381  1  0.69504074  0.24046426  0.75871826  1
  C  2382  1  0.70207875  0.26290926  0.73461625  1
  C  2384  1  0.79952900  0.26640450  0.74719850  1
  C  2385  1  0.84587450  0.28036050  0.73919550  1
  C  2386  1  0.64870474  0.22650276  0.76671575  1
  C  2389  1  0.65921424  0.27478975  0.71545976  1
  C  2390  1  0.83535900  0.23206750  0.79044750  1
  C  2393  1  0.70986350  0.24560400  0.23448000  1
  C  2395  1  0.81321900  0.24646150  0.24205750  1
  C  2396  1  0.78481450  0.26122550  0.27150150  1
  C  2398  1  0.68146150  0.26036350  0.26392550  1
  C  2399  1  0.62077700  0.26816650  0.27716750  1
  C  2400  1  0.87390350  0.23866050  0.22881550  1
  C  2403  1  0.81714000  0.27064000  0.29168400  1
  C  2404  1  0.67753300  0.23619850  0.21429250  1
  C  2407  1  0.68351750  0.76134650  0.77141950  1
  C  2409  1  0.79532050  0.76045550  0.76386550  1
  C  2410  1  0.81113050  0.74569200  0.73442100  1
  C  2412  1  0.69933100  0.74658050  0.74197550  1
  C  2413  1  0.65969050  0.73878950  0.72872550  1
  C  2414  1  0.83496000  0.76824700  0.77711500  1
  C  2417  1  0.87306500  0.73626850  0.71424650  1
  C  2418  1  0.62159050  0.77075850  0.79160050  1
  C  2421  1  0.69128750  0.77199350  0.24515050  1
  C  2423  1  0.80224750  0.76438100  0.24597000  1
  C  2424  1  0.80325125  0.73495226  0.26076125  1
  C  2426  1  0.69229100  0.74256600  0.25994200  1
  C  2427  1  0.64482025  0.72934375  0.26777276  1
  C  2428  1  0.84972000  0.77760100  0.23813900  1
  C  2431  1  0.85575725  0.71475826  0.27016926  1
  C  2432  1  0.63878100  0.79218750  0.23574150  1
  C  2435  1  0.20202575  0.23492125  0.76074126  1
  C  2437  1  0.30620100  0.24251500  0.75993700  1
  C  2438  1  0.29256650  0.27196200  0.74518100  1
  C  2440  1  0.18839150  0.26436850  0.74598450  1
  C  2441  1  0.13553450  0.27760350  0.73815550  1
  C  2442  1  0.35906124  0.22927876  0.76776376  1
  C  2445  1  0.33429450  0.29215500  0.73580200  1
  C  2446  1  0.16029375  0.21472775  0.77012076  1
  C  2561  1  0.02034050  0.66546300  0.52997500  1
  C  2563  1  0.97797450  0.69667100  0.49005100  1
  C  2564  1  0.01584400  0.67433300  0.46704900  1
  C  2566  1  0.05755500  0.64293200  0.50695800  1
  C  2567  1  0.09762900  0.61741800  0.51198400  1
  C  2568  1  0.94128050  0.72324500  0.48476800  1
  C  2571  1  0.01638250  0.67673200  0.43489300  1
  C  2572  1  0.01989400  0.66376300  0.56225300  1
  C  2575  1  0.70961475  0.34136925  0.47598625  1
  C  2577  1  0.65879175  0.31011125  0.51595325  1
  C  2578  1  0.65115525  0.33249925  0.53893025  1
  C  2580  1  0.70120825  0.36392775  0.49898775  1
  C  2581  1  0.72059025  0.38949475  0.49393475  1
  C  2582  1  0.64344325  0.28352525  0.52125625  1
  C  2585  1  0.62189225  0.33012725  0.57108625  1
  C  2586  1  0.73965550  0.34308300  0.44369600  1
  C  2589  1  0.93224525  0.53049925  0.34100625  1
  C  2591  1  0.92122875  0.49054375  0.30978675  1
  C  2592  1  0.93677700  0.46755300  0.33212800  1
  C  2594  1  0.94697075  0.50748775  0.36353675  1
  C  2595  1  0.96142975  0.51253525  0.38907025  1
  C  2596  1  0.91124250  0.48524150  0.28318750  1
  C  2599  1  0.93976250  0.43538850  0.32972750  1
  C  2600  1  0.93004925  0.56278525  0.34270325  1
  C  2603  1  0.29750650  0.47645650  0.66504050  1
  C  2605  1  0.21557550  0.51646900  0.69631800  1
  C  2606  1  0.23035800  0.53942600  0.67391000  1
  C  2608  1  0.31163050  0.49943300  0.64244700  1
  C  2609  1  0.35657250  0.49436200  0.61687800  1
  C  2610  1  0.17379150  0.52181500  0.72294600  1
  C  2613  1  0.19878450  0.57159050  0.67627550  1
  C  2614  1  0.32921400  0.44416000  0.66333600  1
  C  2617  1  0.47434175  0.84149925  0.97590625  1
  C  2619  1  0.51668875  0.81028375  0.01583275  1
  C  2620  1  0.47880225  0.83261675  0.03883675  1
  C  2622  1  0.43711725  0.86402525  0.99892425  1
  C  2623  1  0.39704625  0.88954125  0.99390125  1
  C  2624  1  0.55338025  0.78370875  0.02111675  1
  C  2627  1  0.47824575  0.83021325  0.07099525  1
  C  2628  1  0.47479650  0.84320200  0.94362800  1
  C  2631  1  0.78505900  0.16550850  0.02996150  1
  C  2633  1  0.83584950  0.19677900  0.98999400  1
  C  2634  1  0.84346600  0.17439650  0.96701350  1
  C  2636  1  0.79344750  0.14295750  0.00695550  1
  C  2637  1  0.77407350  0.11738750  0.01200450  1
  C  2638  1  0.85119300  0.22336500  0.98469400  1
  C  2641  1  0.87270600  0.17677850  0.93485450  1
  C  2642  1  0.75503500  0.16378950  0.06225350  1
  C  2645  1  0.56220400  0.97645550  0.16493050  1
  C  2647  1  0.57312900  0.01641800  0.19617200  1
  C  2648  1  0.55763600  0.03940550  0.17381850  1
  C  2650  1  0.54752850  0.99946300  0.14239000  1
  C  2651  1  0.53314100  0.99441100  0.11683700  1
  C  2652  1  0.58304400  0.02172600  0.22278800  1
  C  2655  1  0.55465800  0.07156850  0.17621850  1
  C  2656  1  0.56442600  0.94416600  0.16322800  1
  C  2659  1  0.19701425  0.03042475  0.84088075  1
  C  2661  1  0.27887350  0.99040550  0.80957850  1
  C  2662  1  0.26412650  0.96745050  0.83199750  1
  C  2664  1  0.18291875  0.00744975  0.86348375  1
  C  2665  1  0.13802525  0.01252675  0.88906975  1
  C  2666  1  0.32060950  0.98505450  0.78293750  1
  C  2669  1  0.29570100  0.93528600  0.82963100  1
  C  2670  1  0.16532875  0.06272525  0.84259225  1
  H  7  1  0.75103900  0.94560500  0.94421000  1
  H  16  1  0.88303100  0.87239000  0.89201700  1
  H  19  1  0.88297400  0.93171450  0.84078650  1
  H  20  1  0.88466850  0.97568900  0.91536500  1
  H  21  1  0.62148750  0.94602850  0.86992450  1
  H  22  1  0.01190050  0.86889550  0.96517250  1
  H  24  1  0.02807050  0.83556900  0.90300400  1
  H  26  1  0.01133450  0.93176650  0.95710650  1
  H  28  1  0.73554450  0.95659850  0.81903650  1
  H  30  1  0.59884050  0.97211150  0.92506550  1
  H  37  1  0.64033450  0.55539550  0.55578950  1
  H  46  1  0.64686150  0.62860350  0.60791150  1
  H  49  1  0.65505200  0.56928400  0.65920700  1
  H  50  1  0.77541550  0.52531100  0.58465000  1
  H  51  1  0.43699700  0.55492250  0.63013550  1
  H  52  1  0.84540300  0.63209900  0.53474400  1
  H  54  1  0.76593700  0.66549300  0.59691400  1
  H  56  1  0.89968150  0.56925650  0.54285450  1
  H  58  1  0.51085250  0.54433200  0.68098200  1
  H  60  1  0.49549400  0.52888650  0.57495250  1
  H  67  1  0.69606200  0.94472250  0.55487150  1
  H  76  1  0.75462800  0.89267750  0.62813650  1
  H  79  1  0.81402150  0.84127650  0.56886850  1
  H  80  1  0.85995050  0.91570600  0.52479600  1
  H  81  1  0.56687200  0.87044850  0.55455150  1
  H  82  1  0.88025150  0.96577550  0.63148050  1
  H  84  1  0.86274100  0.90360550  0.66496750  1
  H  86  1  0.94262150  0.95755800  0.56865100  1
  H  88  1  0.69149250  0.81955250  0.54394950  1
  H  90  1  0.57025850  0.92560550  0.52847350  1
  H  97  1  0.19518100  0.55626600  0.94513800  1
  H  106  1  0.27496500  0.60840200  0.87191600  1
  H  109  1  0.22378900  0.65968600  0.93122800  1
  H  110  1  0.30005400  0.58516350  0.97521650  1
  H  111  1  0.99139950  0.63057850  0.94556350  1
  H  112  1  0.47699250  0.53525450  0.86844250  1
  H  114  1  0.43084600  0.59750450  0.83514750  1
  H  116  1  0.46839600  0.54336700  0.93129400  1
  H  118  1  0.05461150  0.68145150  0.95617250  1
  H  120  1  0.02386700  0.57541000  0.97160700  1
  H  127  1  0.24946250  0.05542950  0.05577050  1
  H  136  1  0.11744500  0.12860700  0.10798300  1
  H  139  1  0.11766000  0.06926850  0.15922450  1
  H  140  1  0.11589300  0.02527850  0.08468250  1
  H  141  1  0.37911000  0.05509050  0.12999350  1
  H  142  1  0.98847500  0.13202300  0.03488900  1
  H  144  1  0.97236250  0.16538850  0.09703650  1
  H  146  1  0.98912900  0.06915050  0.04297750  1
  H  148  1  0.26514050  0.04445600  0.18091600  1
  H  150  1  0.40173700  0.02900650  0.07486050  1
  H  157  1  0.36018700  0.44557550  0.44423450  1
  H  166  1  0.35361300  0.37239750  0.39210350  1
  H  169  1  0.34559750  0.43172900  0.34078300  1
  H  170  1  0.22518400  0.47572600  0.41530100  1
  H  171  1  0.56364050  0.44596400  0.36995000  1
  H  172  1  0.15493450  0.36899650  0.46520250  1
  H  174  1  0.23448450  0.33555400  0.40305800  1
  H  176  1  0.10077550  0.43183950  0.45705550  1
  H  178  1  0.48983700  0.45661500  0.31907000  1
  H  180  1  0.50511300  0.47201750  0.42511950  1
  H  187  1  0.30441700  0.05629700  0.44511200  1
  H  196  1  0.24585200  0.10835000  0.37185100  1
  H  199  1  0.18640150  0.15973600  0.43113100  1
  H  200  1  0.14051150  0.08528100  0.47517500  1
  H  201  1  0.43354050  0.13059600  0.44546000  1
  H  202  1  0.12032550  0.03519667  0.36848533  1
  H  204  1  0.13779300  0.09740600  0.33499600  1
  H  206  1  0.05793100  0.04341000  0.43128600  1
  H  208  1  0.30889850  0.18147550  0.45606550  1
  H  210  1  0.43018750  0.07542700  0.47152500  1
  H  217  1  0.80532050  0.44471750  0.05488450  1
  H  226  1  0.72552500  0.39259100  0.12811000  1
  H  229  1  0.77666600  0.34131250  0.06879650  1
  H  230  1  0.70045950  0.41582100  0.02480700  1
  H  231  1  0.00909200  0.37038600  0.05445000  1
  H  232  1  0.52349100  0.46573600  0.13157600  1
  H  234  1  0.56964500  0.40349250  0.16488450  1
  H  236  1  0.53208900  0.45760150  0.06872550  1
  H  238  1  0.94584350  0.31952650  0.04384150  1
  H  240  1  0.97663250  0.42555900  0.02840600  1
  H  1863  1  0.99808100  0.69856300  0.69716800  1
  H  1872  1  0.13007300  0.62534800  0.64497500  1
  H  1875  1  0.13001600  0.68467250  0.59374450  1
  H  1876  1  0.13171050  0.72864700  0.66832300  1
  H  1877  1  0.86852950  0.69898650  0.62288250  1
  H  1878  1  0.25894250  0.62185350  0.71813050  1
  H  1880  1  0.27511250  0.58852700  0.65596200  1
  H  1882  1  0.25837650  0.68472450  0.71006450  1
  H  1884  1  0.98258650  0.70955650  0.57199450  1
  H  1886  1  0.84588250  0.72506950  0.67802350  1
  H  1893  1  0.88737650  0.30835350  0.30874750  1
  H  1902  1  0.89390350  0.38156150  0.36086950  1
  H  1905  1  0.90209400  0.32224200  0.41216500  1
  H  1906  1  0.02245750  0.27826900  0.33760800  1
  H  1907  1  0.68403900  0.30788050  0.38309350  1
  H  1908  1  0.09244500  0.38505700  0.28770200  1
  H  1910  1  0.01297900  0.41845100  0.34987200  1
  H  1912  1  0.14672350  0.32221450  0.29581250  1
  H  1914  1  0.75789450  0.29729000  0.43394000  1
  H  1916  1  0.74253600  0.28184450  0.32791050  1
  H  1923  1  0.94310400  0.69768050  0.30782950  1
  H  1932  1  0.00167000  0.64563550  0.38109450  1
  H  1935  1  0.06106375  0.59423425  0.32182625  1
  H  1936  1  0.10699275  0.66866375  0.27775375  1
  H  1937  1  0.81391425  0.62340625  0.30750925  1
  H  1938  1  0.12729350  0.71873350  0.38443850  1
  H  1940  1  0.10978300  0.65656350  0.41792550  1
  H  1942  1  0.18966350  0.71051600  0.32160900  1
  H  1944  1  0.93853475  0.57251025  0.29690725  1
  H  1946  1  0.81730075  0.67856325  0.28143125  1
  H  1953  1  0.44222300  0.30922400  0.69809600  1
  H  1962  1  0.52200724  0.36135976  0.62487375  1
  H  1965  1  0.47083100  0.41264400  0.68418600  1
  H  1966  1  0.54709600  0.33812150  0.72817450  1
  H  1967  1  0.23844150  0.38353650  0.69852150  1
  H  1968  1  0.72403475  0.28821225  0.62140025  1
  H  1970  1  0.67788825  0.35046225  0.58810525  1
  H  1972  1  0.71543824  0.29632475  0.68425176  1
  H  1974  1  0.30165350  0.43440950  0.70913050  1
  H  1976  1  0.27090900  0.32836800  0.72456500  1
  H  1983  1  0.49650450  0.80838750  0.80872850  1
  H  1992  1  0.36448700  0.88156500  0.86094100  1
  H  1995  1  0.36470200  0.82222650  0.91218250  1
  H  1996  1  0.36293500  0.77823650  0.83764050  1
  H  1997  1  0.62615200  0.80804850  0.88295150  1
  H  1998  1  0.23551700  0.88498100  0.78784700  1
  H  2000  1  0.21940450  0.91834650  0.84999450  1
  H  2002  1  0.23617100  0.82210850  0.79593550  1
  H  2004  1  0.51218250  0.79741400  0.93387400  1
  H  2006  1  0.64877900  0.78196450  0.82781850  1
  H  2013  1  0.60722900  0.19853350  0.19719250  1
  H  2022  1  0.60065500  0.12535550  0.14506150  1
  H  2025  1  0.59263950  0.18468700  0.09374100  1
  H  2026  1  0.47222600  0.22868400  0.16825900  1
  H  2027  1  0.81068250  0.19892200  0.12290800  1
  H  2028  1  0.40197650  0.12195450  0.21816050  1
  H  2030  1  0.48152650  0.08851200  0.15601600  1
  H  2032  1  0.34781750  0.18479750  0.21001350  1
  H  2034  1  0.73687900  0.20957300  0.07202800  1
  H  2036  1  0.75215500  0.22497550  0.17807750  1
  H  2043  1  0.55145900  0.80925500  0.19807000  1
  H  2052  1  0.49289424  0.86130776  0.12480876  1
  H  2055  1  0.43344350  0.91269400  0.18408900  1
  H  2056  1  0.38755350  0.83823900  0.22813300  1
  H  2057  1  0.68058250  0.88355400  0.19841800  1
  H  2058  1  0.36736775  0.78815442  0.12144308  1
  H  2060  1  0.38483525  0.85036375  0.08795375  1
  H  2062  1  0.30497324  0.79636776  0.18424375  1
  H  2064  1  0.55594050  0.93443350  0.20902350  1
  H  2066  1  0.67722950  0.82838500  0.22448300  1
  H  2073  1  0.05236250  0.19767550  0.80784250  1
  H  2082  1  0.97256700  0.14554900  0.88106800  1
  H  2085  1  0.02370825  0.09427025  0.82175425  1
  H  2086  1  0.94750175  0.16877875  0.77776475  1
  H  2087  1  0.25613425  0.12334375  0.80740775  1
  H  2088  1  0.77053300  0.21869400  0.88453400  1
  H  2090  1  0.81668700  0.15645050  0.91784250  1
  H  2092  1  0.77913100  0.21055950  0.82168350  1
  H  2094  1  0.19288575  0.07248425  0.79679925  1
  H  2096  1  0.22367475  0.17851675  0.78136375  1
  N  23  1  0.98178250  0.84135750  0.91065550  1
  N  25  1  0.96574050  0.93880950  0.95852250  1
  N  27  1  0.75174900  0.93648650  0.82800550  1
  N  29  1  0.63697200  0.97072350  0.93239050  1
  N  53  1  0.73320950  0.65967500  0.58918100  1
  N  55  1  0.86255400  0.56219550  0.54146050  1
  N  57  1  0.51588350  0.56445000  0.67201700  1
  N  59  1  0.53957250  0.53025700  0.56763100  1
  N  83  1  0.82228450  0.91147200  0.65916400  1
  N  85  1  0.90409100  0.95896400  0.56159300  1
  N  87  1  0.68760500  0.82852600  0.56405600  1
  N  89  1  0.60706250  0.93290750  0.52980750  1
  N  113  1  0.39237150  0.58971000  0.84086800  1
  N  115  1  0.42421600  0.54195750  0.93834950  1
  N  117  1  0.07974750  0.67248200  0.93605500  1
  N  119  1  0.06931350  0.56809600  0.97025300  1
  N  143  1  0.01864650  0.15960450  0.08936550  1
  N  145  1  0.03472950  0.06211850  0.04154850  1
  N  147  1  0.24889500  0.06456600  0.17195400  1
  N  149  1  0.36360050  0.03037600  0.06754500  1
  N  173  1  0.26719200  0.34136700  0.41081300  1
  N  175  1  0.13790700  0.43888750  0.45846650  1
  N  177  1  0.48477100  0.43649950  0.32802650  1
  N  179  1  0.46102200  0.47066150  0.43243250  1
  N  203  1  0.17824300  0.08954750  0.34080450  1
  N  205  1  0.09644850  0.04201400  0.43835200  1
  N  207  1  0.31279550  0.17250400  0.43595700  1
  N  209  1  0.39338800  0.06812300  0.47018800  1
  N  233  1  0.60812100  0.41128700  0.15916000  1
  N  235  1  0.57626600  0.45901700  0.06167000  1
  N  237  1  0.92071650  0.32849300  0.06396200  1
  N  239  1  0.93118750  0.43287450  0.02976150  1
  N  482  1  0.97196150  0.02276400  0.02113200  1
  N  485  1  0.02851700  0.97816250  0.97894350  1
  N  489  1  0.82154000  0.02138150  0.03940250  1
  N  490  1  0.17893000  0.97955400  0.96066000  1
  N  496  1  0.01534600  0.47822650  0.47888250  1
  N  499  1  0.98512050  0.52287000  0.52102700  1
  N  503  1  0.88178850  0.47955050  0.46066350  1
  N  504  1  0.11867550  0.52154550  0.53924650  1
  N  510  1  0.99432800  0.02155500  0.47764600  1
  N  513  1  0.00623300  0.97940450  0.52228350  1
  N  517  1  0.84257300  0.03974350  0.47893050  1
  N  518  1  0.15798300  0.96122450  0.52101150  1
  N  524  1  0.49305850  0.47939900  0.02231800  1
  N  527  1  0.50742850  0.52155250  0.97767950  1
  N  531  1  0.36091450  0.46110900  0.02096300  1
  N  532  1  0.63959050  0.53983150  0.97902850  1
  N  538  1  0.52764550  0.48661900  0.47270400  1
  N  541  1  0.47294950  0.51429300  0.52736200  1
  N  545  1  0.68036650  0.47874100  0.46398600  1
  N  546  1  0.32022900  0.52216950  0.53608150  1
  N  552  1  0.48645850  0.01439850  0.02729050  1
  N  555  1  0.51410850  0.98672250  0.97263450  1
  N  559  1  0.62258850  0.02224300  0.03603600  1
  N  560  1  0.37797900  0.97888050  0.96388650  1
  N  566  1  0.50027900  0.02782900  0.48613400  1
  N  569  1  0.50017450  0.97320150  0.51386250  1
  N  573  1  0.64434000  0.03649400  0.47819300  1
  N  574  1  0.35611700  0.96453450  0.52180150  1
  N  580  1  0.01375750  0.47315200  0.01383700  1
  N  583  1  0.98675200  0.52781450  0.98617050  1
  N  587  1  0.15854200  0.46445750  0.02178850  1
  N  588  1  0.84196950  0.53650900  0.97821500  1
  N  706  1  0.73576300  0.93821150  0.76686350  1
  N  709  1  0.80671300  0.89564500  0.72401500  1
  N  713  1  0.66198450  0.99382700  0.72723700  1
  N  714  1  0.88601900  0.84189100  0.76334800  1
  N  720  1  0.44075550  0.56266450  0.73321150  1
  N  723  1  0.42607250  0.60530550  0.77602050  1
  N  727  1  0.38316650  0.50701550  0.77288850  1
  N  728  1  0.49055350  0.65915650  0.73663250  1
  N  734  1  0.67346000  0.76736550  0.56232850  1
  N  737  1  0.70185850  0.72453600  0.60490600  1
  N  741  1  0.65560750  0.72769250  0.50666550  1
  N  742  1  0.72716450  0.76391750  0.65870050  1
  N  748  1  0.00299600  0.73371500  0.93785300  1
  N  751  1  0.03094300  0.77648350  0.89516250  1
  N  755  1  0.89009150  0.77348650  0.99357450  1
  N  756  1  0.14914800  0.73704200  0.84130100  1
  N  762  1  0.26483100  0.06283300  0.23310400  1
  N  765  1  0.19385550  0.10539100  0.27595500  1
  N  769  1  0.33858950  0.00721050  0.27273150  1
  N  770  1  0.11457500  0.15915450  0.23662250  1
  N  776  1  0.55982850  0.43829850  0.26682150  1
  N  779  1  0.57447450  0.39567250  0.22400450  1
  N  783  1  0.61738200  0.49395950  0.22714850  1
  N  784  1  0.51003350  0.34180850  0.26338950  1
  N  790  1  0.32683650  0.23367900  0.43770800  1
  N  793  1  0.29854000  0.27650000  0.39510600  1
  N  797  1  0.34453450  0.27336400  0.49340500  1
  N  798  1  0.27338450  0.23710900  0.34127600  1
  N  804  1  0.99739250  0.26724400  0.06213600  1
  N  807  1  0.96950350  0.22448250  0.10484450  1
  N  811  1  0.11018200  0.22746300  0.00638000  1
  N  812  1  0.85140750  0.26393450  0.15874650  1
  N  1879  1  0.22882450  0.59431550  0.66361350  1
  N  1881  1  0.21278250  0.69176750  0.71148050  1
  N  1883  1  0.99879100  0.68944450  0.58096350  1
  N  1885  1  0.88401400  0.72368150  0.68534850  1
  N  1909  1  0.98025150  0.41263300  0.34213900  1
  N  1911  1  0.10959600  0.31515350  0.29441850  1
  N  1913  1  0.76292550  0.31740800  0.42497500  1
  N  1915  1  0.78661450  0.28321500  0.32058900  1
  N  1939  1  0.06932650  0.66443000  0.41212200  1
  N  1941  1  0.15113300  0.71192200  0.31455100  1
  N  1943  1  0.93464725  0.58148375  0.31701375  1
  N  1945  1  0.85410475  0.68586525  0.28276525  1
  N  1969  1  0.63941375  0.34266775  0.59382575  1
  N  1971  1  0.67125824  0.29491526  0.69130725  1
  N  1973  1  0.32678950  0.42544000  0.68901300  1
  N  1975  1  0.31635550  0.32105400  0.72321100  1
  N  1999  1  0.26568850  0.91256250  0.84232350  1
  N  2001  1  0.28177150  0.81507650  0.79450650  1
  N  2003  1  0.49593700  0.81752400  0.92491200  1
  N  2005  1  0.61064250  0.78333400  0.82050300  1
  N  2029  1  0.51423400  0.09432500  0.16377100  1
  N  2031  1  0.38494900  0.19184550  0.21142450  1
  N  2033  1  0.73181300  0.18945750  0.08098450  1
  N  2035  1  0.70806400  0.22361950  0.18539050  1
  N  2059  1  0.42528525  0.84250525  0.09376225  1
  N  2061  1  0.34349074  0.79497176  0.19130976  1
  N  2063  1  0.55983750  0.92546200  0.18891500  1
  N  2065  1  0.64043000  0.82108100  0.22314600  1
  N  2089  1  0.85516300  0.16424500  0.91211800  1
  N  2091  1  0.82330800  0.21197500  0.81462800  1
  N  2093  1  0.16775875  0.08145075  0.81691975  1
  N  2095  1  0.17822975  0.18583225  0.78271925  1
  N  2338  1  0.21900350  0.77572200  0.77409000  1
  N  2341  1  0.27555900  0.73112050  0.73190150  1
  N  2345  1  0.06858200  0.77433950  0.79236050  1
  N  2346  1  0.42597200  0.73251200  0.71361800  1
  N  2352  1  0.26238800  0.23118450  0.23184050  1
  N  2355  1  0.23216250  0.27582800  0.27398500  1
  N  2359  1  0.12883050  0.23250850  0.21362150  1
  N  2360  1  0.36571750  0.27450350  0.29220450  1
  N  2366  1  0.24137000  0.77451300  0.23060400  1
  N  2369  1  0.25327500  0.73236250  0.27524150  1
  N  2373  1  0.08961500  0.79270150  0.23188850  1
  N  2374  1  0.40502524  0.71418225  0.27396926  1
  N  2380  1  0.74010050  0.23235700  0.77527600  1
  N  2383  1  0.75447050  0.27451050  0.73063750  1
  N  2387  1  0.60795675  0.21406675  0.77392076  1
  N  2388  1  0.88663250  0.29278950  0.73198650  1
  N  2394  1  0.77468750  0.23957700  0.22566200  1
  N  2397  1  0.71999150  0.26725100  0.28032000  1
  N  2401  1  0.92740850  0.23169900  0.21694400  1
  N  2402  1  0.56727100  0.27512750  0.28903950  1
  N  2408  1  0.73350050  0.76735650  0.78024850  1
  N  2411  1  0.76115050  0.73968050  0.72559250  1
  N  2415  1  0.86963050  0.77520100  0.78899400  1
  N  2416  1  0.62502100  0.73183850  0.71684450  1
  N  2422  1  0.74732100  0.78078700  0.23909200  1
  N  2425  1  0.74721675  0.72615926  0.26682025  1
  N  2429  1  0.89138200  0.78945200  0.23115100  1
  N  2430  1  0.60315925  0.71749226  0.27475925  1
  N  2436  1  0.26079974  0.22610975  0.76679476  1
  N  2439  1  0.23379400  0.28077250  0.73912850  1
  N  2443  1  0.40558425  0.21741525  0.77474626  1
  N  2444  1  0.08901150  0.28946700  0.73117300  1
  N  2562  1  0.98280500  0.69116950  0.51982150  1
  N  2565  1  0.05375500  0.64860300  0.47697300  1
  N  2569  1  0.90902650  0.74678500  0.48019500  1
  N  2570  1  0.13306100  0.59484900  0.51630600  1
  N  2576  1  0.68779775  0.31562225  0.48616925  1
  N  2579  1  0.67311475  0.35826325  0.52897825  1
  N  2583  1  0.63020850  0.25997350  0.52584650  1
  N  2584  1  0.73759575  0.41211425  0.48959025  1
  N  2590  1  0.92050225  0.52032325  0.31528625  1
  N  2593  1  0.94890075  0.47749375  0.35786375  1
  N  2597  1  0.90264950  0.48065050  0.25962350  1
  N  2598  1  0.97420675  0.51687525  0.41165825  1
  N  2604  1  0.25003800  0.48667300  0.69081100  1
  N  2607  1  0.27798500  0.52944150  0.64812050  1
  N  2611  1  0.13713350  0.52644450  0.74653250  1
  N  2612  1  0.39619000  0.49000000  0.59425900  1
  N  2618  1  0.51187325  0.81579075  0.98606175  1
  N  2621  1  0.44089775  0.85834875  0.02891275  1
  N  2625  1  0.58563150  0.76016850  0.02568950  1
  N  2626  1  0.36161725  0.91211225  0.98958025  1
  N  2632  1  0.80687050  0.19125650  0.01977950  1
  N  2635  1  0.82151650  0.14863050  0.97696250  1
  N  2639  1  0.86442400  0.24691750  0.98010650  1
  N  2640  1  0.75707550  0.09476650  0.01634750  1
  N  2646  1  0.57387850  0.98663700  0.19066600  1
  N  2649  1  0.54558200  0.02945800  0.14806400  1
  N  2653  1  0.59157650  0.02632200  0.24636300  1
  N  2654  1  0.52042650  0.99006700  0.09423400  1
  N  2660  1  0.24443475  0.02020175  0.81509375  1
  N  2663  1  0.21654575  0.97744025  0.85780225  1
  N  2667  1  0.35722400  0.98042100  0.75933800  1
  N  2668  1  0.09844975  0.01689225  0.91170425  1
  O  8  1  0.64115050  0.96356850  0.86974450  1
  O  15  1  0.02781300  0.87679650  0.94422450  1
  O  17  1  0.86363550  0.91405350  0.84771350  1
  O  18  1  0.85914000  0.96595700  0.93278600  1
  O  38  1  0.47402950  0.53738300  0.63029100  1
  O  45  1  0.84825950  0.62422700  0.55570200  1
  O  47  1  0.62500050  0.58693850  0.65225950  1
  O  48  1  0.75737600  0.53501200  0.56727700  1
  O  68  1  0.60403750  0.87026800  0.53699300  1
  O  75  1  0.90401600  0.94480050  0.62363750  1
  O  77  1  0.77703250  0.84826250  0.58651950  1
  O  78  1  0.82470350  0.93315750  0.53447050  1
  O  98  1  0.01086000  0.63074850  0.96311050  1
  O  105  1  0.47197000  0.55621000  0.87632100  1
  O  107  1  0.21135250  0.65275250  0.91357950  1
  O  108  1  0.29191300  0.56773500  0.96551300  1
  O  128  1  0.35948900  0.03753650  0.13018250  1
  O  135  1  0.97259850  0.12412700  0.05584300  1
  O  137  1  0.13694600  0.08694400  0.15228900  1
  O  138  1  0.14139800  0.03501400  0.06725500  1
  O  158  1  0.52663800  0.46351750  0.36978150  1
  O  165  1  0.15213400  0.37685750  0.44423550  1
  O  167  1  0.37557950  0.41406000  0.34775300  1
  O  168  1  0.24318200  0.46602000  0.43268600  1
  O  188  1  0.39637600  0.13076800  0.46301700  1
  O  195  1  0.09653950  0.05619150  0.37630750  1
  O  197  1  0.22339450  0.15275700  0.41348100  1
  O  198  1  0.17577750  0.06783650  0.46550050  1
  O  218  1  0.98962150  0.37023133  0.03689267  1
  O  225  1  0.52851600  0.44477800  0.12370500  1
  O  227  1  0.78912550  0.34823350  0.08644450  1
  O  228  1  0.70857950  0.43325450  0.03451350  1
  O  493  1  0.13042350  0.03458900  0.00967300  1
  O  494  1  0.87006000  0.96633950  0.99039050  1
  O  507  1  0.17421750  0.46646050  0.49028350  1
  O  508  1  0.82623350  0.53461350  0.50965450  1
  O  521  1  0.16456100  0.01021500  0.46595100  1
  O  522  1  0.83598500  0.99077050  0.53400550  1
  O  535  1  0.64008400  0.49086250  0.03411250  1
  O  536  1  0.36033650  0.51012300  0.96592800  1
  O  549  1  0.36594950  0.48983850  0.46997650  1
  O  550  1  0.63464150  0.51108600  0.53008600  1
  O  563  1  0.32524300  0.01121350  0.02999350  1
  O  564  1  0.67534150  0.98986550  0.96995050  1
  O  577  1  0.33579250  0.03062700  0.48943900  1
  O  578  1  0.66466450  0.97040150  0.51055450  1
  O  591  1  0.85529600  0.47042200  0.01058000  1
  O  592  1  0.14520050  0.53055350  0.98943650  1
  O  717  1  0.79021350  0.88247300  0.82223700  1
  O  718  1  0.71520000  0.93959500  0.67394700  1
  O  731  1  0.49452250  0.61846450  0.67779750  1
  O  732  1  0.32860000  0.56131300  0.82611700  1
  O  745  1  0.67209650  0.82277350  0.61807050  1
  O  746  1  0.65432700  0.67444800  0.56098900  1
  O  759  1  0.11239750  0.67824600  0.88204500  1
  O  760  1  0.88960950  0.82662100  0.93913700  1
  O  773  1  0.21033450  0.11857400  0.17773400  1
  O  774  1  0.28534100  0.06143950  0.32603050  1
  O  787  1  0.50603350  0.38249200  0.32222700  1
  O  788  1  0.67191500  0.43967450  0.17390550  1
  O  801  1  0.32831450  0.17826350  0.38194350  1
  O  802  1  0.34596950  0.32659150  0.43906550  1
  O  815  1  0.88807950  0.32272150  0.11797050  1
  O  816  1  0.11077600  0.17434250  0.06082950  1
  O  1864  1  0.88819250  0.71652650  0.62270250  1
  O  1871  1  0.27485500  0.62975450  0.69718250  1
  O  1873  1  0.11067750  0.66701150  0.60067150  1
  O  1874  1  0.10618200  0.71891500  0.68574400  1
  O  1894  1  0.72107150  0.29034100  0.38324900  1
  O  1901  1  0.09530150  0.37718500  0.30866000  1
  O  1903  1  0.87204250  0.33989650  0.40521750  1
  O  1904  1  0.00441800  0.28797000  0.32023500  1
  O  1924  1  0.85107975  0.62322575  0.28995075  1
  O  1931  1  0.15105800  0.69775850  0.37659550  1
  O  1933  1  0.02407475  0.60122025  0.33947725  1
  O  1934  1  0.07174575  0.68611525  0.28742825  1
  O  1954  1  0.25790200  0.38370650  0.71606850  1
  O  1961  1  0.71901225  0.30916775  0.62927875  1
  O  1963  1  0.45839450  0.40571050  0.66653750  1
  O  1964  1  0.53895500  0.32069300  0.71847100  1
  O  1984  1  0.60653100  0.79049450  0.88314050  1
  O  1991  1  0.21964050  0.87708500  0.80880100  1
  O  1993  1  0.38398800  0.83990200  0.90524700  1
  O  1994  1  0.38844000  0.78797200  0.82021300  1
  O  2014  1  0.77368000  0.21647550  0.12273950  1
  O  2021  1  0.39917600  0.12981550  0.19719350  1
  O  2023  1  0.62262150  0.16701800  0.10071100  1
  O  2024  1  0.49022400  0.21897800  0.18564400  1
  O  2044  1  0.64341800  0.88372600  0.21597500  1
  O  2051  1  0.34358175  0.80914925  0.12926525  1
  O  2053  1  0.47043650  0.90571500  0.16643900  1
  O  2054  1  0.42281950  0.82079450  0.21845850  1
  O  2074  1  0.23666375  0.12318908  0.78985042  1
  O  2081  1  0.77555800  0.19773600  0.87666300  1
  O  2083  1  0.03616775  0.10119125  0.83940225  1
  O  2084  1  0.95562175  0.18621225  0.78747125  1
  O  2349  1  0.37746550  0.78754700  0.76263100  1
  O  2350  1  0.11710200  0.71929750  0.74334850  1
  O  2363  1  0.42125950  0.21941850  0.24324150  1
  O  2364  1  0.07327550  0.28757150  0.26261250  1
  O  2377  1  0.41160324  0.76317276  0.21890876  1
  O  2378  1  0.08302700  0.74372850  0.28696350  1
  O  2391  1  0.88712600  0.24382050  0.78707050  1
  O  2392  1  0.60737874  0.26308076  0.71888576  1
  O  2405  1  0.61299150  0.24279650  0.22293450  1
  O  2406  1  0.88168350  0.26404400  0.28304400  1
  O  2419  1  0.57228500  0.76417150  0.78295150  1
  O  2420  1  0.92238350  0.74282350  0.72290850  1
  O  2433  1  0.58283450  0.78358500  0.24239700  1
  O  2434  1  0.91170675  0.72335925  0.26351225  1
  O  2447  1  0.10233824  0.22337976  0.76353775  1
  O  2448  1  0.39224250  0.28351150  0.74239450  1
  O  2573  1  0.03725550  0.63543100  0.57519500  1
  O  2574  1  0.96224200  0.69255300  0.42690500  1
  O  2587  1  0.74156475  0.37142225  0.43075525  1
  O  2588  1  0.57564225  0.31427075  0.57907475  1
  O  2601  1  0.91913875  0.57573125  0.37102825  1
  O  2602  1  0.90136900  0.42740600  0.31394700  1
  O  2615  1  0.35943950  0.43120400  0.63500300  1
  O  2616  1  0.13665150  0.57957900  0.69209500  1
  O  2629  1  0.45737675  0.87153175  0.93069175  1
  O  2630  1  0.53238325  0.81439725  0.07898825  1
  O  2643  1  0.75307550  0.13545000  0.07518500  1
  O  2644  1  0.91895700  0.19263250  0.92686350  1
  O  2657  1  0.57535650  0.93122150  0.13490150  1
  O  2658  1  0.59301150  0.07954950  0.19202350  1
  O  2671  1  0.13512175  0.07567925  0.87092825  1
  O  2672  1  0.35781800  0.92730050  0.81378750  1
