# generated using pymatgen
data_H38C55N6
_symmetry_space_group_name_H-M   'P 1'
_cell_length_a   43.76840000
_cell_length_b   43.76850000
_cell_length_c   48.97530000
_cell_angle_alpha   90.00080000
_cell_angle_beta   89.99920000
_cell_angle_gamma   90.00000000
_symmetry_Int_Tables_number   1
_chemical_formula_structural   H38C55N6
_chemical_formula_sum   'H304 C440 N48'
_cell_volume   93820.86630909
_cell_formula_units_Z   8
loop_
 _symmetry_equiv_pos_site_id
 _symmetry_equiv_pos_as_xyz
  1  'x, y, z'
loop_
 _atom_site_type_symbol
 _atom_site_label
 _atom_site_symmetry_multiplicity
 _atom_site_fract_x
 _atom_site_fract_y
 _atom_site_fract_z
 _atom_site_occupancy
  H  25  1  0.83360700  0.17108600  0.27335200  1
  H  26  1  0.88004500  0.15736100  0.25250500  1
  H  27  1  0.99139000  0.16923900  0.23977200  1
  H  28  1  0.03880200  0.19260400  0.25071000  1
  H  29  1  0.99685700  0.24024200  0.31527900  1
  H  30  1  0.88083200  0.22938500  0.32734800  1
  H  31  1  0.92642300  0.24989900  0.25973500  1
  H  32  1  0.91267700  0.33974000  0.28778000  1
  H  33  1  0.92756000  0.32466800  0.33238800  1
  H  34  1  0.94430900  0.16615000  0.33149300  1
  H  35  1  0.95708500  0.24515800  0.39959500  1
  H  36  1  0.96485500  0.19321500  0.41190300  1
  H  39  1  0.93933200  0.15171200  0.26387600  1
  H  40  1  0.93298700  0.18206400  0.24057200  1
  H  42  1  0.96300000  0.28185900  0.35733700  1
  H  43  1  0.92353800  0.27806900  0.36475300  1
  H  47  1  0.82761800  0.22597800  0.33129100  1
  H  48  1  0.04828000  0.25250200  0.30097800  1
  H  49  1  0.96284000  0.12969500  0.36432200  1
  H  51  1  0.90091000  0.28670300  0.23157000  1
  H  76  1  0.03951700  0.70651500  0.27209400  1
  H  77  1  0.99249400  0.71938100  0.25176500  1
  H  78  1  0.88091600  0.70618600  0.24116600  1
  H  79  1  0.83399100  0.68274900  0.25343600  1
  H  80  1  0.87777700  0.63706000  0.31816600  1
  H  81  1  0.99398900  0.64848400  0.32743000  1
  H  82  1  0.94420800  0.62674100  0.26057200  1
  H  83  1  0.96187700  0.53760900  0.28850600  1
  H  84  1  0.95072900  0.55318900  0.33398200  1
  H  85  1  0.92914500  0.71115200  0.33207700  1
  H  86  1  0.92173700  0.63292300  0.40152000  1
  H  87  1  0.91222100  0.68472600  0.41332400  1
  H  90  1  0.93346000  0.72467200  0.26399000  1
  H  91  1  0.93940500  0.69386400  0.24108900  1
  H  93  1  0.91593700  0.59517400  0.36038300  1
  H  94  1  0.95560900  0.60080400  0.36562900  1
  H  98  1  0.04712000  0.65296200  0.33085400  1
  H  99  1  0.82597500  0.62454600  0.30571500  1
  H  100  1  0.91012900  0.74740200  0.36476100  1
  H  102  1  0.96677000  0.58930000  0.23092000  1
  H  127  1  0.70584200  0.83376300  0.77373400  1
  H  128  1  0.71928900  0.88019800  0.75274400  1
  H  129  1  0.70694700  0.99149500  0.73983200  1
  H  130  1  0.68348600  0.03886300  0.75078400  1
  H  131  1  0.63598100  0.99681100  0.81537800  1
  H  132  1  0.64720800  0.88084100  0.82754100  1
  H  133  1  0.62641500  0.92627500  0.75995000  1
  H  134  1  0.53667700  0.91235400  0.78818600  1
  H  135  1  0.55183800  0.92731600  0.83276200  1
  H  136  1  0.71030400  0.94456100  0.83142700  1
  H  137  1  0.63152400  0.95720600  0.89975700  1
  H  138  1  0.68351100  0.96523900  0.91187100  1
  H  141  1  0.72463500  0.93952000  0.76395400  1
  H  142  1  0.69429100  0.93301900  0.74067700  1
  H  144  1  0.59461900  0.96286900  0.85760500  1
  H  145  1  0.59858500  0.92343000  0.86503900  1
  H  149  1  0.65109000  0.82769100  0.83178000  1
  H  150  1  0.62360200  0.04822400  0.80106600  1
  H  151  1  0.74670600  0.96375800  0.86410200  1
  H  153  1  0.58960800  0.90052500  0.73194000  1
  H  178  1  0.17044400  0.03966600  0.77168800  1
  H  179  1  0.15731800  0.99262600  0.75151500  1
  H  180  1  0.17006000  0.88099800  0.74114200  1
  H  181  1  0.19340600  0.83403700  0.75341800  1
  H  182  1  0.23924700  0.87776800  0.81809700  1
  H  183  1  0.22814800  0.99403500  0.82723100  1
  H  184  1  0.24962700  0.94406900  0.76036800  1
  H  185  1  0.33883700  0.96171200  0.78810300  1
  H  186  1  0.32336700  0.95067300  0.83362000  1
  H  187  1  0.16536800  0.92936300  0.83214100  1
  H  188  1  0.24383100  0.92200200  0.90137800  1
  H  189  1  0.19207300  0.91269200  0.91337000  1
  H  192  1  0.15174200  0.93363200  0.76390900  1
  H  193  1  0.18256200  0.93942600  0.74098700  1
  H  195  1  0.28141400  0.91595900  0.86015100  1
  H  196  1  0.27588000  0.95565600  0.86534400  1
  H  200  1  0.22413600  0.04722600  0.83034800  1
  H  201  1  0.25159800  0.82592300  0.80573000  1
  H  202  1  0.12905300  0.91102600  0.86497400  1
  H  204  1  0.28702200  0.96643600  0.73057800  1
  H  229  1  0.04387000  0.18019400  0.73475100  1
  H  230  1  0.99720600  0.16313600  0.75343200  1
  H  231  1  0.88468000  0.16720100  0.76000100  1
  H  232  1  0.83701700  0.18865900  0.74750700  1
  H  233  1  0.87973900  0.23776600  0.68415500  1
  H  234  1  0.99611800  0.22877100  0.67405100  1
  H  235  1  0.94694400  0.24924400  0.74153800  1
  H  236  1  0.96220400  0.33897200  0.71386500  1
  H  237  1  0.95059200  0.32355600  0.66861600  1
  H  238  1  0.93075800  0.16524200  0.66959600  1
  H  239  1  0.92507000  0.24397300  0.60047200  1
  H  240  1  0.91506900  0.19257600  0.58830000  1
  H  243  1  0.93864800  0.15189400  0.73855900  1
  H  244  1  0.94239900  0.18323600  0.76125000  1
  H  246  1  0.91762100  0.28105300  0.64171500  1
  H  247  1  0.95748500  0.27621600  0.63695500  1
  H  251  1  0.04977000  0.23295500  0.67614800  1
  H  252  1  0.82751100  0.24754100  0.69515600  1
  H  253  1  0.91040800  0.12971800  0.63713300  1
  H  255  1  0.96967900  0.28608300  0.77109000  1
  H  280  1  0.83522600  0.69729000  0.73567800  1
  H  281  1  0.88237900  0.71378600  0.75385300  1
  H  282  1  0.99507000  0.70884000  0.75859600  1
  H  283  1  0.04230200  0.68737200  0.74499700  1
  H  284  1  0.99799300  0.63964000  0.68165700  1
  H  285  1  0.88152800  0.64914500  0.67385100  1
  H  286  1  0.93460600  0.62759600  0.74052800  1
  H  287  1  0.91445300  0.53883800  0.71309200  1
  H  288  1  0.92274300  0.55463800  0.66721500  1
  H  289  1  0.94837300  0.71212600  0.66886500  1
  H  290  1  0.94924000  0.63414400  0.59887900  1
  H  291  1  0.96132000  0.68522900  0.58707900  1
  H  294  1  0.94071800  0.72484000  0.73824700  1
  H  295  1  0.93728600  0.69315500  0.76059300  1
  H  297  1  0.95572600  0.59607600  0.63909300  1
  H  298  1  0.91593900  0.60297900  0.63629200  1
  H  302  1  0.82803700  0.64532500  0.67652800  1
  H  303  1  0.05047400  0.62990100  0.69094600  1
  H  304  1  0.96981400  0.74707500  0.63652400  1
  H  306  1  0.91419600  0.59028700  0.77120000  1
  H  331  1  0.17923800  0.83238200  0.23390300  1
  H  332  1  0.16244900  0.87901400  0.25281900  1
  H  333  1  0.16710700  0.99150800  0.25988400  1
  H  334  1  0.18879600  0.03913400  0.24754700  1
  H  335  1  0.23755200  0.99647600  0.18394800  1
  H  336  1  0.22791500  0.88023900  0.17333000  1
  H  337  1  0.24881100  0.92880500  0.24093600  1
  H  338  1  0.33836900  0.91328200  0.21294800  1
  H  339  1  0.32286500  0.92533800  0.16779300  1
  H  340  1  0.16464300  0.94589200  0.16940100  1
  H  341  1  0.24312800  0.95217600  0.10008400  1
  H  342  1  0.19169900  0.96267000  0.08821600  1
  H  345  1  0.15146500  0.93772700  0.23821000  1
  H  346  1  0.18281300  0.93368100  0.26085200  1
  H  348  1  0.28043100  0.95881400  0.14124700  1
  H  349  1  0.27535900  0.91902700  0.13618400  1
  H  353  1  0.23175600  0.82658700  0.17505200  1
  H  354  1  0.24774400  0.04856400  0.19529700  1
  H  355  1  0.12929000  0.96744300  0.13724200  1
  H  357  1  0.28558800  0.90539400  0.27014800  1
  H  382  1  0.69632800  0.04105100  0.23656200  1
  H  383  1  0.71308900  0.99386400  0.25450200  1
  H  384  1  0.70871600  0.88114600  0.25873400  1
  H  385  1  0.68746500  0.83389200  0.24497600  1
  H  386  1  0.63940400  0.87828200  0.18187800  1
  H  387  1  0.64829400  0.99486300  0.17460100  1
  H  388  1  0.62714800  0.94110200  0.24111300  1
  H  389  1  0.53823500  0.96115700  0.21399500  1
  H  390  1  0.55395200  0.95338100  0.16804100  1
  H  391  1  0.71152700  0.92827400  0.16909500  1
  H  392  1  0.63333300  0.92819800  0.09930300  1
  H  393  1  0.68439500  0.91658200  0.08720400  1
  H  396  1  0.72440100  0.93569600  0.23861800  1
  H  397  1  0.69272700  0.93880400  0.26101500  1
  H  399  1  0.59542800  0.92090500  0.13956100  1
  H  400  1  0.60217000  0.96074900  0.13710300  1
  H  404  1  0.64409500  0.04833700  0.17767400  1
  H  405  1  0.63003900  0.82568700  0.19085800  1
  H  406  1  0.74668300  0.90806000  0.13646700  1
  H  408  1  0.58979600  0.96073700  0.27210400  1
  H  415  1  0.15640800  0.19078600  0.23953900  1
  H  416  1  0.12402000  0.23010400  0.25674100  1
  H  423  1  0.12359200  0.10938900  0.22002100  1
  H  424  1  0.16160500  0.07662800  0.19978800  1
  H  425  1  0.22922100  0.11651700  0.24967300  1
  H  426  1  0.06970900  0.16469900  0.29652500  1
  H  427  1  0.19149800  0.14889600  0.27011600  1
  H  429  1  0.08294600  0.11195700  0.29337800  1
  H  430  1  0.11324600  0.09962700  0.27640600  1
  H  439  1  0.71829600  0.68321000  0.24128300  1
  H  440  1  0.75032100  0.64465300  0.26034300  1
  H  447  1  0.75230500  0.76370400  0.22005600  1
  H  448  1  0.71539300  0.79604700  0.19776600  1
  H  449  1  0.64553500  0.75852500  0.24665300  1
  H  450  1  0.80344500  0.71170000  0.29922200  1
  H  451  1  0.68216900  0.72653900  0.26912700  1
  H  453  1  0.79014400  0.76424500  0.29426000  1
  H  454  1  0.76028200  0.77584400  0.27629400  1
  H  463  1  0.68537800  0.15644000  0.73980100  1
  H  464  1  0.64603900  0.12406000  0.75697300  1
  H  471  1  0.76672300  0.12345800  0.72028100  1
  H  472  1  0.79947700  0.16138800  0.69992200  1
  H  473  1  0.75970100  0.22917900  0.74968700  1
  H  474  1  0.71140300  0.06967900  0.79673200  1
  H  475  1  0.72732400  0.19153700  0.77025500  1
  H  477  1  0.76415100  0.08290400  0.79362000  1
  H  478  1  0.77650100  0.11321400  0.77667700  1
  H  487  1  0.19299800  0.71835300  0.74111600  1
  H  488  1  0.23153200  0.75037200  0.76022700  1
  H  495  1  0.11247200  0.75224000  0.71984600  1
  H  496  1  0.08013000  0.71525900  0.69764300  1
  H  497  1  0.11771400  0.64553600  0.74664700  1
  H  498  1  0.16443300  0.80344700  0.79909200  1
  H  499  1  0.14969200  0.68223600  0.76904000  1
  H  501  1  0.11189600  0.79015200  0.79406900  1
  H  502  1  0.10031800  0.76030600  0.77606800  1
  H  511  1  0.72536100  0.68780400  0.75552100  1
  H  512  1  0.75590000  0.65413600  0.72842400  1
  H  519  1  0.76317800  0.75980400  0.78627700  1
  H  520  1  0.73144500  0.78904200  0.81675600  1
  H  521  1  0.65438500  0.76908700  0.76820100  1
  H  522  1  0.80259400  0.72910500  0.69482300  1
  H  523  1  0.68593400  0.73967200  0.73773500  1
  H  525  1  0.78911600  0.77962700  0.70862600  1
  H  526  1  0.76157100  0.78680000  0.73089600  1
  H  535  1  0.15228500  0.18720700  0.75385100  1
  H  536  1  0.12240400  0.22199700  0.72731900  1
  H  543  1  0.11286900  0.11446700  0.78237500  1
  H  544  1  0.14379500  0.08460400  0.81302300  1
  H  545  1  0.22218000  0.10598600  0.76671900  1
  H  546  1  0.07501000  0.14857900  0.69181500  1
  H  547  1  0.19144500  0.13599200  0.73607900  1
  H  549  1  0.08779900  0.09752400  0.70451200  1
  H  550  1  0.11508600  0.08938000  0.72677000  1
  H  559  1  0.18688100  0.72431600  0.25339900  1
  H  560  1  0.22140700  0.75415400  0.22653800  1
  H  567  1  0.11451600  0.76375300  0.28219300  1
  H  568  1  0.08482700  0.73306300  0.31316200  1
  H  569  1  0.10546500  0.65441400  0.26694300  1
  H  570  1  0.14759600  0.80101600  0.19111700  1
  H  571  1  0.13532500  0.68491500  0.23599000  1
  H  573  1  0.09666500  0.78813500  0.20414500  1
  H  574  1  0.08876100  0.76099000  0.22661000  1
  H  583  1  0.68748100  0.15127500  0.25600800  1
  H  584  1  0.65353200  0.12069400  0.22924600  1
  H  591  1  0.75987100  0.11345400  0.28647300  1
  H  592  1  0.78928900  0.14540200  0.31663500  1
  H  593  1  0.76856900  0.22221600  0.26802700  1
  H  594  1  0.72810300  0.07345900  0.19554600  1
  H  595  1  0.73900000  0.19045300  0.23787100  1
  H  597  1  0.77876200  0.08684500  0.20900500  1
  H  598  1  0.78618500  0.11453400  0.23106900  1
  H  607  1  0.90280300  0.46751000  0.26270000  1
  H  608  1  0.91373800  0.52108500  0.26077000  1
  H  615  1  0.97193500  0.40643100  0.25120200  1
  H  616  1  0.95972100  0.35290900  0.24916400  1
  H  617  1  0.87235700  0.37435300  0.21835100  1
  H  618  1  0.98443200  0.50461300  0.20471900  1
  H  619  1  0.88461000  0.42769000  0.21976000  1
  H  621  1  0.99216100  0.45489000  0.18740900  1
  H  622  1  0.97176300  0.42508800  0.19721700  1
  H  631  1  0.40865800  0.90239200  0.76245500  1
  H  632  1  0.35509400  0.91332700  0.76031500  1
  H  639  1  0.46984600  0.97157200  0.75153900  1
  H  640  1  0.52336900  0.95931900  0.74967700  1
  H  641  1  0.50200700  0.87213500  0.71841500  1
  H  642  1  0.37188800  0.98434600  0.70467500  1
  H  643  1  0.44867800  0.88443100  0.71964000  1
  H  645  1  0.42171600  0.99219100  0.68765000  1
  H  646  1  0.45146600  0.97174700  0.69751000  1
  H  655  1  0.97261300  0.46675900  0.73623400  1
  H  656  1  0.96341300  0.52066500  0.73872500  1
  H  663  1  0.90292400  0.40762500  0.74898100  1
  H  664  1  0.91342000  0.35375100  0.75171300  1
  H  665  1  0.00130200  0.37287700  0.78255300  1
  H  666  1  0.89486200  0.50605000  0.79726000  1
  H  667  1  0.99084500  0.42656600  0.78027800  1
  H  669  1  0.88622100  0.45644700  0.81451200  1
  H  670  1  0.90510000  0.42605500  0.80375300  1
  H  679  1  0.46656200  0.90248900  0.23650100  1
  H  680  1  0.52045000  0.91161900  0.23946500  1
  H  687  1  0.40721700  0.97225700  0.24841900  1
  H  688  1  0.35333600  0.96167800  0.25077700  1
  H  689  1  0.37231900  0.87399000  0.28212800  1
  H  690  1  0.50524800  0.98058100  0.29748800  1
  H  691  1  0.42600000  0.88454100  0.28024300  1
  H  693  1  0.45544500  0.98944800  0.31419100  1
  H  694  1  0.42515200  0.97055100  0.30324000  1
  H  703  1  0.90541400  0.16802500  0.47543300  1
  H  704  1  0.91423600  0.16550200  0.42716800  1
  H  711  1  0.97553600  0.15366000  0.52749200  1
  H  712  1  0.96578000  0.15081100  0.57577800  1
  H  713  1  0.87778000  0.11594200  0.55989600  1
  H  714  1  0.98240800  0.09946000  0.43946400  1
  H  715  1  0.88745900  0.11840400  0.51176000  1
  H  717  1  0.99141600  0.07997300  0.48368800  1
  H  718  1  0.97289800  0.09204100  0.51103900  1
  H  727  1  0.97207100  0.71298200  0.47474700  1
  H  728  1  0.96203500  0.71494200  0.42667800  1
  H  735  1  0.90175000  0.72561500  0.52791900  1
  H  736  1  0.91266400  0.72772500  0.57601600  1
  H  737  1  0.00030700  0.76278200  0.55887900  1
  H  738  1  0.89122600  0.77786600  0.44010500  1
  H  739  1  0.98939400  0.76126200  0.51092900  1
  H  741  1  0.88258200  0.79731700  0.48439700  1
  H  742  1  0.90239500  0.78634600  0.51138600  1
  H  751  1  0.70877300  0.90540500  0.97500900  1
  H  752  1  0.71086200  0.91473300  0.92682200  1
  H  759  1  0.72598500  0.97512100  0.02730000  1
  H  760  1  0.72849300  0.96490200  0.07551400  1
  H  761  1  0.75927600  0.87551100  0.05907400  1
  H  762  1  0.77852200  0.98132400  0.93904000  1
  H  763  1  0.75722500  0.88565900  0.01099000  1
  H  765  1  0.79895900  0.98919100  0.98308900  1
  H  766  1  0.78693100  0.97052600  0.01037000  1
  H  775  1  0.16377700  0.97206700  0.97522800  1
  H  776  1  0.16141400  0.96252700  0.92707500  1
  H  783  1  0.15391300  0.90141900  0.02809800  1
  H  784  1  0.15145500  0.91184500  0.07627900  1
  H  785  1  0.11255100  0.99799800  0.05976500  1
  H  786  1  0.10022000  0.89022200  0.94048600  1
  H  787  1  0.11449000  0.98757500  0.01174600  1
  H  789  1  0.08173100  0.88048300  0.98493000  1
  H  790  1  0.09270000  0.90014900  0.01200700  1
  C  1  1  0.94332700  0.21385200  0.33774300  1
  C  2  1  0.94634500  0.23685200  0.35797800  1
  C  3  1  0.93467900  0.27783100  0.32311400  1
  C  4  1  0.93384800  0.25566100  0.30201300  1
  C  5  1  0.92715600  0.26579400  0.27507100  1
  C  6  1  0.91957800  0.29651200  0.26890100  1
  C  7  1  0.91952000  0.31767200  0.29065400  1
  C  8  1  0.92786600  0.30867200  0.31713100  1
  C  9  1  0.95393400  0.22865200  0.38504700  1
  C  10  1  0.95801700  0.19794500  0.39242000  1
  C  11  1  0.95319600  0.17432800  0.37328800  1
  C  12  1  0.94652300  0.18287600  0.34599900  1
  C  13  1  0.90889400  0.20635000  0.29910600  1
  C  14  1  0.90853300  0.18519400  0.27718400  1
  C  15  1  0.96549900  0.19099800  0.27085700  1
  C  16  1  0.96676900  0.21219300  0.29274100  1
  C  17  1  0.99229000  0.18384900  0.25608400  1
  C  18  1  0.02037200  0.19734100  0.26278500  1
  C  19  1  0.02282100  0.21745400  0.28520100  1
  C  20  1  0.99570300  0.22483600  0.29956900  1
  C  21  1  0.88060100  0.21384300  0.31170600  1
  C  22  1  0.85220200  0.20155500  0.30301000  1
  C  23  1  0.85296800  0.18062800  0.28102700  1
  C  24  1  0.88058200  0.17239300  0.26853100  1
  C  37  1  0.93822300  0.22192000  0.30797900  1
  C  38  1  0.93655100  0.17647500  0.26212000  1
  C  41  1  0.94207200  0.26971800  0.35174200  1
  C  44  1  0.05001400  0.23222700  0.29199600  1
  C  45  1  0.95735700  0.14353100  0.37963400  1
  C  46  1  0.82530100  0.21112000  0.31610000  1
  C  50  1  0.90922400  0.30375700  0.24270400  1
  C  52  1  0.93191000  0.66362900  0.33890700  1
  C  53  1  0.93055200  0.64087100  0.35949500  1
  C  54  1  0.94167000  0.59967900  0.32464500  1
  C  55  1  0.94047800  0.62153000  0.30329500  1
  C  56  1  0.94506900  0.61109500  0.27610800  1
  C  57  1  0.95217700  0.58032400  0.26977900  1
  C  58  1  0.95495200  0.55960600  0.29171000  1
  C  59  1  0.94887900  0.56892600  0.31860500  1
  C  60  1  0.92372000  0.64927500  0.38667400  1
  C  61  1  0.91862300  0.67993200  0.39373700  1
  C  62  1  0.92188800  0.70339400  0.37418800  1
  C  63  1  0.92802300  0.69462000  0.34685800  1
  C  64  1  0.96509900  0.67082600  0.29940600  1
  C  65  1  0.96479100  0.69164600  0.27723700  1
  C  66  1  0.90769500  0.68541800  0.27218400  1
  C  67  1  0.90707500  0.66473200  0.29447300  1
  C  68  1  0.88051100  0.69199800  0.25778700  1
  C  69  1  0.85270100  0.67847000  0.26529100  1
  C  70  1  0.85089100  0.65896100  0.28818600  1
  C  71  1  0.87840800  0.65210700  0.30215400  1
  C  72  1  0.99373300  0.66375200  0.31157700  1
  C  73  1  0.02181600  0.67623800  0.30231700  1
  C  74  1  0.02039900  0.69682800  0.28011400  1
  C  75  1  0.99244800  0.70454400  0.26793900  1
  C  88  1  0.93610300  0.65528300  0.30911100  1
  C  89  1  0.93634100  0.69989200  0.26260200  1
  C  92  1  0.93590800  0.60808700  0.35351500  1
  C  95  1  0.82392400  0.64433400  0.29595900  1
  C  96  1  0.91660400  0.73412100  0.38015500  1
  C  97  1  0.04903600  0.66726400  0.31520100  1
  C  101  1  0.95920300  0.57259900  0.24287500  1
  C  103  1  0.66263200  0.94340500  0.83783800  1
  C  104  1  0.63969500  0.94638700  0.85813600  1
  C  105  1  0.59863200  0.93453300  0.82338800  1
  C  106  1  0.62073900  0.93374400  0.80223200  1
  C  107  1  0.61055700  0.92698800  0.77531900  1
  C  108  1  0.57984100  0.91932500  0.76922200  1
  C  109  1  0.55873600  0.91925200  0.79101600  1
  C  110  1  0.56779900  0.92759600  0.81747700  1
  C  111  1  0.64798200  0.95408200  0.88516200  1
  C  112  1  0.67870700  0.95830900  0.89242500  1
  C  113  1  0.70225400  0.95352000  0.87322100  1
  C  114  1  0.69362700  0.94673200  0.84598100  1
  C  115  1  0.67012000  0.90893400  0.79924300  1
  C  116  1  0.69127900  0.90861600  0.77732600  1
  C  117  1  0.68526100  0.96555500  0.77092500  1
  C  118  1  0.66407900  0.96678400  0.79281900  1
  C  119  1  0.69233500  0.99236100  0.75614400  1
  C  120  1  0.67879800  0.02042100  0.76286100  1
  C  121  1  0.65867600  0.02281600  0.78527100  1
  C  122  1  0.65137100  0.99568900  0.79965300  1
  C  123  1  0.66274700  0.88064000  0.81189600  1
  C  124  1  0.67518500  0.85227700  0.80327800  1
  C  125  1  0.69614400  0.85309000  0.78132000  1
  C  126  1  0.70422500  0.88070600  0.76874400  1
  C  139  1  0.65448100  0.93823000  0.80810700  1
  C  140  1  0.69988200  0.93664500  0.76221600  1
  C  143  1  0.60682200  0.94198200  0.85199200  1
  C  146  1  0.64388900  0.04998800  0.79211300  1
  C  147  1  0.73305000  0.95788400  0.87942600  1
  C  148  1  0.66578500  0.82537400  0.81646600  1
  C  152  1  0.57257100  0.90889700  0.74306000  1
  C  154  1  0.21291900  0.93201800  0.83882000  1
  C  155  1  0.23574600  0.93067000  0.85934900  1
  C  156  1  0.27684700  0.94162900  0.82438600  1
  C  157  1  0.25493400  0.94042100  0.80309000  1
  C  158  1  0.26531200  0.94492800  0.77587000  1
  C  159  1  0.29608500  0.95196300  0.76946300  1
  C  160  1  0.31684400  0.95480700  0.79135500  1
  C  161  1  0.30758800  0.94879400  0.81827500  1
  C  162  1  0.22742900  0.92396000  0.88657100  1
  C  163  1  0.19678900  0.91898900  0.89374600  1
  C  164  1  0.17326100  0.92220800  0.87425200  1
  C  165  1  0.18194900  0.92823400  0.84687700  1
  C  166  1  0.20569300  0.96515500  0.79927200  1
  C  167  1  0.18488100  0.96487800  0.77709300  1
  C  168  1  0.19091700  0.90775300  0.77212700  1
  C  169  1  0.21162300  0.90711100  0.79440400  1
  C  170  1  0.18426100  0.88057300  0.75775700  1
  C  171  1  0.19773600  0.85274000  0.76526300  1
  C  172  1  0.21727600  0.85091300  0.78813300  1
  C  173  1  0.22419300  0.87842200  0.80209100  1
  C  174  1  0.21286600  0.99379500  0.81139000  1
  C  175  1  0.20053000  0.02190800  0.80203800  1
  C  176  1  0.17997400  0.02052000  0.77980900  1
  C  177  1  0.17211500  0.99256000  0.76771900  1
  C  190  1  0.22118300  0.93613700  0.80899100  1
  C  191  1  0.17653100  0.93642800  0.76250800  1
  C  194  1  0.26852100  0.93594300  0.85328200  1
  C  197  1  0.23183100  0.82391200  0.79592900  1
  C  198  1  0.14252100  0.91713300  0.88035900  1
  C  199  1  0.20967300  0.04913500  0.81481200  1
  C  203  1  0.30375300  0.95893500  0.74253300  1
  C  205  1  0.93436800  0.21273700  0.66300900  1
  C  206  1  0.93308400  0.23565900  0.64256000  1
  C  207  1  0.94284800  0.27678300  0.67772900  1
  C  208  1  0.94215600  0.25474200  0.69893500  1
  C  209  1  0.94713600  0.26505200  0.72612500  1
  C  210  1  0.95426200  0.29581400  0.73256000  1
  C  211  1  0.95562700  0.31687200  0.71076200  1
  C  212  1  0.94924100  0.30766400  0.68391400  1
  C  213  1  0.92676700  0.22749500  0.61524000  1
  C  214  1  0.92135500  0.19698100  0.60797100  1
  C  215  1  0.92344500  0.17337000  0.62752800  1
  C  216  1  0.93007500  0.18185200  0.65486600  1
  C  217  1  0.96793700  0.20611400  0.70249400  1
  C  218  1  0.96839800  0.18635600  0.72544100  1
  C  219  1  0.91098200  0.18973600  0.72966100  1
  C  220  1  0.90977800  0.21066900  0.70758100  1
  C  221  1  0.88389400  0.18167400  0.74358600  1
  C  222  1  0.85562500  0.19409900  0.73593800  1
  C  223  1  0.85332900  0.21436500  0.71360000  1
  C  224  1  0.88073700  0.22245200  0.69995000  1
  C  225  1  0.99636900  0.21426100  0.69046200  1
  C  226  1  0.02493500  0.20478900  0.70124100  1
  C  227  1  0.02432200  0.18628900  0.72487900  1
  C  228  1  0.99661200  0.17648600  0.73626200  1
  C  241  1  0.93850500  0.22091100  0.69287300  1
  C  242  1  0.94014500  0.17680600  0.73974600  1
  C  245  1  0.93773100  0.26847500  0.64876900  1
  C  248  1  0.82594400  0.22833100  0.70586500  1
  C  249  1  0.91640600  0.14293600  0.62154100  1
  C  250  1  0.05190300  0.21592200  0.68941600  1
  C  254  1  0.96278400  0.30318700  0.75926400  1
  C  256  1  0.94295600  0.66487300  0.66189600  1
  C  257  1  0.94270000  0.64218300  0.64121000  1
  C  258  1  0.93299000  0.60094100  0.67632000  1
  C  259  1  0.93581300  0.62264200  0.69766500  1
  C  260  1  0.93274900  0.61205500  0.72498300  1
  C  261  1  0.92580800  0.58130000  0.73153300  1
  C  262  1  0.92144400  0.56076900  0.70966900  1
  C  263  1  0.92585000  0.57022500  0.68255800  1
  C  264  1  0.94858200  0.65047400  0.61384200  1
  C  265  1  0.95524200  0.68082000  0.60680300  1
  C  266  1  0.95450400  0.70425200  0.62661300  1
  C  267  1  0.94807400  0.69569600  0.65396400  1
  C  268  1  0.91040700  0.67127100  0.70206100  1
  C  269  1  0.91050900  0.69073000  0.72521000  1
  C  270  1  0.96801000  0.68702200  0.72838100  1
  C  271  1  0.96865400  0.66646600  0.70600000  1
  C  272  1  0.99542900  0.69467200  0.74195500  1
  C  273  1  0.02344900  0.68220100  0.73366500  1
  C  274  1  0.02519600  0.66237400  0.71096200  1
  C  275  1  0.99744900  0.65467000  0.69769000  1
  C  276  1  0.88169000  0.66344100  0.69040900  1
  C  277  1  0.85338600  0.67292300  0.70171200  1
  C  278  1  0.85455800  0.69119200  0.72547100  1
  C  279  1  0.88255700  0.70067800  0.73652800  1
  C  292  1  0.93954200  0.65648100  0.69177100  1
  C  293  1  0.93912100  0.69991800  0.73913900  1
  C  296  1  0.93671900  0.60952000  0.64724000  1
  C  299  1  0.05236100  0.64855800  0.70237200  1
  C  300  1  0.96279300  0.73443400  0.62089200  1
  C  301  1  0.82617000  0.66199700  0.69018800  1
  C  305  1  0.92038100  0.57349800  0.75871900  1
  C  307  1  0.21210200  0.94216100  0.16261400  1
  C  308  1  0.23495100  0.94358800  0.14210500  1
  C  309  1  0.27616200  0.93325900  0.17707800  1
  C  310  1  0.25420300  0.93390200  0.19835200  1
  C  311  1  0.26457800  0.92867200  0.22548300  1
  C  312  1  0.29532200  0.92133800  0.23179200  1
  C  313  1  0.31628700  0.91997600  0.20992400  1
  C  314  1  0.30703200  0.92664700  0.18314100  1
  C  315  1  0.22670300  0.95033200  0.11488400  1
  C  316  1  0.19618800  0.95604900  0.10779200  1
  C  317  1  0.17265000  0.95370900  0.12739200  1
  C  318  1  0.18119900  0.94667300  0.15462500  1
  C  319  1  0.20544700  0.90835800  0.20193500  1
  C  320  1  0.18575300  0.90786500  0.22492300  1
  C  321  1  0.18944700  0.96524500  0.22940100  1
  C  322  1  0.21034800  0.96645700  0.20729600  1
  C  323  1  0.18155900  0.99230100  0.24345300  1
  C  324  1  0.19413600  0.02054300  0.23591500  1
  C  325  1  0.21434100  0.02285200  0.21353200  1
  C  326  1  0.22227800  0.99547100  0.19977200  1
  C  327  1  0.21342100  0.87995600  0.18975200  1
  C  328  1  0.20384800  0.85137000  0.20042300  1
  C  329  1  0.18541100  0.85194600  0.22410300  1
  C  330  1  0.17576200  0.87964000  0.23562700  1
  C  343  1  0.22037400  0.93776500  0.19242100  1
  C  344  1  0.17637000  0.93609400  0.23936300  1
  C  347  1  0.26776900  0.93870400  0.14818000  1
  C  350  1  0.22846900  0.05018700  0.20590600  1
  C  351  1  0.14225200  0.96104300  0.12160700  1
  C  352  1  0.21487400  0.82442100  0.18846700  1
  C  356  1  0.30268700  0.91246000  0.25839900  1
  C  358  1  0.66424000  0.93362500  0.16231600  1
  C  359  1  0.64148400  0.93407900  0.14169100  1
  C  360  1  0.60032300  0.94324800  0.17697400  1
  C  361  1  0.62209500  0.94030100  0.19824900  1
  C  362  1  0.61156400  0.94306000  0.22561400  1
  C  363  1  0.58079700  0.94982000  0.23227600  1
  C  364  1  0.56019400  0.95431900  0.21048600  1
  C  365  1  0.56960300  0.95023300  0.18332500  1
  C  366  1  0.64970900  0.92867100  0.11423100  1
  C  367  1  0.68005800  0.92227800  0.10702600  1
  C  368  1  0.70355200  0.92270100  0.12678800  1
  C  369  1  0.69504800  0.92869200  0.15423800  1
  C  370  1  0.67060200  0.96592300  0.20265200  1
  C  371  1  0.69010200  0.96578400  0.22576900  1
  C  372  1  0.68673000  0.90825100  0.22865000  1
  C  373  1  0.66613300  0.90762500  0.20629800  1
  C  374  1  0.69455300  0.88080300  0.24209100  1
  C  375  1  0.68220600  0.85276400  0.23370300  1
  C  376  1  0.66234000  0.85103200  0.21102900  1
  C  377  1  0.65447000  0.87881400  0.19788300  1
  C  378  1  0.66261300  0.99466900  0.19114000  1
  C  379  1  0.67199600  0.02295000  0.20255200  1
  C  380  1  0.69027800  0.02173700  0.22630000  1
  C  381  1  0.69990100  0.99371900  0.23722600  1
  C  394  1  0.65593900  0.93677400  0.19224000  1
  C  395  1  0.69947400  0.93714200  0.23954500  1
  C  398  1  0.60882300  0.93987100  0.14784700  1
  C  401  1  0.64863700  0.82383600  0.20236200  1
  C  402  1  0.73377700  0.91468800  0.12087200  1
  C  403  1  0.66092900  0.05017900  0.19117600  1
  C  407  1  0.57299200  0.95482200  0.25953300  1
  C  409  1  0.09336700  0.20063100  0.27736200  1
  C  410  1  0.08764900  0.16973800  0.28389200  1
  C  411  1  0.10673100  0.14587200  0.27410900  1
  C  412  1  0.13241400  0.15355000  0.25751100  1
  C  413  1  0.13803500  0.18462500  0.25127500  1
  C  414  1  0.11896600  0.20782200  0.26126400  1
  C  417  1  0.15378600  0.13169500  0.24749600  1
  C  418  1  0.14557400  0.11031000  0.22710200  1
  C  419  1  0.16778200  0.09110200  0.21523500  1
  C  420  1  0.19860000  0.09290800  0.22362100  1
  C  421  1  0.20686300  0.11422800  0.24387200  1
  C  422  1  0.18469600  0.13323000  0.25582700  1
  C  433  1  0.78032600  0.67500000  0.28070700  1
  C  434  1  0.78577800  0.70613200  0.28645800  1
  C  435  1  0.76693100  0.72955500  0.27554100  1
  C  436  1  0.74174200  0.72117000  0.25861600  1
  C  437  1  0.73629000  0.68985700  0.25327200  1
  C  438  1  0.75513700  0.66710600  0.26436000  1
  C  441  1  0.72086600  0.74261900  0.24718800  1
  C  442  1  0.73004200  0.76315400  0.22643000  1
  C  443  1  0.70847900  0.78208500  0.21333800  1
  C  444  1  0.67736000  0.78086700  0.22086200  1
  C  445  1  0.66811100  0.76033200  0.24141700  1
  C  446  1  0.68963300  0.74157900  0.25457100  1
  C  457  1  0.67548900  0.09337300  0.77757900  1
  C  458  1  0.70637700  0.08763700  0.78411700  1
  C  459  1  0.73025500  0.10671800  0.77435500  1
  C  460  1  0.72259700  0.13241700  0.75776900  1
  C  461  1  0.69152700  0.13806200  0.75153700  1
  C  462  1  0.66831600  0.11899700  0.76150600  1
  C  465  1  0.74447600  0.15374400  0.74771300  1
  C  466  1  0.76582900  0.14546000  0.72731900  1
  C  467  1  0.78503500  0.16761900  0.71537400  1
  C  468  1  0.78326000  0.19846300  0.72368700  1
  C  469  1  0.76197500  0.20680000  0.74394400  1
  C  470  1  0.74297200  0.18468000  0.75597200  1
  C  481  1  0.20115600  0.78035300  0.78058700  1
  C  482  1  0.17001700  0.78579700  0.78631600  1
  C  483  1  0.14661000  0.76695700  0.77536400  1
  C  484  1  0.15501800  0.74178100  0.75843100  1
  C  485  1  0.18633600  0.73634600  0.75310100  1
  C  486  1  0.20907100  0.75518600  0.76422100  1
  C  489  1  0.13358900  0.72087100  0.74702700  1
  C  490  1  0.11304100  0.72998900  0.72625900  1
  C  491  1  0.09410900  0.70838900  0.71321800  1
  C  492  1  0.09534600  0.67728700  0.72080400  1
  C  493  1  0.11589700  0.66809600  0.74136700  1
  C  494  1  0.13464700  0.68965900  0.75446900  1
  C  505  1  0.78260000  0.68883800  0.71002900  1
  C  506  1  0.78643800  0.72076100  0.70798100  1
  C  507  1  0.76871500  0.74124400  0.72388700  1
  C  508  1  0.74600200  0.72902300  0.74169400  1
  C  509  1  0.74156500  0.69703900  0.74287800  1
  C  510  1  0.75952600  0.67720000  0.72709000  1
  C  513  1  0.72757500  0.74753700  0.75890000  1
  C  514  1  0.74037900  0.76199900  0.78204000  1
  C  515  1  0.72184200  0.77899400  0.79995600  1
  C  516  1  0.69030100  0.78222200  0.79474700  1
  C  517  1  0.67733800  0.76748700  0.77191900  1
  C  518  1  0.69582900  0.75028100  0.75413300  1
  C  529  1  0.09549500  0.18814800  0.70793200  1
  C  530  1  0.09124600  0.15634300  0.70517500  1
  C  531  1  0.10857400  0.13520500  0.72074000  1
  C  532  1  0.13128900  0.14663000  0.73896400  1
  C  533  1  0.13613200  0.17851900  0.74085400  1
  C  534  1  0.11857200  0.19902100  0.72538500  1
  C  537  1  0.14919500  0.12743700  0.75603400  1
  C  538  1  0.13576600  0.11233000  0.77855900  1
  C  539  1  0.15382500  0.09493900  0.79656200  1
  C  540  1  0.18552300  0.09194200  0.79205600  1
  C  541  1  0.19909400  0.10727700  0.76983600  1
  C  542  1  0.18107800  0.12485900  0.75195600  1
  C  553  1  0.18733600  0.78079200  0.20715700  1
  C  554  1  0.15550000  0.78488800  0.20451700  1
  C  555  1  0.13452200  0.76759700  0.22028400  1
  C  556  1  0.14614500  0.74506100  0.23858100  1
  C  557  1  0.17806000  0.74034100  0.24034300  1
  C  558  1  0.19840400  0.75787400  0.22468400  1
  C  561  1  0.12711700  0.72726800  0.25588400  1
  C  562  1  0.11227600  0.74084600  0.27847700  1
  C  563  1  0.09499000  0.72292500  0.29666800  1
  C  564  1  0.09181400  0.69122400  0.29227400  1
  C  565  1  0.10689400  0.67750400  0.26998700  1
  C  566  1  0.12438900  0.69537900  0.25192500  1
  C  577  1  0.68801200  0.09372100  0.21083300  1
  C  578  1  0.71990700  0.08972800  0.20866400  1
  C  579  1  0.74055600  0.10748800  0.22436400  1
  C  580  1  0.72854100  0.13038000  0.24209900  1
  C  581  1  0.69657900  0.13494300  0.24341800  1
  C  582  1  0.67657200  0.11695700  0.22782700  1
  C  585  1  0.74722500  0.14890700  0.25907900  1
  C  586  1  0.76196100  0.13624000  0.28214200  1
  C  587  1  0.77906000  0.15490400  0.29987300  1
  C  588  1  0.78210600  0.18644100  0.29456500  1
  C  589  1  0.76710900  0.19926600  0.27181200  1
  C  590  1  0.74981200  0.18064800  0.25420500  1
  C  601  1  0.95127500  0.51727100  0.23367500  1
  C  602  1  0.96758400  0.49642500  0.21728900  1
  C  603  1  0.96088500  0.46476300  0.21717500  1
  C  604  1  0.93727100  0.45370000  0.23466100  1
  C  605  1  0.92033200  0.47484600  0.25049300  1
  C  606  1  0.92693700  0.50629100  0.24973200  1
  C  609  1  0.92928400  0.42217800  0.23600700  1
  C  610  1  0.95061700  0.39996300  0.24484600  1
  C  611  1  0.94345800  0.36859800  0.24383500  1
  C  612  1  0.91449700  0.35886700  0.23459200  1
  C  613  1  0.89313500  0.38095400  0.22593400  1
  C  614  1  0.90029300  0.41226900  0.22687100  1
  C  625  1  0.35906300  0.95102100  0.73341200  1
  C  626  1  0.38000300  0.96742900  0.71720600  1
  C  627  1  0.41167000  0.96074000  0.71722000  1
  C  628  1  0.42263200  0.93702900  0.73464900  1
  C  629  1  0.40139500  0.91999200  0.75029800  1
  C  630  1  0.36995200  0.92658800  0.74940600  1
  C  633  1  0.45414300  0.92901400  0.73609500  1
  C  634  1  0.47633000  0.95027800  0.74512400  1
  C  635  1  0.50769300  0.94309300  0.74422600  1
  C  636  1  0.51744900  0.91417200  0.73490200  1
  C  637  1  0.49538800  0.89287800  0.72605900  1
  C  638  1  0.46407500  0.90006100  0.72688800  1
  C  649  1  0.92705000  0.51783900  0.76716000  1
  C  650  1  0.91083300  0.49741600  0.78402900  1
  C  651  1  0.91649700  0.46556000  0.78374300  1
  C  652  1  0.93895400  0.45389600  0.76538100  1
  C  653  1  0.95582900  0.47457500  0.74902200  1
  C  654  1  0.95024800  0.50620700  0.75014500  1
  C  657  1  0.94609800  0.42220200  0.76391900  1
  C  658  1  0.92406000  0.40056700  0.75532700  1
  C  659  1  0.93019900  0.36900600  0.75677100  1
  C  660  1  0.95875800  0.35851400  0.76633500  1
  C  661  1  0.98084500  0.38002800  0.77468400  1
  C  662  1  0.97474000  0.41153900  0.77323800  1
  C  673  1  0.51734000  0.94817300  0.26767800  1
  C  674  1  0.49674200  0.96454900  0.28425300  1
  C  675  1  0.46487700  0.95894200  0.28368200  1
  C  676  1  0.45339600  0.93637300  0.26533400  1
  C  677  1  0.47424500  0.91935600  0.24926600  1
  C  678  1  0.50587300  0.92488200  0.25067500  1
  C  681  1  0.42172300  0.92919400  0.26365900  1
  C  682  1  0.40013400  0.95114100  0.25479600  1
  C  683  1  0.36856800  0.94494900  0.25601000  1
  C  684  1  0.35803300  0.91641800  0.26560900  1
  C  685  1  0.37950700  0.89442300  0.27422400  1
  C  686  1  0.41101900  0.90058000  0.27301100  1
  C  697  1  0.95036000  0.13338800  0.42926300  1
  C  698  1  0.96657500  0.11430000  0.44734800  1
  C  699  1  0.96119100  0.11454100  0.47587400  1
  C  700  1  0.93894900  0.13514900  0.48657500  1
  C  701  1  0.92201700  0.15362000  0.46826600  1
  C  702  1  0.92736600  0.15249700  0.43993800  1
  C  705  1  0.93222000  0.13680300  0.51501600  1
  C  706  1  0.95452600  0.14650400  0.53407700  1
  C  707  1  0.94882700  0.14499000  0.56237300  1
  C  708  1  0.92046600  0.13422000  0.57217000  1
  C  709  1  0.89811900  0.12475900  0.55322100  1
  C  710  1  0.90376600  0.12633500  0.52496400  1
  C  721  1  0.92452600  0.74536800  0.42939800  1
  C  722  1  0.90792500  0.76382400  0.44772300  1
  C  723  1  0.91403900  0.76400100  0.47613300  1
  C  724  1  0.93741800  0.74443700  0.48646500  1
  C  725  1  0.95472600  0.72667500  0.46787200  1
  C  726  1  0.94867400  0.72744400  0.43965800  1
  C  729  1  0.94468600  0.74287200  0.51481000  1
  C  730  1  0.92286800  0.73282200  0.53417900  1
  C  731  1  0.92925100  0.73388000  0.56236700  1
  C  732  1  0.95790000  0.74435100  0.57174100  1
  C  733  1  0.97974700  0.75421200  0.55249400  1
  C  734  1  0.97337300  0.75319200  0.52434600  1
  C  745  1  0.74376000  0.95014900  0.92890600  1
  C  746  1  0.76347500  0.96569000  0.94692800  1
  C  747  1  0.76354800  0.95991900  0.97539300  1
  C  748  1  0.74257800  0.93802900  0.98611500  1
  C  749  1  0.72349400  0.92173200  0.96784400  1
  C  750  1  0.72434400  0.92740600  0.93956300  1
  C  753  1  0.74092300  0.93120300  0.01453800  1
  C  754  1  0.73226100  0.95377900  0.03374600  1
  C  755  1  0.73357400  0.94781600  0.06200000  1
  C  756  1  0.74299700  0.91890500  0.07160800  1
  C  757  1  0.75143700  0.89629500  0.05252500  1
  C  758  1  0.75010100  0.90222600  0.02430400  1
  C  769  1  0.13183100  0.92435400  0.92976000  1
  C  770  1  0.11402500  0.90710700  0.94812000  1
  C  771  1  0.11414800  0.91284200  0.97659600  1
  C  772  1  0.13330500  0.93654800  0.98694000  1
  C  773  1  0.15043100  0.95446500  0.96833000  1
  C  774  1  0.14940600  0.94873200  0.94006700  1
  C  777  1  0.13485400  0.94369600  0.01530600  1
  C  778  1  0.14587400  0.92217400  0.03451400  1
  C  779  1  0.14461000  0.92828400  0.06274900  1
  C  780  1  0.13285900  0.95634500  0.07233500  1
  C  781  1  0.12204800  0.97790600  0.05323700  1
  C  782  1  0.12331500  0.97182800  0.02504200  1
  N  428  1  0.10037200  0.11666300  0.28175000  1
  N  431  1  0.22083300  0.07795700  0.21108400  1
  N  432  1  0.07776300  0.22385900  0.28772000  1
  N  452  1  0.77306100  0.75905800  0.28239300  1
  N  455  1  0.65587500  0.79593000  0.20743700  1
  N  456  1  0.79602200  0.65228000  0.29181200  1
  N  476  1  0.75945900  0.10033700  0.78200000  1
  N  479  1  0.79818900  0.22064200  0.71105200  1
  N  480  1  0.65225100  0.07775000  0.78789200  1
  N  500  1  0.11709800  0.77307600  0.78219600  1
  N  503  1  0.08027500  0.65575700  0.70744600  1
  N  504  1  0.22385900  0.79602400  0.79174900  1
  N  524  1  0.77366600  0.77178400  0.72110200  1
  N  527  1  0.67258500  0.79720800  0.81199000  1
  N  528  1  0.79817300  0.66930800  0.69481300  1
  N  548  1  0.10323300  0.10482000  0.71726500  1
  N  551  1  0.20292500  0.07717000  0.80969700  1
  N  552  1  0.07996000  0.20829600  0.69332600  1
  N  572  1  0.10409700  0.77281800  0.21694600  1
  N  575  1  0.07707200  0.67398800  0.31006200  1
  N  576  1  0.20732000  0.79634800  0.19239400  1
  N  596  1  0.77106000  0.10241000  0.22143600  1
  N  599  1  0.79713000  0.20431200  0.31165500  1
  N  600  1  0.66830600  0.07816000  0.19578600  1
  N  620  1  0.97664100  0.44654600  0.19955500  1
  N  623  1  0.90751900  0.32976900  0.23060200  1
  N  624  1  0.95828900  0.54654800  0.23081200  1
  N  644  1  0.42999100  0.97660500  0.69976200  1
  N  647  1  0.54655200  0.90717600  0.73097600  1
  N  648  1  0.32979300  0.95802300  0.73044500  1
  N  668  1  0.90093700  0.44771200  0.80180100  1
  N  671  1  0.96445400  0.32931100  0.77116800  1
  N  672  1  0.92124200  0.54730600  0.77053300  1
  N  692  1  0.44683900  0.97465900  0.30147800  1
  N  695  1  0.32881100  0.91066000  0.27028100  1
  N  696  1  0.54679000  0.95386500  0.27132800  1
  N  716  1  0.97683700  0.09423100  0.49164900  1
  N  719  1  0.91526400  0.12901700  0.59842400  1
  N  720  1  0.95596500  0.12982000  0.40282300  1
  N  740  1  0.89794000  0.78373200  0.49212700  1
  N  743  1  0.96398800  0.74871800  0.59795800  1
  N  744  1  0.91802900  0.74837600  0.40307600  1
  N  764  1  0.78446700  0.97486200  0.99107600  1
  N  767  1  0.74784000  0.91327400  0.09783700  1
  N  768  1  0.74694300  0.95621400  0.90250900  1
  N  788  1  0.09505000  0.89607400  0.99265700  1
  N  791  1  0.12812100  0.96199800  0.09858800  1
  N  792  1  0.12845000  0.91829900  0.90338700  1
