# generated using pymatgen
data_H11C14(N3O)2
_symmetry_space_group_name_H-M   'P 1'
_cell_length_a   46.00440000
_cell_length_b   46.76900000
_cell_length_c   92.77350000
_cell_angle_alpha   90.00000000
_cell_angle_beta   90.00000000
_cell_angle_gamma   90.00000000
_symmetry_Int_Tables_number   1
_chemical_formula_structural   H11C14(N3O)2
_chemical_formula_sum   'H1408 C1792 N768 O256'
_cell_volume   199609.58705381
_cell_formula_units_Z   128
loop_
 _symmetry_equiv_pos_site_id
 _symmetry_equiv_pos_as_xyz
  1  'x, y, z'
loop_
 _atom_site_type_symbol
 _atom_site_label
 _atom_site_symmetry_multiplicity
 _atom_site_fract_x
 _atom_site_fract_y
 _atom_site_fract_z
 _atom_site_occupancy
  H  7  1  0.16125400  0.07831900  0.04554700  1
  H  16  1  0.14415900  0.15074300  0.06383000  1
  H  19  1  0.10677100  0.12097200  0.08309100  1
  H  20  1  0.07276600  0.11910100  0.07772800  1
  H  21  1  0.18634900  0.04969500  0.08181900  1
  H  22  1  0.15713800  0.05241600  0.07183000  1
  H  23  1  0.23545400  0.13713700  0.09922200  1
  H  24  1  0.22536300  0.16830300  0.09281200  1
  H  25  1  0.04768300  0.07313500  0.03182400  1
  H  26  1  0.07328300  0.05919300  0.02171500  1
  H  37  1  0.29370200  0.94620300  0.54553600  1
  H  46  1  0.31079200  0.87377600  0.56381400  1
  H  49  1  0.34819100  0.90356500  0.58308300  1
  H  50  1  0.38219800  0.90546400  0.57772700  1
  H  51  1  0.26862900  0.97482600  0.58181800  1
  H  52  1  0.29782800  0.97210600  0.57182000  1
  H  53  1  0.21960900  0.88735600  0.59929200  1
  H  54  1  0.22972600  0.85619000  0.59289000  1
  H  55  1  0.40727400  0.95139200  0.53181300  1
  H  56  1  0.38167700  0.96533700  0.52170600  1
  H  67  1  0.16469400  0.94396800  0.29667600  1
  H  76  1  0.09190500  0.92731800  0.31517200  1
  H  79  1  0.12264400  0.89116000  0.33481700  1
  H  80  1  0.12429300  0.85758200  0.32960300  1
  H  81  1  0.19430400  0.97035700  0.33264400  1
  H  82  1  0.19170800  0.94101100  0.32307900  1
  H  83  1  0.10497500  0.01936300  0.34915600  1
  H  84  1  0.07342800  0.00878500  0.34285100  1
  H  85  1  0.16913800  0.83206100  0.28331600  1
  H  86  1  0.18292000  0.85708600  0.27298200  1
  H  97  1  0.29030900  0.08057500  0.79664800  1
  H  106  1  0.36307800  0.09719800  0.81515100  1
  H  109  1  0.33238800  0.13333100  0.83480700  1
  H  110  1  0.33070500  0.16691500  0.82960800  1
  H  111  1  0.26068200  0.05420300  0.83266100  1
  H  112  1  0.26327500  0.08352700  0.82307900  1
  H  113  1  0.34998800  0.00506400  0.84905700  1
  H  114  1  0.38152400  0.01562400  0.84272400  1
  H  115  1  0.28577300  0.19251100  0.78335400  1
  H  116  1  0.27201300  0.16749700  0.77300400  1
  H  127  1  0.29246100  0.07935500  0.44338800  1
  H  136  1  0.30789700  0.15164900  0.42678800  1
  H  139  1  0.34897500  0.12240700  0.40676300  1
  H  140  1  0.38275900  0.12003000  0.41243200  1
  H  141  1  0.27874500  0.05140400  0.40224300  1
  H  142  1  0.30340600  0.05415600  0.41497900  1
  H  143  1  0.23093400  0.13850500  0.38377200  1
  H  144  1  0.23661400  0.16936800  0.39171600  1
  H  145  1  0.40469400  0.07729400  0.45953800  1
  H  146  1  0.37824600  0.06460200  0.46954100  1
  H  157  1  0.16257500  0.94517000  0.94339400  1
  H  166  1  0.14714200  0.87288500  0.92680000  1
  H  169  1  0.10602800  0.90213900  0.90677500  1
  H  170  1  0.07224500  0.90455700  0.91244100  1
  H  171  1  0.17625200  0.97314400  0.90225400  1
  H  172  1  0.15159400  0.97037900  0.91499100  1
  H  173  1  0.22403900  0.88602800  0.88375600  1
  H  174  1  0.21834000  0.85515900  0.89169300  1
  H  175  1  0.05033700  0.94734400  0.95953800  1
  H  176  1  0.07677900  0.96004500  0.96953900  1
  H  187  1  0.29186300  0.94568100  0.19250600  1
  H  196  1  0.36435000  0.93077400  0.17555400  1
  H  199  1  0.33388800  0.89092400  0.15509800  1
  H  200  1  0.33177300  0.85754800  0.16060900  1
  H  201  1  0.26241400  0.96119800  0.15157800  1
  H  202  1  0.26520700  0.93613200  0.16393000  1
  H  203  1  0.35127100  0.00827200  0.13335300  1
  H  204  1  0.38257900  0.00226300  0.14127000  1
  H  205  1  0.29049200  0.83496000  0.20810800  1
  H  206  1  0.27806900  0.86078700  0.21837500  1
  H  217  1  0.16310400  0.07882700  0.69249300  1
  H  226  1  0.09063000  0.09372700  0.67554600  1
  H  229  1  0.12104500  0.13355800  0.65508000  1
  H  230  1  0.12319400  0.16693900  0.66058100  1
  H  231  1  0.19254200  0.06328800  0.65154400  1
  H  232  1  0.18977600  0.08832700  0.66391200  1
  H  233  1  0.10366300  0.01633400  0.63329400  1
  H  234  1  0.07236200  0.02231000  0.64122500  1
  H  235  1  0.16452400  0.18956000  0.70805700  1
  H  236  1  0.17692000  0.16373400  0.71833600  1
  H  247  1  0.78640700  0.94384200  0.94501600  1
  H  256  1  0.80390800  0.87462500  0.92600300  1
  H  259  1  0.84017000  0.90710400  0.90570000  1
  H  260  1  0.87441200  0.91310800  0.90981800  1
  H  261  1  0.76083600  0.97517500  0.90779000  1
  H  262  1  0.78975900  0.97280800  0.91800600  1
  H  263  1  0.71214100  0.88750500  0.89076500  1
  H  264  1  0.72218800  0.85645500  0.89733000  1
  H  265  1  0.89979000  0.96653000  0.95358100  1
  H  266  1  0.87421900  0.97678100  0.96475700  1
  H  277  1  0.66860400  0.08065400  0.44499900  1
  H  286  1  0.65106000  0.14987100  0.42599600  1
  H  289  1  0.61477000  0.11733100  0.40569000  1
  H  290  1  0.58053400  0.11131800  0.40982300  1
  H  291  1  0.69411600  0.04933000  0.40775800  1
  H  292  1  0.66520800  0.05169000  0.41798800  1
  H  293  1  0.74271400  0.13704100  0.39066800  1
  H  294  1  0.73263400  0.16808800  0.39722400  1
  H  295  1  0.55519700  0.05820800  0.45369100  1
  H  296  1  0.58079200  0.04793900  0.46485000  1
  H  307  1  0.79348100  0.08016100  0.69325400  1
  H  316  1  0.86743200  0.09730000  0.67510800  1
  H  319  1  0.83738700  0.13393500  0.65593500  1
  H  320  1  0.83582500  0.16731300  0.66143500  1
  H  321  1  0.76542000  0.05621400  0.65585400  1
  H  322  1  0.76766400  0.08411200  0.66655400  1
  H  323  1  0.85464700  0.00982300  0.63806200  1
  H  324  1  0.88663700  0.02160500  0.64332400  1
  H  325  1  0.78933500  0.19170200  0.70742500  1
  H  326  1  0.77486900  0.16650300  0.71741500  1
  H  337  1  0.66145600  0.94434400  0.19328500  1
  H  346  1  0.58752400  0.92723700  0.17512900  1
  H  349  1  0.61754300  0.89059500  0.15595000  1
  H  350  1  0.61915200  0.85721400  0.16143900  1
  H  351  1  0.68955400  0.96831300  0.15589000  1
  H  352  1  0.68730400  0.94041700  0.16659000  1
  H  353  1  0.60033800  0.01472000  0.13808900  1
  H  354  1  0.56834400  0.00294700  0.14335200  1
  H  355  1  0.66559900  0.83279600  0.20743300  1
  H  356  1  0.68005700  0.85798800  0.21743100  1
  H  367  1  0.66934500  0.94296800  0.54503300  1
  H  376  1  0.65102500  0.87381300  0.56387500  1
  H  379  1  0.61400400  0.90783300  0.58410400  1
  H  380  1  0.57991900  0.91397600  0.57969700  1
  H  381  1  0.68841500  0.97439200  0.58507600  1
  H  382  1  0.66094600  0.97162800  0.57386100  1
  H  383  1  0.74668300  0.88837100  0.59560700  1
  H  384  1  0.73556500  0.85693000  0.59011900  1
  H  385  1  0.55608600  0.96050300  0.53359200  1
  H  386  1  0.58226800  0.96938900  0.52245200  1
  H  397  1  0.78561400  0.08156700  0.04504000  1
  H  406  1  0.80393600  0.15071400  0.06388100  1
  H  409  1  0.84100700  0.11668600  0.08409800  1
  H  410  1  0.87508600  0.11052500  0.07968200  1
  H  411  1  0.76661800  0.05010700  0.08508200  1
  H  412  1  0.79407400  0.05289100  0.07386000  1
  H  413  1  0.70838000  0.13617500  0.09576100  1
  H  414  1  0.71951400  0.16757800  0.09023900  1
  H  415  1  0.89886000  0.06399200  0.03357500  1
  H  416  1  0.87266700  0.05509100  0.02244400  1
  H  427  1  0.65911500  0.07831500  0.79580900  1
  H  436  1  0.58610500  0.09373400  0.81299000  1
  H  439  1  0.61644500  0.13378400  0.83281900  1
  H  440  1  0.61846900  0.16700000  0.82710000  1
  H  441  1  0.68851200  0.06246800  0.83606500  1
  H  442  1  0.68568200  0.08690500  0.82340500  1
  H  443  1  0.59967300  0.02279200  0.85792500  1
  H  444  1  0.56768900  0.03080700  0.85118600  1
  H  445  1  0.66054600  0.18877000  0.77972400  1
  H  446  1  0.67331000  0.16281700  0.76964200  1
  H  457  1  0.79588500  0.94617500  0.29582100  1
  H  466  1  0.86888200  0.93077800  0.31299700  1
  H  469  1  0.83860500  0.89071900  0.33282800  1
  H  470  1  0.83655100  0.85750100  0.32711600  1
  H  471  1  0.76647900  0.96202300  0.33608500  1
  H  472  1  0.76930000  0.93760300  0.32341700  1
  H  473  1  0.85532300  0.00144000  0.35801800  1
  H  474  1  0.88730900  0.99348400  0.35125900  1
  H  475  1  0.79442400  0.83571500  0.27975900  1
  H  476  1  0.78168200  0.86167200  0.26966800  1
  H  487  1  0.66736000  0.58103900  0.54486000  1
  H  496  1  0.65073100  0.65409200  0.56302400  1
  H  499  1  0.61220700  0.62495300  0.58181900  1
  H  500  1  0.57839300  0.62351600  0.57614200  1
  H  501  1  0.69172700  0.55267000  0.58093900  1
  H  502  1  0.66306700  0.55558900  0.57058300  1
  H  503  1  0.73630400  0.63980700  0.60179700  1
  H  504  1  0.72526300  0.67143900  0.59631800  1
  H  505  1  0.55429300  0.57795800  0.53004400  1
  H  506  1  0.57996600  0.56326700  0.52026700  1
  H  517  1  0.78757300  0.44346300  0.04487400  1
  H  526  1  0.80423200  0.37042300  0.06304200  1
  H  529  1  0.84274100  0.39959400  0.08184000  1
  H  530  1  0.87655500  0.40105000  0.07616500  1
  H  531  1  0.76321400  0.47183200  0.08095800  1
  H  532  1  0.79186800  0.46892200  0.07059500  1
  H  533  1  0.71867700  0.38469100  0.10182800  1
  H  534  1  0.72972400  0.35306300  0.09634900  1
  H  535  1  0.90063800  0.44654800  0.03005000  1
  H  536  1  0.87496000  0.46123500  0.02027400  1
  H  547  1  0.65842400  0.44882100  0.79520900  1
  H  556  1  0.58720500  0.43081400  0.81387500  1
  H  559  1  0.61982600  0.39564700  0.83411700  1
  H  560  1  0.62580500  0.36198200  0.82992200  1
  H  561  1  0.68842800  0.47285600  0.83386700  1
  H  562  1  0.68668400  0.44481400  0.82324900  1
  H  563  1  0.59880400  0.52307100  0.84791700  1
  H  564  1  0.56738500  0.51240400  0.84146500  1
  H  565  1  0.68134100  0.33732000  0.78647600  1
  H  566  1  0.69209000  0.36255500  0.77543300  1
  H  577  1  0.79657000  0.57567500  0.29518800  1
  H  586  1  0.86774500  0.59369100  0.31386500  1
  H  589  1  0.83510900  0.62886800  0.33410700  1
  H  590  1  0.82910600  0.66252900  0.32991000  1
  H  591  1  0.76652200  0.55162700  0.33384400  1
  H  592  1  0.76826400  0.57966700  0.32322300  1
  H  593  1  0.85613300  0.50139500  0.34786300  1
  H  594  1  0.88754800  0.51207100  0.34140000  1
  H  595  1  0.77358500  0.68715900  0.28646100  1
  H  596  1  0.76284000  0.66191800  0.27541900  1
  H  607  1  0.78208800  0.58170200  0.94346200  1
  H  616  1  0.80175200  0.65442400  0.92596000  1
  H  619  1  0.84161500  0.62481600  0.90813700  1
  H  620  1  0.87489700  0.62239400  0.91447600  1
  H  621  1  0.76542500  0.55350600  0.90489200  1
  H  622  1  0.79281300  0.55654000  0.91613500  1
  H  623  1  0.70947400  0.63999500  0.89174900  1
  H  624  1  0.72184200  0.67173800  0.89616000  1
  H  625  1  0.89287100  0.57731000  0.96158900  1
  H  626  1  0.86542800  0.56432100  0.97086900  1
  H  637  1  0.67287700  0.44274000  0.44347400  1
  H  646  1  0.65327700  0.37001500  0.42596400  1
  H  649  1  0.61335900  0.39956000  0.40816500  1
  H  650  1  0.58007700  0.40200200  0.41449900  1
  H  651  1  0.68945200  0.47099400  0.40490400  1
  H  652  1  0.66208500  0.46791900  0.41615500  1
  H  653  1  0.74536400  0.38452900  0.39158700  1
  H  654  1  0.73302800  0.35279400  0.39603400  1
  H  655  1  0.56205500  0.44735700  0.46154300  1
  H  656  1  0.58948900  0.46034200  0.47083000  1
  H  667  1  0.79705900  0.45038600  0.69427600  1
  H  676  1  0.86711900  0.43432200  0.67673100  1
  H  679  1  0.83311400  0.39574300  0.65534200  1
  H  680  1  0.82712100  0.36223200  0.65985300  1
  H  681  1  0.76597700  0.46611900  0.65235000  1
  H  682  1  0.76808800  0.44159600  0.66500700  1
  H  683  1  0.85578300  0.51128400  0.63410600  1
  H  684  1  0.88685400  0.50501700  0.64218300  1
  H  685  1  0.78061200  0.33890200  0.70614500  1
  H  686  1  0.77165700  0.36467100  0.71727800  1
  H  697  1  0.65788500  0.57411400  0.19426800  1
  H  706  1  0.58782400  0.59016900  0.17673400  1
  H  709  1  0.62175600  0.62874800  0.15534600  1
  H  710  1  0.62777000  0.66226000  0.15985100  1
  H  711  1  0.68894900  0.55838100  0.15232900  1
  H  712  1  0.68685400  0.58288200  0.16499600  1
  H  713  1  0.59911700  0.51330400  0.13406300  1
  H  714  1  0.56806500  0.51952000  0.14216700  1
  H  715  1  0.67449200  0.68559400  0.20609100  1
  H  716  1  0.68342400  0.65982700  0.21723100  1
  H  727  1  0.29565700  0.44170100  0.44563700  1
  H  736  1  0.31408700  0.37208400  0.42611300  1
  H  739  1  0.35006900  0.40452700  0.40658800  1
  H  740  1  0.38422900  0.41002200  0.41099800  1
  H  741  1  0.26882900  0.47251600  0.40931600  1
  H  742  1  0.29762200  0.47029900  0.41962400  1
  H  743  1  0.22669800  0.38467200  0.38813300  1
  H  744  1  0.23876600  0.35324100  0.39336600  1
  H  745  1  0.40903300  0.46364500  0.45470500  1
  H  746  1  0.38333900  0.47425500  0.46570600  1
  H  757  1  0.15932500  0.58288500  0.94563000  1
  H  766  1  0.14100400  0.65253800  0.92612400  1
  H  769  1  0.10494100  0.62017900  0.90660200  1
  H  770  1  0.07077700  0.61467500  0.91100200  1
  H  771  1  0.18605400  0.55202900  0.90929000  1
  H  772  1  0.15725900  0.55428900  0.91959600  1
  H  773  1  0.22842600  0.63981800  0.88817500  1
  H  774  1  0.21639500  0.67126600  0.89340500  1
  H  775  1  0.04595000  0.56086800  0.95465300  1
  H  776  1  0.07163000  0.55025400  0.96565900  1
  H  787  1  0.29418100  0.57553800  0.19416700  1
  H  796  1  0.36304800  0.59393000  0.17426200  1
  H  799  1  0.32861200  0.62819500  0.15412500  1
  H  800  1  0.32290600  0.66190100  0.15832000  1
  H  801  1  0.26160500  0.54745900  0.15798800  1
  H  802  1  0.26357300  0.57613700  0.16808300  1
  H  803  1  0.35148200  0.50624600  0.13720000  1
  H  804  1  0.38326100  0.51868400  0.14236700  1
  H  805  1  0.27127400  0.68707800  0.20284300  1
  H  806  1  0.26162300  0.66197600  0.21421400  1
  H  817  1  0.16070800  0.44896900  0.69415900  1
  H  826  1  0.09188100  0.43056300  0.67424900  1
  H  829  1  0.12632700  0.39626300  0.65411600  1
  H  830  1  0.13207200  0.36256500  0.65831800  1
  H  831  1  0.19334200  0.47697700  0.65794900  1
  H  832  1  0.19137000  0.44831000  0.66805000  1
  H  833  1  0.10346500  0.51826100  0.63719700  1
  H  834  1  0.07168400  0.50583100  0.64236400  1
  H  835  1  0.18371500  0.33745700  0.70284500  1
  H  836  1  0.19335200  0.36257600  0.71421000  1
  H  847  1  0.16482000  0.44004400  0.04546900  1
  H  856  1  0.14657700  0.37062800  0.06302200  1
  H  859  1  0.10537100  0.40371000  0.08268100  1
  H  860  1  0.07182600  0.40986400  0.07739800  1
  H  861  1  0.17790500  0.47141100  0.08622600  1
  H  862  1  0.15373400  0.46864000  0.07327200  1
  H  863  1  0.21832900  0.38416900  0.10816100  1
  H  864  1  0.21016000  0.35260400  0.10149900  1
  H  865  1  0.05302300  0.45623000  0.03063900  1
  H  866  1  0.08050600  0.46568100  0.02038100  1
  H  877  1  0.29011600  0.58453500  0.54548500  1
  H  886  1  0.30834400  0.65395100  0.56303900  1
  H  889  1  0.34961900  0.62089300  0.58267000  1
  H  890  1  0.38315700  0.61471100  0.57738100  1
  H  891  1  0.27710200  0.55312300  0.58622600  1
  H  892  1  0.30129100  0.55592700  0.57328300  1
  H  893  1  0.23645600  0.64033900  0.60812600  1
  H  894  1  0.24460500  0.67190300  0.60145700  1
  H  895  1  0.40189600  0.56820600  0.53065600  1
  H  896  1  0.37440600  0.55873800  0.52040500  1
  H  907  1  0.16076700  0.57408400  0.29627600  1
  H  916  1  0.09210000  0.58993000  0.31454900  1
  H  919  1  0.12700100  0.62861400  0.33576000  1
  H  920  1  0.13271800  0.66213800  0.33119100  1
  H  921  1  0.19429500  0.55760900  0.33742500  1
  H  922  1  0.19154100  0.58198200  0.32473100  1
  H  923  1  0.10518000  0.51698600  0.35876300  1
  H  924  1  0.07321900  0.52539100  0.35206900  1
  H  925  1  0.17674600  0.68559800  0.28431000  1
  H  926  1  0.18509700  0.65983100  0.27305100  1
  H  937  1  0.29413500  0.45044800  0.79629200  1
  H  946  1  0.36277800  0.43453600  0.81454400  1
  H  949  1  0.32785600  0.39586300  0.83576600  1
  H  950  1  0.32211300  0.36234700  0.83119000  1
  H  951  1  0.26064700  0.46691400  0.83746700  1
  H  952  1  0.26335500  0.44258400  0.82474900  1
  H  953  1  0.34980600  0.50721000  0.85886600  1
  H  954  1  0.38176100  0.49881800  0.85215800  1
  H  955  1  0.27815800  0.33895400  0.78428500  1
  H  956  1  0.26981300  0.36473800  0.77303500  1
  H  967  1  0.19802400  0.24748500  0.10244700  1
  H  972  1  0.16510700  0.31382400  0.02850800  1
  H  973  1  0.14434300  0.32560100  0.04337700  1
  H  974  1  0.12959300  0.30031000  0.03097100  1
  H  976  1  0.14426100  0.32386200  0.07109600  1
  H  978  1  0.18138500  0.19630400  0.09727200  1
  H  985  1  0.25764900  0.77712000  0.60265900  1
  H  990  1  0.29079400  0.70732000  0.52922400  1
  H  991  1  0.31351600  0.69833900  0.54388600  1
  H  992  1  0.32516500  0.72386900  0.53082300  1
  H  994  1  0.31077700  0.70071700  0.57127100  1
  H  996  1  0.27390400  0.82828000  0.59728600  1
  H  1003  1  0.99321800  0.97998400  0.35318500  1
  H  1008  1  0.92348600  0.94991000  0.27923900  1
  H  1009  1  0.91428000  0.92707000  0.29369600  1
  H  1010  1  0.94032100  0.91606300  0.28057600  1
  H  1012  1  0.91636900  0.92848400  0.32115900  1
  H  1014  1  0.04540800  0.96486000  0.34787200  1
  H  1021  1  0.46177100  0.04456100  0.85319300  1
  H  1026  1  0.53190100  0.07548400  0.77916900  1
  H  1027  1  0.54059600  0.09853100  0.79362100  1
  H  1028  1  0.51428300  0.10894200  0.78050800  1
  H  1030  1  0.53862000  0.09595900  0.82108900  1
  H  1032  1  0.40956100  0.05950800  0.84785300  1
  H  1039  1  0.26110300  0.24962500  0.38692200  1
  H  1044  1  0.28863100  0.31445600  0.46193500  1
  H  1045  1  0.31158300  0.32529300  0.44768800  1
  H  1046  1  0.32362600  0.29921100  0.46039100  1
  H  1048  1  0.31204000  0.32440500  0.42023600  1
  H  1050  1  0.27986500  0.19834700  0.39181500  1
  H  1057  1  0.19327100  0.77501000  0.88673700  1
  H  1062  1  0.16524400  0.70693100  0.96125400  1
  H  1063  1  0.14088300  0.69870700  0.94713700  1
  H  1064  1  0.13141700  0.72472400  0.96038900  1
  H  1066  1  0.14274600  0.70020000  0.91993500  1
  H  1068  1  0.17490300  0.82626600  0.89182500  1
  H  1075  1  0.46305400  0.97645300  0.13553600  1
  H  1080  1  0.53481800  0.95192900  0.20975700  1
  H  1081  1  0.54182000  0.92696300  0.19590200  1
  H  1082  1  0.51589000  0.91906500  0.20963000  1
  H  1084  1  0.53946400  0.92811800  0.16850800  1
  H  1086  1  0.41114800  0.95841600  0.14099800  1
  H  1093  1  0.99189900  0.04826600  0.63548100  1
  H  1098  1  0.91972300  0.07331100  0.70981200  1
  H  1099  1  0.91333400  0.09855400  0.69601100  1
  H  1100  1  0.93948400  0.10569800  0.70974400  1
  H  1102  1  0.91550600  0.09629100  0.66862400  1
  H  1104  1  0.04383500  0.06618200  0.64097900  1
  H  1111  1  0.74973300  0.77789600  0.88743400  1
  H  1116  1  0.77734500  0.70830500  0.96109200  1
  H  1117  1  0.79922400  0.69777700  0.94637800  1
  H  1118  1  0.81289600  0.72222700  0.95949400  1
  H  1120  1  0.80175200  0.70105900  0.91826500  1
  H  1122  1  0.76650700  0.82866100  0.89290100  1
  H  1129  1  0.70446300  0.24655000  0.38721600  1
  H  1134  1  0.67668100  0.31918200  0.46042800  1
  H  1135  1  0.65314200  0.32717900  0.44593900  1
  H  1136  1  0.64222600  0.30258100  0.45960000  1
  H  1138  1  0.65318100  0.32338100  0.41811600  1
  H  1140  1  0.68811000  0.19579400  0.39287100  1
  H  1147  1  0.70617200  0.77614700  0.60176700  1
  H  1152  1  0.67451400  0.71040700  0.52757200  1
  H  1153  1  0.65330700  0.69937600  0.54243200  1
  H  1154  1  0.63919300  0.72455800  0.52979200  1
  H  1156  1  0.65184900  0.70129600  0.57001600  1
  H  1158  1  0.69268200  0.82771200  0.59658800  1
  H  1165  1  0.74904600  0.24835500  0.10184900  1
  H  1170  1  0.78108800  0.31463200  0.02752800  1
  H  1171  1  0.80276200  0.32507500  0.04233000  1
  H  1172  1  0.81601600  0.29950900  0.02965500  1
  H  1174  1  0.80301000  0.32321000  0.06992400  1
  H  1176  1  0.76244900  0.19678100  0.09662800  1
  H  1183  1  0.48932900  0.48284000  0.85322900  1
  H  1188  1  0.41588400  0.45702100  0.78001900  1
  H  1189  1  0.40620000  0.43423000  0.79441600  1
  H  1190  1  0.43120700  0.42243400  0.78097200  1
  H  1192  1  0.41016100  0.43262000  0.82223300  1
  H  1194  1  0.54086400  0.46761200  0.84703000  1
  H  1201  1  0.96555600  0.54225900  0.35340000  1
  H  1206  1  0.04222400  0.56879800  0.28074400  1
  H  1207  1  0.04907000  0.59324000  0.29485500  1
  H  1208  1  0.02402900  0.60206400  0.28087000  1
  H  1210  1  0.04472000  0.59192900  0.32238700  1
  H  1212  1  0.91403200  0.55700400  0.34703600  1
  H  1219  1  0.96553000  0.47753700  0.63561200  1
  H  1224  1  0.04199100  0.45855900  0.70913900  1
  H  1225  1  0.04740700  0.43204300  0.69585100  1
  H  1226  1  0.02223400  0.42623400  0.71017700  1
  H  1228  1  0.04363700  0.43218800  0.66859900  1
  H  1230  1  0.91408200  0.46009400  0.64197000  1
  H  1237  1  0.48938200  0.54709600  0.13559100  1
  H  1242  1  0.41255000  0.56677800  0.20922700  1
  H  1243  1  0.40775200  0.59350900  0.19599100  1
  H  1244  1  0.43311500  0.59860400  0.21030300  1
  H  1246  1  0.41129300  0.59218600  0.16873100  1
  H  1248  1  0.54085900  0.56444500  0.14196500  1
  H  1255  1  0.98653000  0.06426700  0.07676200  1
  H  1260  1  0.94068800  0.20108800  0.03672400  1
  H  1261  1  0.91659500  0.17170800  0.03709000  1
  H  1262  1  0.93823400  0.17855600  0.02149100  1
  H  1264  1  0.90728500  0.12175700  0.04672600  1
  H  1266  1  0.03787300  0.06647400  0.06653500  1
  H  1273  1  0.46849000  0.96075100  0.57653600  1
  H  1278  1  0.51803100  0.82389300  0.53693100  1
  H  1279  1  0.54041400  0.85449200  0.53588300  1
  H  1280  1  0.51664600  0.84558000  0.52135800  1
  H  1282  1  0.54768000  0.90287000  0.54665500  1
  H  1284  1  0.41712500  0.95820600  0.56642700  1
  H  1291  1  0.18054500  0.77175800  0.32755200  1
  H  1296  1  0.03932800  0.72219700  0.28989700  1
  H  1297  1  0.07067500  0.70087700  0.28763200  1
  H  1298  1  0.05991600  0.72542800  0.27390900  1
  H  1300  1  0.11971200  0.69416100  0.29844900  1
  H  1302  1  0.17763800  0.82231100  0.31751100  1
  H  1309  1  0.27442800  0.25273000  0.82764800  1
  H  1314  1  0.41580600  0.30109900  0.78941400  1
  H  1315  1  0.38475000  0.32309000  0.78793700  1
  H  1316  1  0.39430600  0.29928800  0.77366600  1
  H  1318  1  0.33519600  0.33037300  0.79853500  1
  H  1320  1  0.27732400  0.20216300  0.81759400  1
  H  1327  1  0.46741000  0.06183300  0.41442100  1
  H  1332  1  0.52175500  0.20021900  0.45052600  1
  H  1333  1  0.54221600  0.16879300  0.45341500  1
  H  1334  1  0.51743100  0.18119300  0.46683400  1
  H  1336  1  0.54722800  0.11806700  0.44467700  1
  H  1338  1  0.41602800  0.06616600  0.42419900  1
  H  1345  1  0.98754500  0.96350900  0.91483000  1
  H  1350  1  0.92890000  0.82530200  0.95019100  1
  H  1351  1  0.91115200  0.85754500  0.95473600  1
  H  1352  1  0.93751700  0.84245000  0.96660900  1
  H  1354  1  0.90786500  0.90683700  0.94488800  1
  H  1356  1  0.03896500  0.95864200  0.92439800  1
  H  1363  1  0.27200200  0.77335900  0.16390700  1
  H  1368  1  0.41413000  0.71515400  0.19752900  1
  H  1369  1  0.38151600  0.69827700  0.20285800  1
  H  1370  1  0.39796200  0.72461500  0.21412700  1
  H  1372  1  0.33118800  0.69521100  0.19334900  1
  H  1374  1  0.27720200  0.82393600  0.17347800  1
  H  1381  1  0.18289800  0.25114700  0.66378000  1
  H  1386  1  0.04071400  0.30884800  0.69804900  1
  H  1387  1  0.07338000  0.32599000  0.70307700  1
  H  1388  1  0.05753000  0.29958300  0.71451600  1
  H  1390  1  0.12368600  0.32930200  0.69324800  1
  H  1392  1  0.17776700  0.20054300  0.67336000  1
  H  1399  1  0.77956500  0.25243000  0.66286900  1
  H  1404  1  0.91943400  0.29774500  0.70215200  1
  H  1405  1  0.88943700  0.32129700  0.70207500  1
  H  1406  1  0.89692300  0.29980600  0.71754200  1
  H  1408  1  0.83829800  0.33032000  0.69284900  1
  H  1410  1  0.78201900  0.20193900  0.67300000  1
  H  1417  1  0.67595900  0.77202100  0.16310800  1
  H  1422  1  0.53604900  0.72302700  0.20191300  1
  H  1423  1  0.56725700  0.70121500  0.20327300  1
  H  1424  1  0.55763400  0.72477100  0.21763500  1
  H  1426  1  0.61687800  0.69419600  0.19296400  1
  H  1428  1  0.67311600  0.82257800  0.17309100  1
  H  1435  1  0.67808300  0.25034600  0.82447200  1
  H  1440  1  0.53740500  0.30940200  0.78994000  1
  H  1441  1  0.57029100  0.32651600  0.78525700  1
  H  1442  1  0.55439500  0.30083800  0.77342000  1
  H  1444  1  0.62085200  0.32915000  0.79457800  1
  H  1446  1  0.67292500  0.19992000  0.81479300  1
  H  1453  1  0.77695800  0.77415000  0.32457700  1
  H  1458  1  0.91765800  0.71548800  0.28941400  1
  H  1459  1  0.88473100  0.69816800  0.28500000  1
  H  1460  1  0.90007900  0.72393800  0.27303300  1
  H  1462  1  0.83420500  0.69532000  0.29466200  1
  H  1464  1  0.78207500  0.82460100  0.31489600  1
  H  1471  1  0.49216800  0.56600800  0.57373100  1
  H  1476  1  0.44686400  0.70615700  0.53704200  1
  H  1477  1  0.42273600  0.67679500  0.53706500  1
  H  1478  1  0.44355300  0.68500100  0.52135400  1
  H  1480  1  0.41299500  0.62525000  0.54450800  1
  H  1482  1  0.54366300  0.56970700  0.56404300  1
  H  1489  1  0.96281500  0.45899300  0.07350900  1
  H  1494  1  0.01154700  0.31877300  0.03723700  1
  H  1495  1  0.03419900  0.34914600  0.03598300  1
  H  1496  1  0.01141500  0.33923800  0.02123300  1
  H  1498  1  0.04194800  0.39941900  0.04442600  1
  H  1500  1  0.91130600  0.45495100  0.06395700  1
  H  1507  1  0.95784300  0.56299100  0.91689700  1
  H  1512  1  0.01479200  0.70287900  0.95062800  1
  H  1513  1  0.03389400  0.67100900  0.95441800  1
  H  1514  1  0.00899600  0.68539900  0.96726000  1
  H  1516  1  0.03758400  0.62014200  0.94659200  1
  H  1518  1  0.90635700  0.56860400  0.92578300  1
  H  1525  1  0.49716800  0.46140200  0.41680800  1
  H  1530  1  0.44072300  0.32144400  0.45114900  1
  H  1531  1  0.42129900  0.35329600  0.45455800  1
  H  1532  1  0.44611200  0.33958900  0.46763300  1
  H  1534  1  0.41734900  0.40426000  0.44649500  1
  H  1536  1  0.54865800  0.45578100  0.42569700  1
  H  1543  1  0.17581800  0.99915400  0.00695300  1
  H  1548  1  0.02949200  0.00976300  0.96829900  1
  H  1549  1  0.05971900  0.01501600  0.95684600  1
  H  1550  1  0.03957400  0.04490000  0.96340900  1
  H  1552  1  0.11573700  0.00442700  0.95831500  1
  H  1554  1  0.16398300  0.03844500  0.02571700  1
  H  1561  1  0.27903000  0.02523300  0.50688400  1
  H  1566  1  0.42509600  0.01526000  0.46753800  1
  H  1567  1  0.39446900  0.00941200  0.45642600  1
  H  1568  1  0.41515600  0.97990200  0.46299600  1
  H  1570  1  0.33923100  0.02010100  0.45830300  1
  H  1572  1  0.29093100  0.98601100  0.52567300  1
  H  1579  1  0.24223600  0.95816100  0.25687600  1
  H  1584  1  0.22762400  0.81560300  0.21677700  1
  H  1585  1  0.22097500  0.84616400  0.20607200  1
  H  1586  1  0.19140200  0.82579100  0.21308700  1
  H  1588  1  0.23240600  0.90023800  0.20812200  1
  H  1590  1  0.20360800  0.94654500  0.27631800  1
  H  1597  1  0.21293300  0.06624700  0.75681800  1
  H  1602  1  0.22760200  0.20923900  0.71668700  1
  H  1603  1  0.23411000  0.17859800  0.70602100  1
  H  1604  1  0.26377900  0.19880300  0.71306400  1
  H  1606  1  0.22259200  0.12429800  0.70810200  1
  H  1608  1  0.25135000  0.07804300  0.77630900  1
  H  1615  1  0.77521500  0.02992500  0.98101900  1
  H  1620  1  0.91125000  0.00050600  0.02599000  1
  H  1621  1  0.87863300  0.99935300  0.03604100  1
  H  1622  1  0.89563600  0.96704800  0.03025200  1
  H  1624  1  0.82473000  0.01756700  0.03211600  1
  H  1626  1  0.78436600  0.98851500  0.96295600  1
  H  1633  1  0.67992600  0.99470700  0.48106800  1
  H  1638  1  0.54428500  0.02358100  0.52677200  1
  H  1639  1  0.57734700  0.02518600  0.53644100  1
  H  1640  1  0.55979700  0.05724100  0.53070900  1
  H  1642  1  0.63032900  0.00696700  0.53212700  1
  H  1644  1  0.67072500  0.03608300  0.46299500  1
  H  1651  1  0.71350400  0.06555700  0.73205800  1
  H  1656  1  0.72346400  0.20886000  0.77186100  1
  H  1657  1  0.72968700  0.17856200  0.78281600  1
  H  1658  1  0.75951000  0.19914000  0.77623100  1
  H  1660  1  0.71893600  0.12442800  0.78071600  1
  H  1662  1  0.75339800  0.07731000  0.71328600  1
  H  1669  1  0.74127900  0.95907400  0.23213100  1
  H  1674  1  0.73129100  0.81529700  0.27192800  1
  H  1675  1  0.72521100  0.84566800  0.28284900  1
  H  1676  1  0.69528400  0.82526100  0.27623800  1
  H  1678  1  0.73603800  0.90003100  0.28073300  1
  H  1680  1  0.70158300  0.94716300  0.21330700  1
  H  1687  1  0.68282000  0.49922200  0.50852400  1
  H  1692  1  0.54338700  0.50823000  0.46303600  1
  H  1693  1  0.57596900  0.51423600  0.45341200  1
  H  1694  1  0.55413200  0.54365300  0.45913500  1
  H  1696  1  0.63128500  0.50392400  0.45783300  1
  H  1698  1  0.66886900  0.53851500  0.52651800  1
  H  1705  1  0.77195000  0.52509800  0.00847300  1
  H  1710  1  0.91096100  0.51663800  0.96229100  1
  H  1711  1  0.87802000  0.51013500  0.95305500  1
  H  1712  1  0.90035100  0.48104100  0.95871900  1
  H  1714  1  0.82358400  0.52053800  0.95784400  1
  H  1716  1  0.78597900  0.48587600  0.02648600  1
  H  1723  1  0.74480700  0.46079300  0.75855600  1
  H  1728  1  0.71749700  0.32549600  0.71382000  1
  H  1729  1  0.71489700  0.35766700  0.70390500  1
  H  1730  1  0.68285400  0.33993500  0.71001200  1
  H  1732  1  0.73258400  0.41040000  0.70785300  1
  H  1734  1  0.70277900  0.45155000  0.77673700  1
  H  1741  1  0.71033000  0.56354100  0.25849200  1
  H  1746  1  0.73781400  0.69931400  0.21377300  1
  H  1747  1  0.74021400  0.66710900  0.20387400  1
  H  1748  1  0.77236500  0.68461400  0.21001200  1
  H  1750  1  0.72240500  0.61407600  0.20782500  1
  H  1752  1  0.75212800  0.57299600  0.27672700  1
  H  1759  1  0.28181200  0.52839100  0.48029400  1
  H  1764  1  0.41707100  0.50788400  0.52798100  1
  H  1765  1  0.38377000  0.50471700  0.53735600  1
  H  1766  1  0.40301800  0.47353400  0.53172700  1
  H  1768  1  0.32838800  0.52006700  0.53206500  1
  H  1770  1  0.29426500  0.48796700  0.46263800  1
  H  1777  1  0.17322700  0.49626700  0.98031400  1
  H  1782  1  0.03858300  0.51635500  0.02879500  1
  H  1783  1  0.07234900  0.51983200  0.03772200  1
  H  1784  1  0.05261500  0.55082900  0.03225800  1
  H  1786  1  0.12658000  0.50449900  0.03204400  1
  H  1788  1  0.16080800  0.53673200  0.96267200  1
  H  1795  1  0.20974900  0.56356600  0.23161600  1
  H  1800  1  0.23951800  0.69857000  0.27610800  1
  H  1801  1  0.24241800  0.66635900  0.28596900  1
  H  1802  1  0.27426500  0.68402600  0.27956800  1
  H  1804  1  0.22456800  0.61344800  0.28223000  1
  H  1806  1  0.25060000  0.57305500  0.21288600  1
  H  1813  1  0.24494000  0.46117600  0.73166900  1
  H  1818  1  0.21517200  0.32559000  0.77608900  1
  H  1819  1  0.21243200  0.35781400  0.78595000  1
  H  1820  1  0.18050100  0.34034300  0.77950900  1
  H  1822  1  0.23031500  0.41105700  0.78223100  1
  H  1824  1  0.20434600  0.45143800  0.71288200  1
  H  1831  1  0.21166500  0.01702500  0.11595000  1
  H  1836  1  0.37274900  0.06266100  0.12404400  1
  H  1837  1  0.35299200  0.06332200  0.14039300  1
  H  1838  1  0.35851600  0.09541400  0.13037300  1
  H  1840  1  0.30519900  0.03080500  0.14701200  1
  H  1842  1  0.19038200  0.06587000  0.10771600  1
  H  1849  1  0.24334000  0.00745900  0.61598800  1
  H  1854  1  0.08201700  0.96216800  0.62513900  1
  H  1855  1  0.10285800  0.96130700  0.64115300  1
  H  1856  1  0.09654300  0.92932000  0.63116600  1
  H  1858  1  0.14984700  0.99374500  0.64700900  1
  H  1860  1  0.26459000  0.95863600  0.60772100  1
  H  1867  1  0.22678500  0.99949400  0.36694700  1
  H  1872  1  0.17579100  0.15702300  0.37432200  1
  H  1873  1  0.17454400  0.13660300  0.39035500  1
  H  1874  1  0.14243900  0.14197500  0.37992400  1
  H  1876  1  0.20824000  0.09164600  0.39697100  1
  H  1878  1  0.17835300  0.97655800  0.35837000  1
  H  1885  1  0.22837200  0.02521300  0.86711300  1
  H  1890  1  0.27916900  0.86720100  0.87418900  1
  H  1891  1  0.28068600  0.88763600  0.89021000  1
  H  1892  1  0.31258500  0.88237600  0.87960700  1
  H  1894  1  0.24682200  0.93270400  0.89688700  1
  H  1896  1  0.27673000  0.04799800  0.85838500  1
  H  1903  1  0.73898400  0.00581300  0.87192200  1
  H  1908  1  0.57539300  0.96890600  0.86797600  1
  H  1909  1  0.59396300  0.96650700  0.85133400  1
  H  1910  1  0.58698100  0.93512000  0.86169500  1
  H  1912  1  0.64222300  0.99429600  0.84308700  1
  H  1914  1  0.75826000  0.95774000  0.88166200  1
  H  1921  1  0.71591600  0.01881400  0.37178500  1
  H  1926  1  0.87991600  0.05507900  0.36709700  1
  H  1927  1  0.86039800  0.05794200  0.35074200  1
  H  1928  1  0.86813200  0.08905200  0.36117800  1
  H  1930  1  0.81258500  0.03019000  0.34304800  1
  H  1932  1  0.69671000  0.06680500  0.38161900  1
  H  1939  1  0.75396900  0.02888300  0.61067900  1
  H  1944  1  0.79780600  0.87137100  0.61622800  1
  H  1945  1  0.78887500  0.87328900  0.63472800  1
  H  1946  1  0.76117100  0.87653200  0.62139400  1
  H  1948  1  0.72125900  0.92189200  0.61439200  1
  H  1950  1  0.79246300  0.04643300  0.62787600  1
  H  1957  1  0.70131300  0.99553400  0.11082500  1
  H  1962  1  0.65569800  0.15295000  0.11640500  1
  H  1963  1  0.66520000  0.15096900  0.13483400  1
  H  1964  1  0.69255300  0.14827000  0.12129000  1
  H  1966  1  0.73374900  0.10260200  0.11441600  1
  H  1968  1  0.66260000  0.97804800  0.12792100  1
  H  1975  1  0.71601200  0.51965500  0.61611700  1
  H  1980  1  0.87694900  0.56544600  0.62396200  1
  H  1981  1  0.85703600  0.56662600  0.64025600  1
  H  1982  1  0.86280000  0.59842700  0.63003500  1
  H  1984  1  0.80919200  0.53462000  0.64720000  1
  H  1986  1  0.69467900  0.56776100  0.60709000  1
  H  1993  1  0.73894700  0.50481400  0.11618000  1
  H  1998  1  0.57778600  0.45934500  0.12507800  1
  H  1999  1  0.59880100  0.45795800  0.14102500  1
  H  2000  1  0.59222200  0.42626800  0.13084000  1
  H  2002  1  0.64599300  0.48992800  0.14727200  1
  H  2004  1  0.76026700  0.45673300  0.10711800  1
  H  2011  1  0.69791200  0.49895900  0.87895300  1
  H  2016  1  0.65675500  0.65713300  0.87176000  1
  H  2017  1  0.66566500  0.65415600  0.85329400  1
  H  2018  1  0.69350300  0.65259500  0.86663000  1
  H  2020  1  0.73540100  0.60405200  0.87481800  1
  H  2022  1  0.65984300  0.48235400  0.86133700  1
  H  2029  1  0.75669500  0.52570800  0.37880800  1
  H  2034  1  0.80031700  0.36782500  0.37151800  1
  H  2035  1  0.79041400  0.37076500  0.35317400  1
  H  2036  1  0.76323400  0.37162500  0.36685800  1
  H  2038  1  0.71940300  0.42058900  0.37480500  1
  H  2040  1  0.79502600  0.54220600  0.36131000  1
  H  2047  1  0.24541600  0.50483300  0.37347200  1
  H  2052  1  0.08362700  0.46148600  0.36882100  1
  H  2053  1  0.10247700  0.46077400  0.35221800  1
  H  2054  1  0.09663400  0.42855100  0.36208800  1
  H  2056  1  0.14947100  0.49016300  0.34426200  1
  H  2058  1  0.26670900  0.45738300  0.38286100  1
  H  2065  1  0.20941300  0.51984100  0.87333800  1
  H  2070  1  0.37172300  0.56230500  0.86795500  1
  H  2071  1  0.35193200  0.56360000  0.85163300  1
  H  2072  1  0.35854400  0.59549800  0.86164500  1
  H  2074  1  0.30545800  0.53427500  0.84429200  1
  H  2076  1  0.18828500  0.56725500  0.88282900  1
  H  2083  1  0.22968000  0.52323200  0.12156900  1
  H  2088  1  0.27373300  0.36360200  0.11805100  1
  H  2089  1  0.27599100  0.38270300  0.10164500  1
  H  2090  1  0.30781200  0.37651500  0.11217400  1
  H  2092  1  0.24625900  0.42804700  0.09358600  1
  H  2094  1  0.27698400  0.54477000  0.13147800  1
  H  2101  1  0.22515000  0.50115700  0.62144400  1
  H  2106  1  0.18104300  0.66116700  0.61802600  1
  H  2107  1  0.17861800  0.64198100  0.60165100  1
  H  2108  1  0.14694200  0.64802000  0.61231400  1
  H  2110  1  0.20865800  0.59656000  0.59362400  1
  H  2112  1  0.17790500  0.47970500  0.63144500  1
  H  2119  1  0.16125400  0.07831900  0.21801000  1
  H  2128  1  0.14415900  0.15074300  0.23629300  1
  H  2131  1  0.10677100  0.12097200  0.25555400  1
  H  2132  1  0.07276600  0.11910100  0.25019100  1
  H  2133  1  0.18634900  0.04969500  0.25428200  1
  H  2134  1  0.15713800  0.05241600  0.24429300  1
  H  2135  1  0.23545400  0.13713700  0.27168500  1
  H  2136  1  0.22536300  0.16830300  0.26527500  1
  H  2137  1  0.04768300  0.07313500  0.20428700  1
  H  2138  1  0.07328300  0.05919300  0.19417800  1
  H  2149  1  0.29370200  0.94620300  0.71799900  1
  H  2158  1  0.31079200  0.87377600  0.73627700  1
  H  2161  1  0.34819100  0.90356500  0.75554600  1
  H  2162  1  0.38219800  0.90546400  0.75019000  1
  H  2163  1  0.26862900  0.97482600  0.75428100  1
  H  2164  1  0.29782800  0.97210600  0.74428300  1
  H  2165  1  0.21960900  0.88735600  0.77175500  1
  H  2166  1  0.22972600  0.85619000  0.76535300  1
  H  2167  1  0.40727400  0.95139200  0.70427600  1
  H  2168  1  0.38167700  0.96533700  0.69416900  1
  H  2179  1  0.16469400  0.94396800  0.46913900  1
  H  2188  1  0.09190500  0.92731800  0.48763500  1
  H  2191  1  0.12264400  0.89116000  0.50728000  1
  H  2192  1  0.12429300  0.85758200  0.50206600  1
  H  2193  1  0.19430400  0.97035700  0.50510700  1
  H  2194  1  0.19170800  0.94101100  0.49554200  1
  H  2195  1  0.10497500  0.01936300  0.52161900  1
  H  2196  1  0.07342800  0.00878500  0.51531400  1
  H  2197  1  0.16913800  0.83206100  0.45577900  1
  H  2198  1  0.18292000  0.85708600  0.44544500  1
  H  2209  1  0.29030900  0.08057500  0.96911100  1
  H  2218  1  0.36307800  0.09719800  0.98761400  1
  H  2221  1  0.33238800  0.13333100  0.00727004  1
  H  2222  1  0.33070500  0.16691500  0.00207104  1
  H  2223  1  0.26068200  0.05420300  0.00512404  1
  H  2224  1  0.26327500  0.08352700  0.99554200  1
  H  2225  1  0.34998800  0.00506400  0.02152000  1
  H  2226  1  0.38152400  0.01562400  0.01518700  1
  H  2227  1  0.28577300  0.19251100  0.95581700  1
  H  2228  1  0.27201300  0.16749700  0.94546700  1
  H  2239  1  0.29246100  0.07935500  0.61585100  1
  H  2248  1  0.30789700  0.15164900  0.59925100  1
  H  2251  1  0.34897500  0.12240700  0.57922600  1
  H  2252  1  0.38275900  0.12003000  0.58489500  1
  H  2253  1  0.27874500  0.05140400  0.57470600  1
  H  2254  1  0.30340600  0.05415600  0.58744200  1
  H  2255  1  0.23093400  0.13850500  0.55623500  1
  H  2256  1  0.23661400  0.16936800  0.56417900  1
  H  2257  1  0.40469400  0.07729400  0.63200100  1
  H  2258  1  0.37824600  0.06460200  0.64200400  1
  H  2269  1  0.16257500  0.94517000  0.11585700  1
  H  2278  1  0.14714200  0.87288500  0.09926300  1
  H  2281  1  0.10602800  0.90213900  0.07923800  1
  H  2282  1  0.07224500  0.90455700  0.08490400  1
  H  2283  1  0.17625200  0.97314400  0.07471700  1
  H  2284  1  0.15159400  0.97037900  0.08745400  1
  H  2285  1  0.22403900  0.88602800  0.05621900  1
  H  2286  1  0.21834000  0.85515900  0.06415600  1
  H  2287  1  0.05033700  0.94734400  0.13200100  1
  H  2288  1  0.07677900  0.96004500  0.14200200  1
  H  2299  1  0.29186300  0.94568100  0.36496900  1
  H  2308  1  0.36435000  0.93077400  0.34801700  1
  H  2311  1  0.33388800  0.89092400  0.32756100  1
  H  2312  1  0.33177300  0.85754800  0.33307200  1
  H  2313  1  0.26241400  0.96119800  0.32404100  1
  H  2314  1  0.26520700  0.93613200  0.33639300  1
  H  2315  1  0.35127100  0.00827200  0.30581600  1
  H  2316  1  0.38257900  0.00226300  0.31373300  1
  H  2317  1  0.29049200  0.83496000  0.38057100  1
  H  2318  1  0.27806900  0.86078700  0.39083800  1
  H  2329  1  0.16310400  0.07882700  0.86495600  1
  H  2338  1  0.09063000  0.09372700  0.84800900  1
  H  2341  1  0.12104500  0.13355800  0.82754300  1
  H  2342  1  0.12319400  0.16693900  0.83304400  1
  H  2343  1  0.19254200  0.06328800  0.82400700  1
  H  2344  1  0.18977600  0.08832700  0.83637500  1
  H  2345  1  0.10366300  0.01633400  0.80575700  1
  H  2346  1  0.07236200  0.02231000  0.81368800  1
  H  2347  1  0.16452400  0.18956000  0.88052000  1
  H  2348  1  0.17692000  0.16373400  0.89079900  1
  H  2359  1  0.78640700  0.94384200  0.11747900  1
  H  2368  1  0.80390800  0.87462500  0.09846600  1
  H  2371  1  0.84017000  0.90710400  0.07816300  1
  H  2372  1  0.87441200  0.91310800  0.08228100  1
  H  2373  1  0.76083600  0.97517500  0.08025300  1
  H  2374  1  0.78975900  0.97280800  0.09046900  1
  H  2375  1  0.71214100  0.88750500  0.06322800  1
  H  2376  1  0.72218800  0.85645500  0.06979300  1
  H  2377  1  0.89979000  0.96653000  0.12604400  1
  H  2378  1  0.87421900  0.97678100  0.13722000  1
  H  2389  1  0.66860400  0.08065400  0.61746200  1
  H  2398  1  0.65106000  0.14987100  0.59845900  1
  H  2401  1  0.61477000  0.11733100  0.57815300  1
  H  2402  1  0.58053400  0.11131800  0.58228600  1
  H  2403  1  0.69411600  0.04933000  0.58022100  1
  H  2404  1  0.66520800  0.05169000  0.59045100  1
  H  2405  1  0.74271400  0.13704100  0.56313100  1
  H  2406  1  0.73263400  0.16808800  0.56968700  1
  H  2407  1  0.55519700  0.05820800  0.62615400  1
  H  2408  1  0.58079200  0.04793900  0.63731300  1
  H  2419  1  0.79348100  0.08016100  0.86571700  1
  H  2428  1  0.86743200  0.09730000  0.84757100  1
  H  2431  1  0.83738700  0.13393500  0.82839800  1
  H  2432  1  0.83582500  0.16731300  0.83389800  1
  H  2433  1  0.76542000  0.05621400  0.82831700  1
  H  2434  1  0.76766400  0.08411200  0.83901700  1
  H  2435  1  0.85464700  0.00982300  0.81052500  1
  H  2436  1  0.88663700  0.02160500  0.81578700  1
  H  2437  1  0.78933500  0.19170200  0.87988800  1
  H  2438  1  0.77486900  0.16650300  0.88987800  1
  H  2449  1  0.66145600  0.94434400  0.36574800  1
  H  2458  1  0.58752400  0.92723700  0.34759200  1
  H  2461  1  0.61754300  0.89059500  0.32841300  1
  H  2462  1  0.61915200  0.85721400  0.33390200  1
  H  2463  1  0.68955400  0.96831300  0.32835300  1
  H  2464  1  0.68730400  0.94041700  0.33905300  1
  H  2465  1  0.60033800  0.01472000  0.31055200  1
  H  2466  1  0.56834400  0.00294700  0.31581500  1
  H  2467  1  0.66559900  0.83279600  0.37989600  1
  H  2468  1  0.68005700  0.85798800  0.38989400  1
  H  2479  1  0.66934500  0.94296800  0.71749600  1
  H  2488  1  0.65102500  0.87381300  0.73633800  1
  H  2491  1  0.61400400  0.90783300  0.75656700  1
  H  2492  1  0.57991900  0.91397600  0.75216000  1
  H  2493  1  0.68841500  0.97439200  0.75753900  1
  H  2494  1  0.66094600  0.97162800  0.74632400  1
  H  2495  1  0.74668300  0.88837100  0.76807000  1
  H  2496  1  0.73556500  0.85693000  0.76258200  1
  H  2497  1  0.55608600  0.96050300  0.70605500  1
  H  2498  1  0.58226800  0.96938900  0.69491500  1
  H  2509  1  0.78561400  0.08156700  0.21750300  1
  H  2518  1  0.80393600  0.15071400  0.23634400  1
  H  2521  1  0.84100700  0.11668600  0.25656100  1
  H  2522  1  0.87508600  0.11052500  0.25214500  1
  H  2523  1  0.76661800  0.05010700  0.25754500  1
  H  2524  1  0.79407400  0.05289100  0.24632300  1
  H  2525  1  0.70838000  0.13617500  0.26822400  1
  H  2526  1  0.71951400  0.16757800  0.26270200  1
  H  2527  1  0.89886000  0.06399200  0.20603800  1
  H  2528  1  0.87266700  0.05509100  0.19490700  1
  H  2539  1  0.65911500  0.07831500  0.96827200  1
  H  2548  1  0.58610500  0.09373400  0.98545300  1
  H  2551  1  0.61644500  0.13378400  0.00528204  1
  H  2552  1  0.61846900  0.16700000  0.99956300  1
  H  2553  1  0.68851200  0.06246800  0.00852804  1
  H  2554  1  0.68568200  0.08690500  0.99586800  1
  H  2555  1  0.59967300  0.02279200  0.03038800  1
  H  2556  1  0.56768900  0.03080700  0.02364900  1
  H  2557  1  0.66054600  0.18877000  0.95218700  1
  H  2558  1  0.67331000  0.16281700  0.94210500  1
  H  2569  1  0.79588500  0.94617500  0.46828400  1
  H  2578  1  0.86888200  0.93077800  0.48546000  1
  H  2581  1  0.83860500  0.89071900  0.50529100  1
  H  2582  1  0.83655100  0.85750100  0.49957900  1
  H  2583  1  0.76647900  0.96202300  0.50854800  1
  H  2584  1  0.76930000  0.93760300  0.49588000  1
  H  2585  1  0.85532300  0.00144000  0.53048100  1
  H  2586  1  0.88730900  0.99348400  0.52372200  1
  H  2587  1  0.79442400  0.83571500  0.45222200  1
  H  2588  1  0.78168200  0.86167200  0.44213100  1
  H  2599  1  0.66736000  0.58103900  0.71732300  1
  H  2608  1  0.65073100  0.65409200  0.73548700  1
  H  2611  1  0.61220700  0.62495300  0.75428200  1
  H  2612  1  0.57839300  0.62351600  0.74860500  1
  H  2613  1  0.69172700  0.55267000  0.75340200  1
  H  2614  1  0.66306700  0.55558900  0.74304600  1
  H  2615  1  0.73630400  0.63980700  0.77426000  1
  H  2616  1  0.72526300  0.67143900  0.76878100  1
  H  2617  1  0.55429300  0.57795800  0.70250700  1
  H  2618  1  0.57996600  0.56326700  0.69273000  1
  H  2629  1  0.78757300  0.44346300  0.21733700  1
  H  2638  1  0.80423200  0.37042300  0.23550500  1
  H  2641  1  0.84274100  0.39959400  0.25430300  1
  H  2642  1  0.87655500  0.40105000  0.24862800  1
  H  2643  1  0.76321400  0.47183200  0.25342100  1
  H  2644  1  0.79186800  0.46892200  0.24305800  1
  H  2645  1  0.71867700  0.38469100  0.27429100  1
  H  2646  1  0.72972400  0.35306300  0.26881200  1
  H  2647  1  0.90063800  0.44654800  0.20251300  1
  H  2648  1  0.87496000  0.46123500  0.19273700  1
  H  2659  1  0.65842400  0.44882100  0.96767200  1
  H  2668  1  0.58720500  0.43081400  0.98633800  1
  H  2671  1  0.61982600  0.39564700  0.00658004  1
  H  2672  1  0.62580500  0.36198200  0.00238504  1
  H  2673  1  0.68842800  0.47285600  0.00633004  1
  H  2674  1  0.68668400  0.44481400  0.99571200  1
  H  2675  1  0.59880400  0.52307100  0.02038000  1
  H  2676  1  0.56738500  0.51240400  0.01392800  1
  H  2677  1  0.68134100  0.33732000  0.95893900  1
  H  2678  1  0.69209000  0.36255500  0.94789600  1
  H  2689  1  0.79657000  0.57567500  0.46765100  1
  H  2698  1  0.86774500  0.59369100  0.48632800  1
  H  2701  1  0.83510900  0.62886800  0.50657000  1
  H  2702  1  0.82910600  0.66252900  0.50237300  1
  H  2703  1  0.76652200  0.55162700  0.50630700  1
  H  2704  1  0.76826400  0.57966700  0.49568600  1
  H  2705  1  0.85613300  0.50139500  0.52032600  1
  H  2706  1  0.88754800  0.51207100  0.51386300  1
  H  2707  1  0.77358500  0.68715900  0.45892400  1
  H  2708  1  0.76284000  0.66191800  0.44788200  1
  H  2719  1  0.78208800  0.58170200  0.11592500  1
  H  2728  1  0.80175200  0.65442400  0.09842300  1
  H  2731  1  0.84161500  0.62481600  0.08060000  1
  H  2732  1  0.87489700  0.62239400  0.08693900  1
  H  2733  1  0.76542500  0.55350600  0.07735500  1
  H  2734  1  0.79281300  0.55654000  0.08859800  1
  H  2735  1  0.70947400  0.63999500  0.06421200  1
  H  2736  1  0.72184200  0.67173800  0.06862300  1
  H  2737  1  0.89287100  0.57731000  0.13405200  1
  H  2738  1  0.86542800  0.56432100  0.14333200  1
  H  2749  1  0.67287700  0.44274000  0.61593700  1
  H  2758  1  0.65327700  0.37001500  0.59842700  1
  H  2761  1  0.61335900  0.39956000  0.58062800  1
  H  2762  1  0.58007700  0.40200200  0.58696200  1
  H  2763  1  0.68945200  0.47099400  0.57736700  1
  H  2764  1  0.66208500  0.46791900  0.58861800  1
  H  2765  1  0.74536400  0.38452900  0.56405000  1
  H  2766  1  0.73302800  0.35279400  0.56849700  1
  H  2767  1  0.56205500  0.44735700  0.63400600  1
  H  2768  1  0.58948900  0.46034200  0.64329300  1
  H  2779  1  0.79705900  0.45038600  0.86673900  1
  H  2788  1  0.86711900  0.43432200  0.84919400  1
  H  2791  1  0.83311400  0.39574300  0.82780500  1
  H  2792  1  0.82712100  0.36223200  0.83231600  1
  H  2793  1  0.76597700  0.46611900  0.82481300  1
  H  2794  1  0.76808800  0.44159600  0.83747000  1
  H  2795  1  0.85578300  0.51128400  0.80656900  1
  H  2796  1  0.88685400  0.50501700  0.81464600  1
  H  2797  1  0.78061200  0.33890200  0.87860800  1
  H  2798  1  0.77165700  0.36467100  0.88974100  1
  H  2809  1  0.65788500  0.57411400  0.36673100  1
  H  2818  1  0.58782400  0.59016900  0.34919700  1
  H  2821  1  0.62175600  0.62874800  0.32780900  1
  H  2822  1  0.62777000  0.66226000  0.33231400  1
  H  2823  1  0.68894900  0.55838100  0.32479200  1
  H  2824  1  0.68685400  0.58288200  0.33745900  1
  H  2825  1  0.59911700  0.51330400  0.30652600  1
  H  2826  1  0.56806500  0.51952000  0.31463000  1
  H  2827  1  0.67449200  0.68559400  0.37855400  1
  H  2828  1  0.68342400  0.65982700  0.38969400  1
  H  2839  1  0.29565700  0.44170100  0.61810000  1
  H  2848  1  0.31408700  0.37208400  0.59857600  1
  H  2851  1  0.35006900  0.40452700  0.57905100  1
  H  2852  1  0.38422900  0.41002200  0.58346100  1
  H  2853  1  0.26882900  0.47251600  0.58177900  1
  H  2854  1  0.29762200  0.47029900  0.59208700  1
  H  2855  1  0.22669800  0.38467200  0.56059600  1
  H  2856  1  0.23876600  0.35324100  0.56582900  1
  H  2857  1  0.40903300  0.46364500  0.62716800  1
  H  2858  1  0.38333900  0.47425500  0.63816900  1
  H  2869  1  0.15932500  0.58288500  0.11809300  1
  H  2878  1  0.14100400  0.65253800  0.09858700  1
  H  2881  1  0.10494100  0.62017900  0.07906500  1
  H  2882  1  0.07077700  0.61467500  0.08346500  1
  H  2883  1  0.18605400  0.55202900  0.08175300  1
  H  2884  1  0.15725900  0.55428900  0.09205900  1
  H  2885  1  0.22842600  0.63981800  0.06063800  1
  H  2886  1  0.21639500  0.67126600  0.06586800  1
  H  2887  1  0.04595000  0.56086800  0.12711600  1
  H  2888  1  0.07163000  0.55025400  0.13812200  1
  H  2899  1  0.29418100  0.57553800  0.36663000  1
  H  2908  1  0.36304800  0.59393000  0.34672500  1
  H  2911  1  0.32861200  0.62819500  0.32658800  1
  H  2912  1  0.32290600  0.66190100  0.33078300  1
  H  2913  1  0.26160500  0.54745900  0.33045100  1
  H  2914  1  0.26357300  0.57613700  0.34054600  1
  H  2915  1  0.35148200  0.50624600  0.30966300  1
  H  2916  1  0.38326100  0.51868400  0.31483000  1
  H  2917  1  0.27127400  0.68707800  0.37530600  1
  H  2918  1  0.26162300  0.66197600  0.38667700  1
  H  2929  1  0.16070800  0.44896900  0.86662200  1
  H  2938  1  0.09188100  0.43056300  0.84671200  1
  H  2941  1  0.12632700  0.39626300  0.82657900  1
  H  2942  1  0.13207200  0.36256500  0.83078100  1
  H  2943  1  0.19334200  0.47697700  0.83041200  1
  H  2944  1  0.19137000  0.44831000  0.84051300  1
  H  2945  1  0.10346500  0.51826100  0.80966000  1
  H  2946  1  0.07168400  0.50583100  0.81482700  1
  H  2947  1  0.18371500  0.33745700  0.87530800  1
  H  2948  1  0.19335200  0.36257600  0.88667300  1
  H  2959  1  0.16482000  0.44004400  0.21793200  1
  H  2968  1  0.14657700  0.37062800  0.23548500  1
  H  2971  1  0.10537100  0.40371000  0.25514400  1
  H  2972  1  0.07182600  0.40986400  0.24986100  1
  H  2973  1  0.17790500  0.47141100  0.25868900  1
  H  2974  1  0.15373400  0.46864000  0.24573500  1
  H  2975  1  0.21832900  0.38416900  0.28062400  1
  H  2976  1  0.21016000  0.35260400  0.27396200  1
  H  2977  1  0.05302300  0.45623000  0.20310200  1
  H  2978  1  0.08050600  0.46568100  0.19284400  1
  H  2989  1  0.29011600  0.58453500  0.71794800  1
  H  2998  1  0.30834400  0.65395100  0.73550200  1
  H  3001  1  0.34961900  0.62089300  0.75513300  1
  H  3002  1  0.38315700  0.61471100  0.74984400  1
  H  3003  1  0.27710200  0.55312300  0.75868900  1
  H  3004  1  0.30129100  0.55592700  0.74574600  1
  H  3005  1  0.23645600  0.64033900  0.78058900  1
  H  3006  1  0.24460500  0.67190300  0.77392000  1
  H  3007  1  0.40189600  0.56820600  0.70311900  1
  H  3008  1  0.37440600  0.55873800  0.69286800  1
  H  3019  1  0.16076700  0.57408400  0.46873900  1
  H  3028  1  0.09210000  0.58993000  0.48701200  1
  H  3031  1  0.12700100  0.62861400  0.50822300  1
  H  3032  1  0.13271800  0.66213800  0.50365400  1
  H  3033  1  0.19429500  0.55760900  0.50988800  1
  H  3034  1  0.19154100  0.58198200  0.49719400  1
  H  3035  1  0.10518000  0.51698600  0.53122600  1
  H  3036  1  0.07321900  0.52539100  0.52453200  1
  H  3037  1  0.17674600  0.68559800  0.45677300  1
  H  3038  1  0.18509700  0.65983100  0.44551400  1
  H  3049  1  0.29413500  0.45044800  0.96875500  1
  H  3058  1  0.36277800  0.43453600  0.98700700  1
  H  3061  1  0.32785600  0.39586300  0.00822904  1
  H  3062  1  0.32211300  0.36234700  0.00365304  1
  H  3063  1  0.26064700  0.46691400  0.00993004  1
  H  3064  1  0.26335500  0.44258400  0.99721200  1
  H  3065  1  0.34980600  0.50721000  0.03132900  1
  H  3066  1  0.38176100  0.49881800  0.02462100  1
  H  3067  1  0.27815800  0.33895400  0.95674800  1
  H  3068  1  0.26981300  0.36473800  0.94549800  1
  H  3079  1  0.19802400  0.24748500  0.27491000  1
  H  3084  1  0.16510700  0.31382400  0.20097100  1
  H  3085  1  0.14434300  0.32560100  0.21584000  1
  H  3086  1  0.12959300  0.30031000  0.20343400  1
  H  3088  1  0.14426100  0.32386200  0.24355900  1
  H  3090  1  0.18138500  0.19630400  0.26973500  1
  H  3097  1  0.25764900  0.77712000  0.77512200  1
  H  3102  1  0.29079400  0.70732000  0.70168700  1
  H  3103  1  0.31351600  0.69833900  0.71634900  1
  H  3104  1  0.32516500  0.72386900  0.70328600  1
  H  3106  1  0.31077700  0.70071700  0.74373400  1
  H  3108  1  0.27390400  0.82828000  0.76974900  1
  H  3115  1  0.99321800  0.97998400  0.52564800  1
  H  3120  1  0.92348600  0.94991000  0.45170200  1
  H  3121  1  0.91428000  0.92707000  0.46615900  1
  H  3122  1  0.94032100  0.91606300  0.45303900  1
  H  3124  1  0.91636900  0.92848400  0.49362200  1
  H  3126  1  0.04540800  0.96486000  0.52033500  1
  H  3133  1  0.46177100  0.04456100  0.02565600  1
  H  3138  1  0.53190100  0.07548400  0.95163200  1
  H  3139  1  0.54059600  0.09853100  0.96608400  1
  H  3140  1  0.51428300  0.10894200  0.95297100  1
  H  3142  1  0.53862000  0.09595900  0.99355200  1
  H  3144  1  0.40956100  0.05950800  0.02031600  1
  H  3151  1  0.26110300  0.24962500  0.55938500  1
  H  3156  1  0.28863100  0.31445600  0.63439800  1
  H  3157  1  0.31158300  0.32529300  0.62015100  1
  H  3158  1  0.32362600  0.29921100  0.63285400  1
  H  3160  1  0.31204000  0.32440500  0.59269900  1
  H  3162  1  0.27986500  0.19834700  0.56427800  1
  H  3169  1  0.19327100  0.77501000  0.05920000  1
  H  3174  1  0.16524400  0.70693100  0.13371700  1
  H  3175  1  0.14088300  0.69870700  0.11960000  1
  H  3176  1  0.13141700  0.72472400  0.13285200  1
  H  3178  1  0.14274600  0.70020000  0.09239800  1
  H  3180  1  0.17490300  0.82626600  0.06428800  1
  H  3187  1  0.46305400  0.97645300  0.30799900  1
  H  3192  1  0.53481800  0.95192900  0.38222000  1
  H  3193  1  0.54182000  0.92696300  0.36836500  1
  H  3194  1  0.51589000  0.91906500  0.38209300  1
  H  3196  1  0.53946400  0.92811800  0.34097100  1
  H  3198  1  0.41114800  0.95841600  0.31346100  1
  H  3205  1  0.99189900  0.04826600  0.80794400  1
  H  3210  1  0.91972300  0.07331100  0.88227500  1
  H  3211  1  0.91333400  0.09855400  0.86847400  1
  H  3212  1  0.93948400  0.10569800  0.88220700  1
  H  3214  1  0.91550600  0.09629100  0.84108700  1
  H  3216  1  0.04383500  0.06618200  0.81344200  1
  H  3223  1  0.74973300  0.77789600  0.05989700  1
  H  3228  1  0.77734500  0.70830500  0.13355500  1
  H  3229  1  0.79922400  0.69777700  0.11884100  1
  H  3230  1  0.81289600  0.72222700  0.13195700  1
  H  3232  1  0.80175200  0.70105900  0.09072800  1
  H  3234  1  0.76650700  0.82866100  0.06536400  1
  H  3241  1  0.70446300  0.24655000  0.55967900  1
  H  3246  1  0.67668100  0.31918200  0.63289100  1
  H  3247  1  0.65314200  0.32717900  0.61840200  1
  H  3248  1  0.64222600  0.30258100  0.63206300  1
  H  3250  1  0.65318100  0.32338100  0.59057900  1
  H  3252  1  0.68811000  0.19579400  0.56533400  1
  H  3259  1  0.70617200  0.77614700  0.77423000  1
  H  3264  1  0.67451400  0.71040700  0.70003500  1
  H  3265  1  0.65330700  0.69937600  0.71489500  1
  H  3266  1  0.63919300  0.72455800  0.70225500  1
  H  3268  1  0.65184900  0.70129600  0.74247900  1
  H  3270  1  0.69268200  0.82771200  0.76905100  1
  H  3277  1  0.74904600  0.24835500  0.27431200  1
  H  3282  1  0.78108800  0.31463200  0.19999100  1
  H  3283  1  0.80276200  0.32507500  0.21479300  1
  H  3284  1  0.81601600  0.29950900  0.20211800  1
  H  3286  1  0.80301000  0.32321000  0.24238700  1
  H  3288  1  0.76244900  0.19678100  0.26909100  1
  H  3295  1  0.48932900  0.48284000  0.02569200  1
  H  3300  1  0.41588400  0.45702100  0.95248200  1
  H  3301  1  0.40620000  0.43423000  0.96687900  1
  H  3302  1  0.43120700  0.42243400  0.95343500  1
  H  3304  1  0.41016100  0.43262000  0.99469600  1
  H  3306  1  0.54086400  0.46761200  0.01949300  1
  H  3313  1  0.96555600  0.54225900  0.52586300  1
  H  3318  1  0.04222400  0.56879800  0.45320700  1
  H  3319  1  0.04907000  0.59324000  0.46731800  1
  H  3320  1  0.02402900  0.60206400  0.45333300  1
  H  3322  1  0.04472000  0.59192900  0.49485000  1
  H  3324  1  0.91403200  0.55700400  0.51949900  1
  H  3331  1  0.96553000  0.47753700  0.80807500  1
  H  3336  1  0.04199100  0.45855900  0.88160200  1
  H  3337  1  0.04740700  0.43204300  0.86831400  1
  H  3338  1  0.02223400  0.42623400  0.88264000  1
  H  3340  1  0.04363700  0.43218800  0.84106200  1
  H  3342  1  0.91408200  0.46009400  0.81443300  1
  H  3349  1  0.48938200  0.54709600  0.30805400  1
  H  3354  1  0.41255000  0.56677800  0.38169000  1
  H  3355  1  0.40775200  0.59350900  0.36845400  1
  H  3356  1  0.43311500  0.59860400  0.38276600  1
  H  3358  1  0.41129300  0.59218600  0.34119400  1
  H  3360  1  0.54085900  0.56444500  0.31442800  1
  H  3367  1  0.98653000  0.06426700  0.24922500  1
  H  3372  1  0.94068800  0.20108800  0.20918700  1
  H  3373  1  0.91659500  0.17170800  0.20955300  1
  H  3374  1  0.93823400  0.17855600  0.19395400  1
  H  3376  1  0.90728500  0.12175700  0.21918900  1
  H  3378  1  0.03787300  0.06647400  0.23899800  1
  H  3385  1  0.46849000  0.96075100  0.74899900  1
  H  3390  1  0.51803100  0.82389300  0.70939400  1
  H  3391  1  0.54041400  0.85449200  0.70834600  1
  H  3392  1  0.51664600  0.84558000  0.69382100  1
  H  3394  1  0.54768000  0.90287000  0.71911800  1
  H  3396  1  0.41712500  0.95820600  0.73889000  1
  H  3403  1  0.18054500  0.77175800  0.50001500  1
  H  3408  1  0.03932800  0.72219700  0.46236000  1
  H  3409  1  0.07067500  0.70087700  0.46009500  1
  H  3410  1  0.05991600  0.72542800  0.44637200  1
  H  3412  1  0.11971200  0.69416100  0.47091200  1
  H  3414  1  0.17763800  0.82231100  0.48997400  1
  H  3421  1  0.27442800  0.25273000  0.00011104  1
  H  3426  1  0.41580600  0.30109900  0.96187700  1
  H  3427  1  0.38475000  0.32309000  0.96040000  1
  H  3428  1  0.39430600  0.29928800  0.94612900  1
  H  3430  1  0.33519600  0.33037300  0.97099800  1
  H  3432  1  0.27732400  0.20216300  0.99005700  1
  H  3439  1  0.46741000  0.06183300  0.58688400  1
  H  3444  1  0.52175500  0.20021900  0.62298900  1
  H  3445  1  0.54221600  0.16879300  0.62587800  1
  H  3446  1  0.51743100  0.18119300  0.63929700  1
  H  3448  1  0.54722800  0.11806700  0.61714000  1
  H  3450  1  0.41602800  0.06616600  0.59666200  1
  H  3457  1  0.98754500  0.96350900  0.08729300  1
  H  3462  1  0.92890000  0.82530200  0.12265400  1
  H  3463  1  0.91115200  0.85754500  0.12719900  1
  H  3464  1  0.93751700  0.84245000  0.13907200  1
  H  3466  1  0.90786500  0.90683700  0.11735100  1
  H  3468  1  0.03896500  0.95864200  0.09686100  1
  H  3475  1  0.27200200  0.77335900  0.33637000  1
  H  3480  1  0.41413000  0.71515400  0.36999200  1
  H  3481  1  0.38151600  0.69827700  0.37532100  1
  H  3482  1  0.39796200  0.72461500  0.38659000  1
  H  3484  1  0.33118800  0.69521100  0.36581200  1
  H  3486  1  0.27720200  0.82393600  0.34594100  1
  H  3493  1  0.18289800  0.25114700  0.83624300  1
  H  3498  1  0.04071400  0.30884800  0.87051200  1
  H  3499  1  0.07338000  0.32599000  0.87554000  1
  H  3500  1  0.05753000  0.29958300  0.88697900  1
  H  3502  1  0.12368600  0.32930200  0.86571100  1
  H  3504  1  0.17776700  0.20054300  0.84582300  1
  H  3511  1  0.77956500  0.25243000  0.83533200  1
  H  3516  1  0.91943400  0.29774500  0.87461500  1
  H  3517  1  0.88943700  0.32129700  0.87453800  1
  H  3518  1  0.89692300  0.29980600  0.89000500  1
  H  3520  1  0.83829800  0.33032000  0.86531200  1
  H  3522  1  0.78201900  0.20193900  0.84546300  1
  H  3529  1  0.67595900  0.77202100  0.33557100  1
  H  3534  1  0.53604900  0.72302700  0.37437600  1
  H  3535  1  0.56725700  0.70121500  0.37573600  1
  H  3536  1  0.55763400  0.72477100  0.39009800  1
  H  3538  1  0.61687800  0.69419600  0.36542700  1
  H  3540  1  0.67311600  0.82257800  0.34555400  1
  H  3547  1  0.67808300  0.25034600  0.99693500  1
  H  3552  1  0.53740500  0.30940200  0.96240300  1
  H  3553  1  0.57029100  0.32651600  0.95772000  1
  H  3554  1  0.55439500  0.30083800  0.94588300  1
  H  3556  1  0.62085200  0.32915000  0.96704100  1
  H  3558  1  0.67292500  0.19992000  0.98725600  1
  H  3565  1  0.77695800  0.77415000  0.49704000  1
  H  3570  1  0.91765800  0.71548800  0.46187700  1
  H  3571  1  0.88473100  0.69816800  0.45746300  1
  H  3572  1  0.90007900  0.72393800  0.44549600  1
  H  3574  1  0.83420500  0.69532000  0.46712500  1
  H  3576  1  0.78207500  0.82460100  0.48735900  1
  H  3583  1  0.49216800  0.56600800  0.74619400  1
  H  3588  1  0.44686400  0.70615700  0.70950500  1
  H  3589  1  0.42273600  0.67679500  0.70952800  1
  H  3590  1  0.44355300  0.68500100  0.69381700  1
  H  3592  1  0.41299500  0.62525000  0.71697100  1
  H  3594  1  0.54366300  0.56970700  0.73650600  1
  H  3601  1  0.96281500  0.45899300  0.24597200  1
  H  3606  1  0.01154700  0.31877300  0.20970000  1
  H  3607  1  0.03419900  0.34914600  0.20844600  1
  H  3608  1  0.01141500  0.33923800  0.19369600  1
  H  3610  1  0.04194800  0.39941900  0.21688900  1
  H  3612  1  0.91130600  0.45495100  0.23642000  1
  H  3619  1  0.95784300  0.56299100  0.08936000  1
  H  3624  1  0.01479200  0.70287900  0.12309100  1
  H  3625  1  0.03389400  0.67100900  0.12688100  1
  H  3626  1  0.00899600  0.68539900  0.13972300  1
  H  3628  1  0.03758400  0.62014200  0.11905500  1
  H  3630  1  0.90635700  0.56860400  0.09824600  1
  H  3637  1  0.49716800  0.46140200  0.58927100  1
  H  3642  1  0.44072300  0.32144400  0.62361200  1
  H  3643  1  0.42129900  0.35329600  0.62702100  1
  H  3644  1  0.44611200  0.33958900  0.64009600  1
  H  3646  1  0.41734900  0.40426000  0.61895800  1
  H  3648  1  0.54865800  0.45578100  0.59816000  1
  H  3655  1  0.17581800  0.99915400  0.17941600  1
  H  3660  1  0.02949200  0.00976300  0.14076200  1
  H  3661  1  0.05971900  0.01501600  0.12930900  1
  H  3662  1  0.03957400  0.04490000  0.13587200  1
  H  3664  1  0.11573700  0.00442700  0.13077800  1
  H  3666  1  0.16398300  0.03844500  0.19818000  1
  H  3673  1  0.27903000  0.02523300  0.67934700  1
  H  3678  1  0.42509600  0.01526000  0.64000100  1
  H  3679  1  0.39446900  0.00941200  0.62888900  1
  H  3680  1  0.41515600  0.97990200  0.63545900  1
  H  3682  1  0.33923100  0.02010100  0.63076600  1
  H  3684  1  0.29093100  0.98601100  0.69813600  1
  H  3691  1  0.24223600  0.95816100  0.42933900  1
  H  3696  1  0.22762400  0.81560300  0.38924000  1
  H  3697  1  0.22097500  0.84616400  0.37853500  1
  H  3698  1  0.19140200  0.82579100  0.38555000  1
  H  3700  1  0.23240600  0.90023800  0.38058500  1
  H  3702  1  0.20360800  0.94654500  0.44878100  1
  H  3709  1  0.21293300  0.06624700  0.92928100  1
  H  3714  1  0.22760200  0.20923900  0.88915000  1
  H  3715  1  0.23411000  0.17859800  0.87848400  1
  H  3716  1  0.26377900  0.19880300  0.88552700  1
  H  3718  1  0.22259200  0.12429800  0.88056500  1
  H  3720  1  0.25135000  0.07804300  0.94877200  1
  H  3727  1  0.77521500  0.02992500  0.15348200  1
  H  3732  1  0.91125000  0.00050600  0.19845300  1
  H  3733  1  0.87863300  0.99935300  0.20850400  1
  H  3734  1  0.89563600  0.96704800  0.20271500  1
  H  3736  1  0.82473000  0.01756700  0.20457900  1
  H  3738  1  0.78436600  0.98851500  0.13541900  1
  H  3745  1  0.67992600  0.99470700  0.65353100  1
  H  3750  1  0.54428500  0.02358100  0.69923500  1
  H  3751  1  0.57734700  0.02518600  0.70890400  1
  H  3752  1  0.55979700  0.05724100  0.70317200  1
  H  3754  1  0.63032900  0.00696700  0.70459000  1
  H  3756  1  0.67072500  0.03608300  0.63545800  1
  H  3763  1  0.71350400  0.06555700  0.90452100  1
  H  3768  1  0.72346400  0.20886000  0.94432400  1
  H  3769  1  0.72968700  0.17856200  0.95527900  1
  H  3770  1  0.75951000  0.19914000  0.94869400  1
  H  3772  1  0.71893600  0.12442800  0.95317900  1
  H  3774  1  0.75339800  0.07731000  0.88574900  1
  H  3781  1  0.74127900  0.95907400  0.40459400  1
  H  3786  1  0.73129100  0.81529700  0.44439100  1
  H  3787  1  0.72521100  0.84566800  0.45531200  1
  H  3788  1  0.69528400  0.82526100  0.44870100  1
  H  3790  1  0.73603800  0.90003100  0.45319600  1
  H  3792  1  0.70158300  0.94716300  0.38577000  1
  H  3799  1  0.68282000  0.49922200  0.68098700  1
  H  3804  1  0.54338700  0.50823000  0.63549900  1
  H  3805  1  0.57596900  0.51423600  0.62587500  1
  H  3806  1  0.55413200  0.54365300  0.63159800  1
  H  3808  1  0.63128500  0.50392400  0.63029600  1
  H  3810  1  0.66886900  0.53851500  0.69898100  1
  H  3817  1  0.77195000  0.52509800  0.18093600  1
  H  3822  1  0.91096100  0.51663800  0.13475400  1
  H  3823  1  0.87802000  0.51013500  0.12551800  1
  H  3824  1  0.90035100  0.48104100  0.13118200  1
  H  3826  1  0.82358400  0.52053800  0.13030700  1
  H  3828  1  0.78597900  0.48587600  0.19894900  1
  H  3835  1  0.74480700  0.46079300  0.93101900  1
  H  3840  1  0.71749700  0.32549600  0.88628300  1
  H  3841  1  0.71489700  0.35766700  0.87636800  1
  H  3842  1  0.68285400  0.33993500  0.88247500  1
  H  3844  1  0.73258400  0.41040000  0.88031600  1
  H  3846  1  0.70277900  0.45155000  0.94920000  1
  H  3853  1  0.71033000  0.56354100  0.43095500  1
  H  3858  1  0.73781400  0.69931400  0.38623600  1
  H  3859  1  0.74021400  0.66710900  0.37633700  1
  H  3860  1  0.77236500  0.68461400  0.38247500  1
  H  3862  1  0.72240500  0.61407600  0.38028800  1
  H  3864  1  0.75212800  0.57299600  0.44919000  1
  H  3871  1  0.28181200  0.52839100  0.65275700  1
  H  3876  1  0.41707100  0.50788400  0.70044400  1
  H  3877  1  0.38377000  0.50471700  0.70981900  1
  H  3878  1  0.40301800  0.47353400  0.70419000  1
  H  3880  1  0.32838800  0.52006700  0.70452800  1
  H  3882  1  0.29426500  0.48796700  0.63510100  1
  H  3889  1  0.17322700  0.49626700  0.15277700  1
  H  3894  1  0.03858300  0.51635500  0.20125800  1
  H  3895  1  0.07234900  0.51983200  0.21018500  1
  H  3896  1  0.05261500  0.55082900  0.20472100  1
  H  3898  1  0.12658000  0.50449900  0.20450700  1
  H  3900  1  0.16080800  0.53673200  0.13513500  1
  H  3907  1  0.20974900  0.56356600  0.40407900  1
  H  3912  1  0.23951800  0.69857000  0.44857100  1
  H  3913  1  0.24241800  0.66635900  0.45843200  1
  H  3914  1  0.27426500  0.68402600  0.45203100  1
  H  3916  1  0.22456800  0.61344800  0.45469300  1
  H  3918  1  0.25060000  0.57305500  0.38534900  1
  H  3925  1  0.24494000  0.46117600  0.90413200  1
  H  3930  1  0.21517200  0.32559000  0.94855200  1
  H  3931  1  0.21243200  0.35781400  0.95841300  1
  H  3932  1  0.18050100  0.34034300  0.95197200  1
  H  3934  1  0.23031500  0.41105700  0.95469400  1
  H  3936  1  0.20434600  0.45143800  0.88534500  1
  H  3943  1  0.21166500  0.01702500  0.28841300  1
  H  3948  1  0.37274900  0.06266100  0.29650700  1
  H  3949  1  0.35299200  0.06332200  0.31285600  1
  H  3950  1  0.35851600  0.09541400  0.30283600  1
  H  3952  1  0.30519900  0.03080500  0.31947500  1
  H  3954  1  0.19038200  0.06587000  0.28017900  1
  H  3961  1  0.24334000  0.00745900  0.78845100  1
  H  3966  1  0.08201700  0.96216800  0.79760200  1
  H  3967  1  0.10285800  0.96130700  0.81361600  1
  H  3968  1  0.09654300  0.92932000  0.80362900  1
  H  3970  1  0.14984700  0.99374500  0.81947200  1
  H  3972  1  0.26459000  0.95863600  0.78018400  1
  H  3979  1  0.22678500  0.99949400  0.53941000  1
  H  3984  1  0.17579100  0.15702300  0.54678500  1
  H  3985  1  0.17454400  0.13660300  0.56281800  1
  H  3986  1  0.14243900  0.14197500  0.55238700  1
  H  3988  1  0.20824000  0.09164600  0.56943400  1
  H  3990  1  0.17835300  0.97655800  0.53083300  1
  H  3997  1  0.22837200  0.02521300  0.03957600  1
  H  4002  1  0.27916900  0.86720100  0.04665200  1
  H  4003  1  0.28068600  0.88763600  0.06267300  1
  H  4004  1  0.31258500  0.88237600  0.05207000  1
  H  4006  1  0.24682200  0.93270400  0.06935000  1
  H  4008  1  0.27673000  0.04799800  0.03084800  1
  H  4015  1  0.73898400  0.00581300  0.04438500  1
  H  4020  1  0.57539300  0.96890600  0.04043900  1
  H  4021  1  0.59396300  0.96650700  0.02379700  1
  H  4022  1  0.58698100  0.93512000  0.03415800  1
  H  4024  1  0.64222300  0.99429600  0.01555000  1
  H  4026  1  0.75826000  0.95774000  0.05412500  1
  H  4033  1  0.71591600  0.01881400  0.54424800  1
  H  4038  1  0.87991600  0.05507900  0.53956000  1
  H  4039  1  0.86039800  0.05794200  0.52320500  1
  H  4040  1  0.86813200  0.08905200  0.53364100  1
  H  4042  1  0.81258500  0.03019000  0.51551100  1
  H  4044  1  0.69671000  0.06680500  0.55408200  1
  H  4051  1  0.75396900  0.02888300  0.78314200  1
  H  4056  1  0.79780600  0.87137100  0.78869100  1
  H  4057  1  0.78887500  0.87328900  0.80719100  1
  H  4058  1  0.76117100  0.87653200  0.79385700  1
  H  4060  1  0.72125900  0.92189200  0.78685500  1
  H  4062  1  0.79246300  0.04643300  0.80033900  1
  H  4069  1  0.70131300  0.99553400  0.28328800  1
  H  4074  1  0.65569800  0.15295000  0.28886800  1
  H  4075  1  0.66520000  0.15096900  0.30729700  1
  H  4076  1  0.69255300  0.14827000  0.29375300  1
  H  4078  1  0.73374900  0.10260200  0.28687900  1
  H  4080  1  0.66260000  0.97804800  0.30038400  1
  H  4087  1  0.71601200  0.51965500  0.78858000  1
  H  4092  1  0.87694900  0.56544600  0.79642500  1
  H  4093  1  0.85703600  0.56662600  0.81271900  1
  H  4094  1  0.86280000  0.59842700  0.80249800  1
  H  4096  1  0.80919200  0.53462000  0.81966300  1
  H  4098  1  0.69467900  0.56776100  0.77955300  1
  H  4105  1  0.73894700  0.50481400  0.28864300  1
  H  4110  1  0.57778600  0.45934500  0.29754100  1
  H  4111  1  0.59880100  0.45795800  0.31348800  1
  H  4112  1  0.59222200  0.42626800  0.30330300  1
  H  4114  1  0.64599300  0.48992800  0.31973500  1
  H  4116  1  0.76026700  0.45673300  0.27958100  1
  H  4123  1  0.69791200  0.49895900  0.05141600  1
  H  4128  1  0.65675500  0.65713300  0.04422300  1
  H  4129  1  0.66566500  0.65415600  0.02575700  1
  H  4130  1  0.69350300  0.65259500  0.03909300  1
  H  4132  1  0.73540100  0.60405200  0.04728100  1
  H  4134  1  0.65984300  0.48235400  0.03380000  1
  H  4141  1  0.75669500  0.52570800  0.55127100  1
  H  4146  1  0.80031700  0.36782500  0.54398100  1
  H  4147  1  0.79041400  0.37076500  0.52563700  1
  H  4148  1  0.76323400  0.37162500  0.53932100  1
  H  4150  1  0.71940300  0.42058900  0.54726800  1
  H  4152  1  0.79502600  0.54220600  0.53377300  1
  H  4159  1  0.24541600  0.50483300  0.54593500  1
  H  4164  1  0.08362700  0.46148600  0.54128400  1
  H  4165  1  0.10247700  0.46077400  0.52468100  1
  H  4166  1  0.09663400  0.42855100  0.53455100  1
  H  4168  1  0.14947100  0.49016300  0.51672500  1
  H  4170  1  0.26670900  0.45738300  0.55532400  1
  H  4177  1  0.20941300  0.51984100  0.04580100  1
  H  4182  1  0.37172300  0.56230500  0.04041800  1
  H  4183  1  0.35193200  0.56360000  0.02409600  1
  H  4184  1  0.35854400  0.59549800  0.03410800  1
  H  4186  1  0.30545800  0.53427500  0.01675500  1
  H  4188  1  0.18828500  0.56725500  0.05529200  1
  H  4195  1  0.22968000  0.52323200  0.29403200  1
  H  4200  1  0.27373300  0.36360200  0.29051400  1
  H  4201  1  0.27599100  0.38270300  0.27410800  1
  H  4202  1  0.30781200  0.37651500  0.28463700  1
  H  4204  1  0.24625900  0.42804700  0.26604900  1
  H  4206  1  0.27698400  0.54477000  0.30394100  1
  H  4213  1  0.22515000  0.50115700  0.79390700  1
  H  4218  1  0.18104300  0.66116700  0.79048900  1
  H  4219  1  0.17861800  0.64198100  0.77411400  1
  H  4220  1  0.14694200  0.64802000  0.78477700  1
  H  4222  1  0.20865800  0.59656000  0.76608700  1
  H  4224  1  0.17790500  0.47970500  0.80390800  1
  C  1  1  0.13194900  0.09695000  0.06044700  1
  C  2  1  0.13973500  0.08175600  0.04777400  1
  C  3  1  0.11869000  0.07165300  0.03789600  1
  C  4  1  0.08878300  0.07766900  0.04035900  1
  C  5  1  0.08048400  0.09243800  0.05316900  1
  C  6  1  0.10179300  0.10204900  0.06327700  1
  C  9  1  0.15481800  0.10835500  0.06951400  1
  C  10  1  0.17417200  0.09121000  0.07795000  1
  C  11  1  0.19578200  0.10473800  0.08681200  1
  C  12  1  0.19886000  0.13529700  0.08659900  1
  C  13  1  0.17901500  0.15243300  0.07845100  1
  C  14  1  0.15797500  0.13845100  0.06992100  1
  C  31  1  0.32301000  0.92757100  0.56043300  1
  C  32  1  0.31522200  0.94277300  0.54776400  1
  C  33  1  0.33626800  0.95288000  0.53788700  1
  C  34  1  0.36617600  0.94686800  0.54035100  1
  C  35  1  0.37447500  0.93210100  0.55316200  1
  C  36  1  0.35316600  0.92248400  0.56326800  1
  C  39  1  0.30014500  0.91616600  0.56950300  1
  C  40  1  0.28079900  0.93331200  0.57794400  1
  C  41  1  0.25919500  0.91978300  0.58680800  1
  C  42  1  0.25613200  0.88922200  0.58660600  1
  C  43  1  0.27596100  0.87208900  0.57844800  1
  C  44  1  0.29698900  0.88606900  0.56991000  1
  C  61  1  0.14653800  0.91542600  0.31193800  1
  C  62  1  0.16141200  0.92283900  0.29907100  1
  C  63  1  0.17107100  0.90196600  0.28914100  1
  C  64  1  0.16504100  0.87259200  0.29179000  1
  C  65  1  0.15060400  0.86462700  0.30479700  1
  C  66  1  0.14130700  0.88581000  0.31490700  1
  C  69  1  0.13491700  0.93820200  0.32082400  1
  C  70  1  0.15220600  0.95789600  0.32895900  1
  C  71  1  0.13831900  0.97971000  0.33742700  1
  C  72  1  0.10725400  0.98262000  0.33708100  1
  C  73  1  0.09002600  0.96253200  0.32920500  1
  C  74  1  0.10432700  0.94125700  0.32109900  1
  C  91  1  0.30844200  0.10909800  0.81192700  1
  C  92  1  0.29357200  0.10170100  0.79905500  1
  C  93  1  0.28388800  0.12258900  0.78913900  1
  C  94  1  0.28990300  0.15196200  0.79180300  1
  C  95  1  0.30432700  0.15990800  0.80481700  1
  C  96  1  0.31365300  0.13870900  0.81491100  1
  C  99  1  0.32006700  0.08631100  0.82080300  1
  C  100  1  0.30278200  0.06662300  0.82894300  1
  C  101  1  0.31667200  0.04481500  0.83741400  1
  C  102  1  0.34773400  0.04188300  0.83705400  1
  C  103  1  0.36496100  0.06196500  0.82917200  1
  C  104  1  0.35065800  0.08325100  0.82107500  1
  C  121  1  0.32269500  0.09829100  0.42905000  1
  C  122  1  0.31410300  0.08306900  0.44156600  1
  C  123  1  0.33453300  0.07295200  0.45173300  1
  C  124  1  0.36454600  0.07943500  0.44982500  1
  C  125  1  0.37369900  0.09347500  0.43695000  1
  C  126  1  0.35299500  0.10308400  0.42654200  1
  C  129  1  0.30047600  0.10952500  0.41961000  1
  C  130  1  0.28441800  0.09249600  0.40960300  1
  C  131  1  0.26370700  0.10580700  0.40020500  1
  C  132  1  0.26028200  0.13634900  0.40031500  1
  C  133  1  0.27691300  0.15342300  0.41012400  1
  C  134  1  0.29593900  0.13943700  0.41976000  1
  C  151  1  0.13232700  0.92623800  0.92906200  1
  C  152  1  0.14093200  0.94146400  0.94157400  1
  C  153  1  0.12050900  0.95159900  0.95174100  1
  C  154  1  0.09049100  0.94513100  0.94983500  1
  C  155  1  0.08132900  0.93108600  0.93696200  1
  C  156  1  0.10202700  0.92146200  0.92655400  1
  C  159  1  0.15453800  0.91500900  0.91961600  1
  C  160  1  0.17059100  0.93204600  0.90961000  1
  C  161  1  0.19130200  0.91874000  0.90020800  1
  C  162  1  0.19473600  0.88819800  0.90031800  1
  C  163  1  0.17811600  0.87112100  0.91013000  1
  C  164  1  0.15907900  0.88509800  0.91976300  1
  C  181  1  0.31017900  0.91623600  0.17772300  1
  C  182  1  0.29542400  0.92442700  0.19048500  1
  C  183  1  0.28579400  0.90411900  0.20069500  1
  C  184  1  0.29224800  0.87463400  0.19855200  1
  C  185  1  0.30584900  0.86587100  0.18545400  1
  C  186  1  0.31505700  0.88648800  0.17503700  1
  C  189  1  0.32152800  0.93838300  0.16843700  1
  C  190  1  0.30420400  0.95490900  0.15873100  1
  C  191  1  0.31774800  0.97580100  0.14962100  1
  C  192  1  0.34879900  0.97903400  0.14972800  1
  C  193  1  0.36606300  0.96217300  0.15933600  1
  C  194  1  0.35191600  0.94285400  0.16867200  1
  C  211  1  0.14480900  0.10826300  0.67770000  1
  C  212  1  0.15955800  0.10008100  0.69046400  1
  C  213  1  0.16921200  0.12039500  0.70066500  1
  C  214  1  0.16278700  0.14988400  0.69851100  1
  C  215  1  0.14919000  0.15863600  0.68540900  1
  C  216  1  0.13994900  0.13801300  0.67500400  1
  C  219  1  0.13344800  0.08611300  0.66841900  1
  C  220  1  0.15076000  0.06959700  0.65870300  1
  C  221  1  0.13720000  0.04873200  0.64958400  1
  C  222  1  0.10614900  0.04551000  0.64969600  1
  C  223  1  0.08889800  0.06235300  0.65931700  1
  C  224  1  0.10306000  0.08164200  0.66866400  1
  C  241  1  0.81562400  0.92876600  0.92909200  1
  C  242  1  0.80785800  0.94268500  0.94212000  1
  C  243  1  0.82889500  0.95518500  0.95126800  1
  C  244  1  0.85885300  0.95329700  0.94758600  1
  C  245  1  0.86713700  0.93849900  0.93476500  1
  C  246  1  0.84570400  0.92681800  0.92529300  1
  C  249  1  0.79279200  0.91684300  0.92023200  1
  C  250  1  0.77339800  0.93380300  0.91174200  1
  C  251  1  0.75196300  0.92004800  0.90288800  1
  C  252  1  0.74885000  0.88951500  0.90329800  1
  C  253  1  0.76874800  0.87257300  0.91152500  1
  C  254  1  0.78993300  0.88672900  0.91991000  1
  C  271  1  0.63935400  0.09572900  0.42908800  1
  C  272  1  0.64714700  0.08181600  0.44211300  1
  C  273  1  0.62612500  0.06934100  0.45127800  1
  C  274  1  0.59615600  0.07124700  0.44761600  1
  C  275  1  0.58785500  0.08599300  0.43478200  1
  C  276  1  0.60927000  0.09766000  0.42529600  1
  C  279  1  0.66216900  0.10765400  0.42021800  1
  C  280  1  0.68155900  0.09069800  0.41172200  1
  C  281  1  0.70298300  0.10446000  0.40286500  1
  C  282  1  0.70607800  0.13499400  0.40326600  1
  C  283  1  0.68619300  0.15193000  0.41150300  1
  C  284  1  0.66502100  0.13776900  0.41989700  1
  C  301  1  0.81277900  0.10899900  0.67847600  1
  C  302  1  0.79712400  0.10132600  0.69108500  1
  C  303  1  0.78705700  0.12198100  0.70104600  1
  C  304  1  0.79347400  0.15138300  0.69869900  1
  C  305  1  0.80857500  0.15963000  0.68592500  1
  C  306  1  0.81821300  0.13868600  0.67576800  1
  C  309  1  0.82457800  0.08647800  0.66945700  1
  C  310  1  0.80733400  0.06711500  0.66111600  1
  C  311  1  0.82127400  0.04579100  0.65242300  1
  C  312  1  0.85234900  0.04385200  0.65204000  1
  C  313  1  0.86965200  0.06338100  0.66019000  1
  C  314  1  0.85522700  0.08375200  0.66892600  1
  C  331  1  0.64218000  0.91551800  0.17849400  1
  C  332  1  0.65782600  0.92318100  0.19110800  1
  C  333  1  0.66791000  0.90251800  0.20106100  1
  C  334  1  0.66149600  0.87311800  0.19870600  1
  C  335  1  0.64641900  0.86487900  0.18592400  1
  C  336  1  0.63676500  0.88583100  0.17577600  1
  C  339  1  0.63038500  0.93804300  0.16947600  1
  C  340  1  0.64763600  0.95740200  0.16113600  1
  C  341  1  0.63370300  0.97872600  0.15244200  1
  C  342  1  0.60262900  0.98068500  0.15206500  1
  C  343  1  0.58532000  0.96115700  0.16021200  1
  C  344  1  0.59973600  0.94077800  0.16894600  1
  C  361  1  0.63932600  0.92787600  0.56059600  1
  C  362  1  0.64772700  0.94149900  0.54759600  1
  C  363  1  0.62715700  0.95364800  0.53810400  1
  C  364  1  0.59696500  0.95112500  0.54124900  1
  C  365  1  0.58816300  0.93766900  0.55435400  1
  C  366  1  0.60915100  0.92646700  0.56420700  1
  C  369  1  0.66180000  0.91607600  0.56967200  1
  C  370  1  0.68040700  0.93311500  0.57851400  1
  C  371  1  0.70279800  0.91969400  0.58685900  1
  C  372  1  0.70679100  0.88926100  0.58604900  1
  C  373  1  0.68638900  0.87205300  0.57826200  1
  C  374  1  0.66492100  0.88600900  0.56996900  1
  C  391  1  0.81565300  0.09665600  0.06059400  1
  C  392  1  0.80723600  0.08303900  0.04759500  1
  C  393  1  0.82779300  0.07087700  0.03810000  1
  C  394  1  0.85798800  0.07338900  0.04123700  1
  C  395  1  0.86680600  0.08684600  0.05433900  1
  C  396  1  0.84583400  0.09805500  0.06419800  1
  C  399  1  0.79319200  0.10844600  0.06968100  1
  C  400  1  0.77460200  0.09139300  0.07852600  1
  C  401  1  0.75221700  0.10480300  0.08688100  1
  C  402  1  0.74822400  0.13523600  0.08608400  1
  C  403  1  0.76859800  0.15245400  0.07828500  1
  C  404  1  0.79005700  0.13851000  0.06998000  1
  C  421  1  0.64024500  0.10794400  0.81032500  1
  C  422  1  0.65535700  0.09958500  0.79768200  1
  C  423  1  0.66532600  0.11974600  0.78746600  1
  C  424  1  0.65867600  0.14924400  0.78943000  1
  C  425  1  0.64470800  0.15820100  0.80239700  1
  C  426  1  0.63534100  0.13775500  0.81286300  1
  C  429  1  0.62896400  0.08604700  0.81981300  1
  C  430  1  0.64649000  0.06957200  0.82945700  1
  C  431  1  0.63299000  0.04973600  0.83915200  1
  C  432  1  0.60187500  0.04794500  0.83986200  1
  C  433  1  0.58434000  0.06400400  0.83006000  1
  C  434  1  0.59846200  0.08217400  0.82006700  1
  C  451  1  0.81474000  0.91654600  0.31034300  1
  C  452  1  0.79963200  0.92490200  0.29769900  1
  C  453  1  0.78964000  0.90473900  0.28748900  1
  C  454  1  0.79626500  0.87523700  0.28946200  1
  C  455  1  0.81023300  0.86628400  0.30243000  1
  C  456  1  0.81963000  0.88673600  0.31288800  1
  C  459  1  0.82602300  0.93844700  0.31982900  1
  C  460  1  0.80849900  0.95491300  0.32947900  1
  C  461  1  0.82200000  0.97473600  0.33917800  1
  C  462  1  0.85311600  0.97653300  0.33988400  1
  C  463  1  0.87064500  0.96049800  0.33006800  1
  C  464  1  0.85652300  0.94233500  0.32007400  1
  C  481  1  0.63793500  0.60057800  0.55940000  1
  C  482  1  0.64584000  0.58494800  0.54687300  1
  C  483  1  0.62494700  0.57486400  0.53689700  1
  C  484  1  0.59509300  0.58156700  0.53903300  1
  C  485  1  0.58660000  0.59666900  0.55171200  1
  C  486  1  0.60773500  0.60610100  0.56195900  1
  C  489  1  0.66065000  0.61168800  0.56870300  1
  C  490  1  0.67965900  0.59425300  0.57719600  1
  C  491  1  0.70061800  0.60747100  0.58653800  1
  C  492  1  0.70306300  0.63804900  0.58699500  1
  C  493  1  0.68430400  0.65555200  0.57845500  1
  C  494  1  0.66388000  0.64178700  0.56939000  1
  C  511  1  0.81700700  0.42393500  0.05941300  1
  C  512  1  0.80909400  0.43956300  0.04688600  1
  C  513  1  0.82998400  0.44964400  0.03690900  1
  C  514  1  0.85984200  0.44294800  0.03904400  1
  C  515  1  0.86833900  0.42785700  0.05172600  1
  C  516  1  0.84720600  0.41842700  0.06197400  1
  C  519  1  0.79429800  0.41282300  0.06871900  1
  C  520  1  0.77528900  0.43025300  0.07721300  1
  C  521  1  0.75434100  0.41702900  0.08655700  1
  C  522  1  0.75190600  0.38645100  0.08701900  1
  C  523  1  0.77066600  0.36895000  0.07847600  1
  C  524  1  0.79107900  0.38272400  0.06940800  1
  C  541  1  0.64255200  0.41998400  0.81096000  1
  C  542  1  0.65714800  0.42770300  0.79805800  1
  C  543  1  0.66991900  0.40706300  0.78889100  1
  C  544  1  0.66781400  0.37755800  0.79249400  1
  C  545  1  0.65239900  0.36929400  0.80519300  1
  C  546  1  0.64034100  0.39034000  0.81463900  1
  C  549  1  0.62994200  0.44242400  0.81969300  1
  C  550  1  0.64673800  0.46183600  0.82821400  1
  C  551  1  0.63235000  0.48350500  0.83649600  1
  C  552  1  0.60132700  0.48618400  0.83599100  1
  C  553  1  0.58451200  0.46581500  0.82807400  1
  C  554  1  0.59927300  0.44491900  0.81987200  1
  C  571  1  0.81239600  0.60451600  0.31094600  1
  C  572  1  0.79782600  0.59679300  0.29804000  1
  C  573  1  0.78505100  0.61742700  0.28887000  1
  C  574  1  0.78714200  0.64693100  0.29247200  1
  C  575  1  0.80252600  0.65520000  0.30518000  1
  C  576  1  0.81458300  0.63416000  0.31463000  1
  C  579  1  0.82500600  0.58208100  0.31968300  1
  C  580  1  0.80821200  0.56266800  0.32820300  1
  C  581  1  0.82260000  0.54100900  0.33649400  1
  C  582  1  0.85362100  0.53832700  0.33598700  1
  C  583  1  0.87043600  0.55868300  0.32806100  1
  C  584  1  0.85567500  0.57958500  0.31986200  1
  C  601  1  0.81347400  0.60070200  0.92979600  1
  C  602  1  0.80389300  0.58525800  0.94205600  1
  C  603  1  0.82339700  0.57452400  0.95249100  1
  C  604  1  0.85357700  0.58064600  0.95119100  1
  C  605  1  0.86381300  0.59522600  0.93866000  1
  C  606  1  0.84398500  0.60534000  0.92793300  1
  C  609  1  0.79174000  0.61217800  0.92011300  1
  C  610  1  0.77329400  0.59490300  0.91128700  1
  C  611  1  0.75128500  0.60809400  0.90260400  1
  C  612  1  0.74786100  0.63861600  0.90281200  1
  C  613  1  0.76770700  0.65609300  0.91076000  1
  C  614  1  0.78856400  0.64225100  0.91955000  1
  C  631  1  0.64149300  0.42373000  0.42981300  1
  C  632  1  0.65107000  0.43918500  0.44206900  1
  C  633  1  0.63156600  0.44994800  0.45249600  1
  C  634  1  0.60138000  0.44385400  0.45118700  1
  C  635  1  0.59115000  0.42924400  0.43866500  1
  C  636  1  0.61098100  0.41909600  0.42794600  1
  C  639  1  0.66322800  0.41228000  0.42012200  1
  C  640  1  0.68164100  0.42958400  0.41129300  1
  C  641  1  0.70365000  0.41642400  0.40260000  1
  C  642  1  0.70709600  0.38590300  0.40278800  1
  C  643  1  0.68729100  0.36840000  0.41074900  1
  C  644  1  0.66643900  0.38221100  0.41955300  1
  C  661  1  0.81244400  0.42082000  0.67875700  1
  C  662  1  0.79868200  0.42910500  0.69177600  1
  C  663  1  0.78664200  0.40885200  0.70137600  1
  C  664  1  0.78949200  0.37912800  0.69830600  1
  C  665  1  0.80298900  0.37040600  0.68516100  1
  C  666  1  0.81407700  0.39108200  0.67523200  1
  C  669  1  0.82448200  0.44275300  0.66955900  1
  C  670  1  0.80757500  0.45918900  0.65963500  1
  C  671  1  0.82160400  0.47947000  0.65037000  1
  C  672  1  0.85268400  0.48228600  0.65058900  1
  C  673  1  0.86956700  0.46538100  0.66035000  1
  C  674  1  0.85497900  0.44652700  0.66978100  1
  C  691  1  0.64250400  0.60367600  0.17874600  1
  C  692  1  0.65627200  0.59539300  0.19176400  1
  C  693  1  0.66834500  0.61564600  0.20135300  1
  C  694  1  0.66552600  0.64537000  0.19827400  1
  C  695  1  0.65199200  0.65409000  0.18513900  1
  C  696  1  0.64087100  0.63341200  0.17522000  1
  C  699  1  0.63045700  0.58174100  0.16955300  1
  C  700  1  0.64735800  0.56531300  0.15962200  1
  C  701  1  0.63332000  0.54505200  0.15035000  1
  C  702  1  0.60223800  0.54223800  0.15057400  1
  C  703  1  0.58536600  0.55912300  0.16034700  1
  C  704  1  0.59996200  0.57795800  0.16978500  1
  C  721  1  0.32502300  0.42609300  0.42990800  1
  C  722  1  0.31715400  0.44024100  0.44287200  1
  C  723  1  0.33810000  0.45280300  0.45206900  1
  C  724  1  0.36811900  0.45053200  0.44857500  1
  C  725  1  0.37655300  0.43539100  0.43588200  1
  C  726  1  0.35521000  0.42388000  0.42630000  1
  C  729  1  0.30230600  0.41423600  0.42088100  1
  C  730  1  0.28250600  0.43128000  0.41264700  1
  C  731  1  0.26182100  0.41764200  0.40332300  1
  C  732  1  0.26026400  0.38702400  0.40273300  1
  C  733  1  0.27974500  0.36990400  0.41108100  1
  C  734  1  0.30017100  0.38407300  0.42000100  1
  C  751  1  0.12996900  0.59853000  0.92990600  1
  C  752  1  0.13782700  0.58436000  0.94286600  1
  C  753  1  0.11687700  0.57177500  0.95205200  1
  C  754  1  0.08686000  0.57403900  0.94855000  1
  C  755  1  0.07843100  0.58922600  0.93586800  1
  C  756  1  0.09978500  0.60076200  0.92629900  1
  C  759  1  0.15269600  0.61036200  0.92087900  1
  C  760  1  0.17247100  0.59328900  0.91264400  1
  C  761  1  0.19320300  0.60689800  0.90333500  1
  C  762  1  0.19481900  0.63751300  0.90275300  1
  C  763  1  0.17534500  0.65465700  0.91109100  1
  C  764  1  0.15488600  0.64052300  0.92000700  1
  C  781  1  0.30825100  0.60414900  0.17791200  1
  C  782  1  0.29501300  0.59660500  0.19118200  1
  C  783  1  0.28280800  0.61734500  0.20046600  1
  C  784  1  0.28443200  0.64679700  0.19670500  1
  C  785  1  0.29868900  0.65490200  0.18365700  1
  C  786  1  0.30995700  0.63373900  0.17404300  1
  C  789  1  0.32042400  0.58169600  0.16904500  1
  C  790  1  0.30333000  0.56166100  0.16105100  1
  C  791  1  0.31746500  0.54110900  0.15194700  1
  C  792  1  0.34861000  0.53985400  0.15142800  1
  C  793  1  0.36573700  0.55952500  0.15960900  1
  C  794  1  0.35108200  0.57989100  0.16825100  1
  C  811  1  0.14668300  0.42034100  0.67790000  1
  C  812  1  0.15989900  0.42790100  0.69117300  1
  C  813  1  0.17211500  0.40717400  0.70046200  1
  C  814  1  0.17051200  0.37771900  0.69670500  1
  C  815  1  0.15628700  0.36959800  0.68365200  1
  C  816  1  0.14500800  0.39074900  0.67403400  1
  C  819  1  0.13451000  0.44278500  0.66902800  1
  C  820  1  0.15160800  0.46281600  0.66103300  1
  C  821  1  0.13747700  0.48337200  0.65193000  1
  C  822  1  0.10633300  0.48464400  0.65141700  1
  C  823  1  0.08920400  0.46496900  0.65959500  1
  C  824  1  0.10385400  0.44459400  0.66823400  1
  C  841  1  0.13320200  0.42425400  0.05998700  1
  C  842  1  0.14293500  0.43824200  0.04733400  1
  C  843  1  0.12341400  0.45057900  0.03735700  1
  C  844  1  0.09293900  0.44772000  0.03960200  1
  C  845  1  0.08273200  0.43405900  0.05240400  1
  C  846  1  0.10266500  0.42274200  0.06276400  1
  C  849  1  0.15458800  0.41276100  0.06980000  1
  C  850  1  0.17084700  0.43001200  0.07962500  1
  C  851  1  0.19050400  0.41671200  0.08954300  1
  C  852  1  0.19248300  0.38611300  0.09019900  1
  C  853  1  0.17635100  0.36880700  0.08032100  1
  C  854  1  0.15814700  0.38272400  0.07019500  1
  C  871  1  0.32175400  0.60033000  0.55999000  1
  C  872  1  0.31200300  0.58634200  0.54734100  1
  C  873  1  0.33150700  0.57398100  0.53736400  1
  C  874  1  0.36198700  0.57681400  0.53960400  1
  C  875  1  0.37221200  0.59049600  0.55239800  1
  C  876  1  0.35229500  0.60183500  0.56275900  1
  C  879  1  0.30037800  0.61180500  0.56981400  1
  C  880  1  0.28412100  0.59453300  0.57963200  1
  C  881  1  0.26443600  0.60781100  0.58954400  1
  C  882  1  0.26240500  0.63840900  0.59019300  1
  C  883  1  0.27854500  0.65573000  0.58032600  1
  C  884  1  0.29678900  0.64183800  0.57021100  1
  C  901  1  0.14633800  0.60362100  0.31203100  1
  C  902  1  0.15928600  0.59535700  0.29881700  1
  C  903  1  0.17077100  0.61565800  0.28909200  1
  C  904  1  0.16817200  0.64537000  0.29222400  1
  C  905  1  0.15542700  0.65404500  0.30555600  1
  C  906  1  0.14489400  0.63334100  0.31561200  1
  C  909  1  0.13479700  0.58169600  0.32135900  1
  C  910  1  0.15223800  0.56509900  0.33096500  1
  C  911  1  0.13861400  0.54523800  0.34059100  1
  C  912  1  0.10748800  0.54328800  0.34112900  1
  C  913  1  0.09003300  0.55965800  0.33139900  1
  C  914  1  0.10429300  0.57812700  0.32158800  1
  C  931  1  0.30853100  0.42089000  0.81204200  1
  C  932  1  0.29559800  0.42917400  0.79882900  1
  C  933  1  0.28410100  0.40888900  0.78909900  1
  C  934  1  0.28668100  0.37917300  0.79222400  1
  C  935  1  0.29941100  0.37047900  0.80555600  1
  C  936  1  0.30995100  0.39116800  0.81561800  1
  C  939  1  0.32010000  0.44280000  0.82137200  1
  C  940  1  0.30268600  0.45938800  0.83099300  1
  C  941  1  0.31634200  0.47919600  0.84063400  1
  C  942  1  0.34747100  0.48111400  0.84116500  1
  C  943  1  0.36490000  0.46476600  0.83141600  1
  C  944  1  0.35060800  0.44634100  0.82159300  1
  C  961  1  0.16907600  0.28979300  0.07766400  1
  C  963  1  0.18781100  0.25247300  0.09299100  1
  C  964  1  0.17792900  0.23080500  0.08354100  1
  C  966  1  0.15911400  0.26814400  0.06800800  1
  C  968  1  0.14461400  0.27429500  0.05529200  1
  C  971  1  0.14929600  0.30714600  0.03658500  1
  C  975  1  0.16275200  0.31899200  0.07601400  1
  C  977  1  0.17993300  0.20167100  0.08692600  1
  C  979  1  0.28572900  0.73472700  0.57766900  1
  C  981  1  0.26749400  0.77210000  0.59311100  1
  C  982  1  0.27707600  0.79373200  0.58356600  1
  C  984  1  0.29535900  0.75632700  0.56790100  1
  C  986  1  0.30945500  0.75017300  0.55508700  1
  C  989  1  0.30651600  0.71583000  0.53689600  1
  C  993  1  0.29215700  0.70554700  0.57607600  1
  C  995  1  0.27517400  0.82287900  0.58693700  1
  C  997  1  0.95077400  0.95315600  0.32772300  1
  C  999  1  0.98833400  0.97060500  0.34353200  1
  C  1000  1  0.01050800  0.96154200  0.33401100  1
  C  1002  1  0.97291100  0.94406200  0.31797300  1
  C  1004  1  0.96691600  0.93069700  0.30499400  1
  C  1007  1  0.93210200  0.93419500  0.28679200  1
  C  1011  1  0.92121000  0.94683100  0.32595400  1
  C  1013  1  0.04003300  0.96345300  0.33751100  1
  C  1015  1  0.50420400  0.07138400  0.82772500  1
  C  1017  1  0.46665300  0.05395100  0.84354200  1
  C  1018  1  0.44447700  0.06297000  0.83401300  1
  C  1020  1  0.48206900  0.08042900  0.81796200  1
  C  1022  1  0.48811600  0.09367600  0.80494200  1
  C  1025  1  0.52293500  0.09100200  0.78672300  1
  C  1029  1  0.53377300  0.07766600  0.82593300  1
  C  1031  1  0.41494700  0.06099500  0.83749700  1
  C  1033  1  0.28753300  0.29072500  0.41289900  1
  C  1035  1  0.27028900  0.25416000  0.39669000  1
  C  1036  1  0.27922600  0.23204300  0.40610100  1
  C  1038  1  0.29654100  0.26860600  0.42251900  1
  C  1040  1  0.30996200  0.27413700  0.43560300  1
  C  1043  1  0.30494700  0.30705800  0.45427500  1
  C  1047  1  0.29383900  0.31982500  0.41500400  1
  C  1049  1  0.27810800  0.20312000  0.40222000  1
  C  1051  1  0.16763500  0.73381200  0.91286700  1
  C  1053  1  0.18443700  0.77043600  0.89657900  1
  C  1054  1  0.17578300  0.79251300  0.90607700  1
  C  1056  1  0.15894400  0.75588000  0.92259100  1
  C  1058  1  0.14588300  0.75033500  0.93574800  1
  C  1061  1  0.14917200  0.71597300  0.95392200  1
  C  1065  1  0.16117500  0.70473700  0.91489600  1
  C  1067  1  0.17681100  0.82145300  0.90222100  1
  C  1069  1  0.50523000  0.95288900  0.16191100  1
  C  1071  1  0.46786000  0.96829600  0.14547800  1
  C  1072  1  0.44561600  0.96005600  0.15513900  1
  C  1074  1  0.48302100  0.94465000  0.17181100  1
  C  1076  1  0.48892100  0.93248800  0.18511200  1
  C  1079  1  0.52485000  0.93592900  0.20279100  1
  C  1083  1  0.53473200  0.94661500  0.16384300  1
  C  1085  1  0.41621900  0.96069900  0.15135600  1
  C  1087  1  0.94975100  0.07167600  0.66189900  1
  C  1089  1  0.98709900  0.05638200  0.64543000  1
  C  1090  1  0.00935000  0.06453100  0.65510600  1
  C  1092  1  0.97196200  0.07980700  0.67182200  1
  C  1094  1  0.96601900  0.09177100  0.68518000  1
  C  1097  1  0.93008500  0.08911700  0.70287300  1
  C  1101  1  0.92024300  0.07788700  0.66387000  1
  C  1103  1  0.03875100  0.06386100  0.65133200  1
  C  1105  1  0.77611900  0.73505800  0.91265700  1
  C  1107  1  0.75915800  0.77270300  0.89706200  1
  C  1108  1  0.76885000  0.79416400  0.90668200  1
  C  1110  1  0.78583100  0.75645900  0.92250700  1
  C  1112  1  0.79937100  0.74990100  0.93543400  1
  C  1115  1  0.79365200  0.71568000  0.95342200  1
  C  1119  1  0.78243800  0.70587900  0.91417900  1
  C  1121  1  0.76760700  0.82331800  0.90326400  1
  C  1123  1  0.67900000  0.28944800  0.41264700  1
  C  1125  1  0.69542900  0.25176300  0.39693300  1
  C  1126  1  0.68605200  0.23032800  0.40664300  1
  C  1128  1  0.66963000  0.26808000  0.42259700  1
  C  1130  1  0.65649200  0.27461800  0.43561700  1
  C  1133  1  0.66052600  0.31016900  0.45313100  1
  C  1137  1  0.67258400  0.31860500  0.41412200  1
  C  1139  1  0.68719500  0.20116300  0.40323500  1
  C  1141  1  0.67754200  0.73476100  0.57650500  1
  C  1143  1  0.69623800  0.77151200  0.59219400  1
  C  1144  1  0.68693900  0.79352600  0.58279500  1
  C  1146  1  0.66822100  0.75674100  0.56688600  1
  C  1148  1  0.65425300  0.75107100  0.55399400  1
  C  1151  1  0.65868300  0.71755900  0.53553500  1
  C  1155  1  0.67068400  0.70571600  0.57471100  1
  C  1157  1  0.68943800  0.82259300  0.58630900  1
  C  1159  1  0.77745200  0.28973300  0.07652100  1
  C  1161  1  0.75890800  0.25299000  0.09225700  1
  C  1162  1  0.76809400  0.23097600  0.08283300  1
  C  1164  1  0.78665300  0.26775700  0.06687100  1
  C  1166  1  0.80040400  0.27348100  0.05391000  1
  C  1169  1  0.79679300  0.30704600  0.03544900  1
  C  1173  1  0.78425100  0.31878400  0.07468900  1
  C  1175  1  0.76558100  0.20190700  0.08634100  1
  C  1177  1  0.44498400  0.45709600  0.82830200  1
  C  1179  1  0.48372300  0.47374000  0.84360600  1
  C  1180  1  0.50518900  0.46469300  0.83368100  1
  C  1182  1  0.46639000  0.44806700  0.81814100  1
  C  1184  1  0.45934700  0.43513500  0.80515800  1
  C  1187  1  0.42406400  0.44074300  0.78738400  1
  C  1191  1  0.41528200  0.45097400  0.82695100  1
  C  1193  1  0.53493600  0.46625800  0.83674000  1
  C  1195  1  0.00996500  0.56724000  0.32830400  1
  C  1197  1  0.97118500  0.55103200  0.34370300  1
  C  1198  1  0.94974800  0.55980900  0.33370400  1
  C  1200  1  0.98859700  0.57597000  0.31805400  1
  C  1202  1  0.99561600  0.58855900  0.30499500  1
  C  1205  1  0.03226500  0.58482800  0.28769800  1
  C  1209  1  0.03964200  0.57346600  0.32700400  1
  C  1211  1  0.91998800  0.55829300  0.33674800  1
  C  1213  1  0.00908800  0.45639900  0.66195000  1
  C  1215  1  0.97084400  0.47022200  0.64565500  1
  C  1216  1  0.94909000  0.46263600  0.65572600  1
  C  1218  1  0.98738800  0.44889600  0.67227600  1
  C  1220  1  0.99398800  0.43788500  0.68575700  1
  C  1223  1  0.03114900  0.44214200  0.70276400  1
  C  1227  1  0.03870600  0.45035000  0.66366700  1
  C  1229  1  0.91951200  0.46288800  0.65225200  1
  C  1231  1  0.44586200  0.56813300  0.16196300  1
  C  1233  1  0.48407800  0.55439300  0.14564000  1
  C  1234  1  0.50584300  0.56191600  0.15571500  1
  C  1236  1  0.46756600  0.57555700  0.17230200  1
  C  1238  1  0.46093000  0.58640000  0.18583000  1
  C  1241  1  0.42377700  0.58297200  0.20287000  1
  C  1245  1  0.41623400  0.57411400  0.16372000  1
  C  1247  1  0.53542300  0.56163500  0.15224500  1
  C  1249  1  0.94376900  0.10296600  0.05567800  1
  C  1251  1  0.98148000  0.07876300  0.06890600  1
  C  1252  1  0.00330900  0.09202200  0.06055200  1
  C  1254  1  0.96564900  0.11644700  0.04721900  1
  C  1256  1  0.95968900  0.13460200  0.03585800  1
  C  1259  1  0.93781500  0.17899000  0.03327300  1
  C  1263  1  0.91402100  0.10615300  0.05319400  1
  C  1265  1  0.03251200  0.08465300  0.06161900  1
  C  1267  1  0.51119000  0.92149800  0.55568000  1
  C  1269  1  0.47351100  0.94601400  0.56878900  1
  C  1270  1  0.45166300  0.93256700  0.56052800  1
  C  1272  1  0.48929000  0.90779900  0.54731900  1
  C  1274  1  0.49516600  0.88932300  0.53609900  1
  C  1277  1  0.51906800  0.84588800  0.53308000  1
  C  1281  1  0.54094000  0.91838500  0.55317000  1
  C  1283  1  0.42246000  0.93996600  0.56156200  1
  C  1285  1  0.13928600  0.72995700  0.30724000  1
  C  1287  1  0.16507600  0.76691500  0.32002900  1
  C  1288  1  0.15094200  0.78851900  0.31203200  1
  C  1290  1  0.12488700  0.75161200  0.29914200  1
  C  1292  1  0.10536900  0.74594100  0.28821500  1
  C  1295  1  0.06133100  0.72194900  0.28553900  1
  C  1299  1  0.13591600  0.70068300  0.30472400  1
  C  1301  1  0.15870100  0.81722800  0.31298500  1
  C  1303  1  0.31549400  0.29456300  0.80725800  1
  C  1305  1  0.28981400  0.25759000  0.82008600  1
  C  1306  1  0.30393200  0.23599400  0.81207500  1
  C  1308  1  0.32986400  0.27291800  0.79914500  1
  C  1310  1  0.34935400  0.27864400  0.78820000  1
  C  1313  1  0.39358400  0.30201000  0.78536400  1
  C  1317  1  0.31891100  0.32383500  0.80475500  1
  C  1319  1  0.29625400  0.20726600  0.81307200  1
  C  1321  1  0.51072700  0.10214600  0.43444500  1
  C  1323  1  0.47264800  0.07708500  0.42187400  1
  C  1324  1  0.45100700  0.09143000  0.42988100  1
  C  1326  1  0.48901600  0.11681700  0.44252100  1
  C  1328  1  0.49519400  0.13640700  0.45325200  1
  C  1331  1  0.52111500  0.17888900  0.45524900  1
  C  1335  1  0.54053700  0.10462400  0.43706700  1
  C  1337  1  0.42168600  0.08442000  0.42896100  1
  C  1339  1  0.94430100  0.92237900  0.93447100  1
  C  1341  1  0.98233900  0.94790700  0.92210200  1
  C  1342  1  0.00400400  0.93324700  0.92994300  1
  C  1344  1  0.96603600  0.90734300  0.94236500  1
  C  1346  1  0.95994100  0.88727900  0.95286900  1
  C  1349  1  0.93180700  0.84607600  0.95531900  1
  C  1353  1  0.91450600  0.92001400  0.93715500  1
  C  1355  1  0.03332600  0.94028400  0.92906400  1
  C  1357  1  0.31491100  0.73094900  0.18303300  1
  C  1359  1  0.28827700  0.76830000  0.17096000  1
  C  1360  1  0.30362100  0.78969100  0.17854000  1
  C  1362  1  0.33064700  0.75240500  0.19066100  1
  C  1364  1  0.35163800  0.74647800  0.20088900  1
  C  1367  1  0.39341900  0.71849000  0.20298200  1
  C  1371  1  0.31742800  0.70163600  0.18575200  1
  C  1373  1  0.29628500  0.81852200  0.17775200  1
  C  1375  1  0.14015600  0.29353900  0.68300800  1
  C  1377  1  0.16671100  0.25620400  0.67088400  1
  C  1378  1  0.15141700  0.23480700  0.67848200  1
  C  1380  1  0.12448400  0.27207600  0.69066400  1
  C  1382  1  0.10350400  0.27803700  0.70090800  1
  C  1385  1  0.06163800  0.30569000  0.70332800  1
  C  1389  1  0.13756000  0.32285100  0.68570700  1
  C  1391  1  0.15870000  0.20596500  0.67764500  1
  C  1393  1  0.81926500  0.29446900  0.68380800  1
  C  1395  1  0.79448300  0.25736300  0.67064700  1
  C  1396  1  0.80821800  0.23582500  0.67886300  1
  C  1398  1  0.83323600  0.27287800  0.69212700  1
  C  1400  1  0.85196600  0.27869600  0.70338400  1
  C  1403  1  0.89704700  0.30040200  0.70576000  1
  C  1407  1  0.82249100  0.32376600  0.68633100  1
  C  1409  1  0.80068700  0.20707100  0.67777800  1
  C  1411  1  0.63569100  0.73005100  0.18381700  1
  C  1413  1  0.66079300  0.76711800  0.17077200  1
  C  1414  1  0.64684300  0.78868100  0.17887900  1
  C  1416  1  0.62147500  0.75166800  0.19202100  1
  C  1418  1  0.60239900  0.74593700  0.20312600  1
  C  1421  1  0.55830100  0.72220400  0.20592700  1
  C  1425  1  0.63255700  0.70075600  0.18638100  1
  C  1427  1  0.65438700  0.81743300  0.17780700  1
  C  1429  1  0.63608700  0.29323500  0.80512200  1
  C  1431  1  0.66211300  0.25558000  0.81728000  1
  C  1432  1  0.64700800  0.23437300  0.80945500  1
  C  1434  1  0.62058000  0.27196000  0.79725200  1
  C  1436  1  0.59997500  0.27814600  0.78687500  1
  C  1439  1  0.55838100  0.30633600  0.78469900  1
  C  1443  1  0.63383500  0.32260100  0.80247800  1
  C  1445  1  0.65416100  0.20549300  0.81023300  1
  C  1447  1  0.81878500  0.73126500  0.30513400  1
  C  1449  1  0.79284200  0.76891200  0.31733900  1
  C  1450  1  0.80791200  0.79012500  0.30950100  1
  C  1452  1  0.83424200  0.75254200  0.29724300  1
  C  1454  1  0.85484400  0.74631800  0.28685500  1
  C  1457  1  0.89649500  0.71842100  0.28434400  1
  C  1461  1  0.82110200  0.70190200  0.30250900  1
  C  1463  1  0.80082100  0.81901800  0.31032400  1
  C  1465  1  0.44955100  0.60598100  0.55318500  1
  C  1467  1  0.48719000  0.58114800  0.56617900  1
  C  1468  1  0.50912100  0.59549800  0.55836300  1
  C  1470  1  0.47153500  0.62059100  0.54528700  1
  C  1472  1  0.46567100  0.63983000  0.53438400  1
  C  1475  1  0.44376200  0.68439000  0.53313600  1
  C  1479  1  0.41978600  0.60920300  0.55067600  1
  C  1481  1  0.53837500  0.58831100  0.55952500  1
  C  1483  1  0.00539100  0.41851900  0.05318800  1
  C  1485  1  0.96777500  0.44363200  0.06606700  1
  C  1486  1  0.94582900  0.42909200  0.05835200  1
  C  1488  1  0.98339300  0.40369100  0.04539800  1
  C  1490  1  0.98918400  0.38415700  0.03464300  1
  C  1493  1  0.01300800  0.34044600  0.03297500  1
  C  1497  1  0.03515400  0.41537400  0.05064800  1
  C  1499  1  0.91657300  0.43629400  0.05948800  1
  C  1501  1  0.00111700  0.60483900  0.93612100  1
  C  1503  1  0.96304700  0.57871100  0.92410400  1
  C  1504  1  0.94140600  0.59329700  0.93200100  1
  C  1506  1  0.97940000  0.61983900  0.94404600  1
  C  1508  1  0.98556700  0.64030500  0.95433100  1
  C  1511  1  0.01311900  0.68199900  0.95578200  1
  C  1515  1  0.03095600  0.60738800  0.93867600  1
  C  1517  1  0.91207600  0.58627600  0.93106300  1
  C  1519  1  0.45385000  0.41975300  0.43611700  1
  C  1521  1  0.49194400  0.44576800  0.42405800  1
  C  1522  1  0.51357100  0.43120100  0.43197400  1
  C  1524  1  0.47555000  0.40478600  0.44406700  1
  C  1526  1  0.46932300  0.38433200  0.45436400  1
  C  1529  1  0.44214300  0.34252600  0.45611000  1
  C  1533  1  0.42400300  0.41714900  0.43863800  1
  C  1535  1  0.54291600  0.43815000  0.43100300  1
  C  1537  1  0.13108600  0.00590900  0.97914600  1
  C  1539  1  0.15912800  0.00762600  0.00107000  1
  C  1540  1  0.14205100  0.03029400  0.00652300  1
  C  1542  1  0.11387800  0.02891600  0.98449900  1
  C  1544  1  0.09011800  0.04013200  0.97729400  1
  C  1547  1  0.04796200  0.02369700  0.96610200  1
  C  1551  1  0.12597700  0.99297100  0.96580100  1
  C  1553  1  0.14607300  0.04251900  0.02010500  1
  C  1555  1  0.32396900  0.01866500  0.47914600  1
  C  1557  1  0.29578700  0.01682400  0.50102400  1
  C  1558  1  0.31293300  0.99423400  0.50650600  1
  C  1560  1  0.34126100  0.99574600  0.48453100  1
  C  1562  1  0.36508300  0.98460200  0.47738800  1
  C  1565  1  0.40667600  0.00110000  0.46562300  1
  C  1569  1  0.32904900  0.03158600  0.46579800  1
  C  1571  1  0.30887700  0.98198300  0.52008000  1
  C  1573  1  0.23283900  0.91458500  0.22908900  1
  C  1575  1  0.23307300  0.94185800  0.25111800  1
  C  1576  1  0.21047800  0.92502800  0.25698200  1
  C  1578  1  0.20989300  0.89761700  0.23485800  1
  C  1580  1  0.19775900  0.87446300  0.22781100  1
  C  1583  1  0.21322400  0.83388900  0.21533000  1
  C  1587  1  0.24483300  0.90978700  0.21547400  1
  C  1589  1  0.19922100  0.92885300  0.27081000  1
  C  1591  1  0.22215500  0.10995300  0.72906900  1
  C  1593  1  0.22201400  0.08262000  0.75107800  1
  C  1594  1  0.24452200  0.09953600  0.75696400  1
  C  1596  1  0.24502900  0.12699200  0.73485300  1
  C  1598  1  0.25698200  0.15028000  0.72781400  1
  C  1601  1  0.24188800  0.19085600  0.71528000  1
  C  1605  1  0.21016600  0.11473900  0.71545100  1
  C  1607  1  0.25579100  0.09570900  0.77079100  1
  C  1609  1  0.81355700  0.01772200  0.01062600  1
  C  1611  1  0.78942500  0.01936600  0.98760400  1
  C  1612  1  0.80418000  0.99458900  0.98287200  1
  C  1614  1  0.82828400  0.99252600  0.00601900  1
  C  1616  1  0.84888800  0.97838800  0.01423200  1
  C  1619  1  0.89072800  0.98915000  0.02730100  1
  C  1623  1  0.81810000  0.03017900  0.02411700  1
  C  1625  1  0.80121300  0.98312700  0.96908000  1
  C  1627  1  0.64138900  0.00678500  0.51062600  1
  C  1629  1  0.66566300  0.00523100  0.48763900  1
  C  1630  1  0.65084000  0.02995400  0.48288800  1
  C  1632  1  0.62658100  0.03192200  0.50599900  1
  C  1634  1  0.60592300  0.04601800  0.51416000  1
  C  1637  1  0.56476100  0.03513000  0.52779800  1
  C  1641  1  0.63687800  0.99433700  0.52412000  1
  C  1643  1  0.65384000  0.04143900  0.46910100  1
  C  1645  1  0.72018600  0.10964500  0.75984200  1
  C  1647  1  0.72202000  0.08205000  0.73792200  1
  C  1648  1  0.74492000  0.09899200  0.73243000  1
  C  1650  1  0.74340100  0.12675400  0.75444100  1
  C  1652  1  0.75474100  0.15013800  0.76162600  1
  C  1655  1  0.73795600  0.19076300  0.77364400  1
  C  1659  1  0.70715400  0.11449500  0.77323400  1
  C  1661  1  0.75735600  0.09503700  0.71884300  1
  C  1663  1  0.73478400  0.91483300  0.25986200  1
  C  1665  1  0.73284500  0.94251000  0.23797100  1
  C  1666  1  0.71002800  0.92548800  0.23245400  1
  C  1668  1  0.71163900  0.89766000  0.25444500  1
  C  1670  1  0.70048300  0.87413800  0.26160900  1
  C  1673  1  0.71691000  0.83349300  0.27367500  1
  C  1677  1  0.74781800  0.90998200  0.27325500  1
  C  1679  1  0.69757200  0.92945600  0.21887200  1
  C  1681  1  0.64140200  0.50458000  0.47941900  1
  C  1683  1  0.66666667  0.50723800  0.50213600  1
  C  1684  1  0.64903100  0.53017700  0.50680200  1
  C  1686  1  0.62345100  0.52768300  0.48400200  1
  C  1688  1  0.60110800  0.53888100  0.47574400  1
  C  1691  1  0.56209200  0.52240200  0.46204300  1
  C  1695  1  0.64031300  0.49242900  0.46566700  1
  C  1697  1  0.65203600  0.54326600  0.52025300  1
  C  1699  1  0.81361800  0.51996900  0.97944500  1
  C  1701  1  0.78820900  0.51717600  0.00211700  1
  C  1702  1  0.80590600  0.49430900  0.00680500  1
  C  1704  1  0.83164400  0.49694300  0.98405100  1
  C  1706  1  0.85405300  0.48580300  0.97585000  1
  C  1709  1  0.89233900  0.50229500  0.96158500  1
  C  1713  1  0.81463700  0.53207500  0.96568500  1
  C  1715  1  0.80286200  0.48118500  0.02024500  1
  C  1717  1  0.73300600  0.42192100  0.72925700  1
  C  1719  1  0.73438000  0.44632000  0.75212300  1
  C  1720  1  0.70969300  0.43126300  0.75707700  1
  C  1722  1  0.70791100  0.40684900  0.73410200  1
  C  1724  1  0.69385500  0.38608900  0.72610500  1
  C  1727  1  0.70530700  0.34536200  0.71271900  1
  C  1731  1  0.74546600  0.41752100  0.71569700  1
  C  1733  1  0.69802700  0.43441000  0.77086600  1
  C  1735  1  0.72198300  0.60256200  0.22923100  1
  C  1737  1  0.72068800  0.57809300  0.25207700  1
  C  1738  1  0.74530700  0.59323300  0.25704900  1
  C  1740  1  0.74702200  0.61770500  0.23408700  1
  C  1742  1  0.76091400  0.63861400  0.22609900  1
  C  1745  1  0.74985900  0.67935700  0.21269500  1
  C  1749  1  0.70952100  0.60695600  0.21566800  1
  C  1751  1  0.75698900  0.59007700  0.27083700  1
  C  1753  1  0.31990600  0.51995200  0.51031100  1
  C  1755  1  0.29665600  0.51916500  0.48704300  1
  C  1756  1  0.31300100  0.49507000  0.48272500  1
  C  1758  1  0.33646600  0.49560200  0.50609300  1
  C  1760  1  0.35705900  0.48273100  0.51482200  1
  C  1763  1  0.39712100  0.49541800  0.52880900  1
  C  1767  1  0.32068000  0.53206900  0.52407600  1
  C  1769  1  0.31055700  0.48255700  0.46912000  1
  C  1771  1  0.13493100  0.50456100  0.01027900  1
  C  1773  1  0.15831400  0.50544200  0.98704300  1
  C  1774  1  0.14194500  0.52950900  0.98271600  1
  C  1776  1  0.11834500  0.52888900  0.00605100  1
  C  1778  1  0.09772900  0.54175500  0.01473700  1
  C  1781  1  0.05849300  0.52894700  0.02932600  1
  C  1785  1  0.13421200  0.49247200  0.02404800  1
  C  1787  1  0.14444100  0.54206700  0.96912200  1
  C  1789  1  0.22315700  0.60222200  0.26080300  1
  C  1791  1  0.22055900  0.57793700  0.23795000  1
  C  1792  1  0.24504400  0.59295500  0.23273900  1
  C  1794  1  0.24806100  0.61724300  0.25570200  1
  C  1796  1  0.26251200  0.63796000  0.26355000  1
  C  1799  1  0.25169600  0.67866800  0.27707500  1
  C  1803  1  0.21131000  0.60662300  0.27447400  1
  C  1805  1  0.25588200  0.58999600  0.21879300  1
  C  1807  1  0.23172600  0.42231700  0.76080700  1
  C  1809  1  0.23421900  0.44670000  0.73798100  1
  C  1810  1  0.20982800  0.43156800  0.73274400  1
  C  1812  1  0.20690200  0.40719300  0.75569000  1
  C  1814  1  0.19264000  0.38629500  0.76352200  1
  C  1817  1  0.20311700  0.34556500  0.77704200  1
  C  1821  1  0.24356800  0.41792000  0.77447900  1
  C  1823  1  0.19896900  0.43454500  0.71880200  1
  C  1825  1  0.27638900  0.03101800  0.12996100  1
  C  1827  1  0.23001100  0.02873300  0.11790200  1
  C  1828  1  0.23309500  0.05679400  0.11243300  1
  C  1830  1  0.27980200  0.05933300  0.12446400  1
  C  1832  1  0.30392100  0.07613700  0.12737500  1
  C  1835  1  0.35436600  0.07246500  0.12956900  1
  C  1839  1  0.29539800  0.01818600  0.13988400  1
  C  1841  1  0.21072700  0.07074700  0.10503300  1
  C  1843  1  0.17851100  0.99352900  0.62990000  1
  C  1845  1  0.22495200  0.99578700  0.61789400  1
  C  1846  1  0.22187000  0.96773200  0.61241900  1
  C  1848  1  0.17509800  0.96521900  0.62439500  1
  C  1850  1  0.15103100  0.94837700  0.62727200  1
  C  1853  1  0.10072400  0.95225800  0.63033900  1
  C  1857  1  0.15956200  0.00635600  0.63984900  1
  C  1859  1  0.24424600  0.95376500  0.60503200  1
  C  1861  1  0.20986600  0.06344700  0.37987300  1
  C  1863  1  0.21424600  0.01728700  0.36846600  1
  C  1864  1  0.18592200  0.01912100  0.36261700  1
  C  1866  1  0.18128400  0.06561400  0.37398200  1
  C  1868  1  0.16327100  0.08886000  0.37638100  1
  C  1871  1  0.16589200  0.13841700  0.37941900  1
  C  1875  1  0.22169200  0.08276700  0.38987600  1
  C  1877  1  0.17277300  0.99624400  0.35540000  1
  C  1879  1  0.24515300  0.96110100  0.87987500  1
  C  1881  1  0.24085500  0.00736500  0.86857400  1
  C  1882  1  0.26909800  0.00544700  0.86263900  1
  C  1884  1  0.27364300  0.95882800  0.87388500  1
  C  1886  1  0.29148500  0.93537300  0.87615100  1
  C  1889  1  0.28910900  0.88584800  0.87922800  1
  C  1893  1  0.23334100  0.94170600  0.88984600  1
  C  1895  1  0.28225600  0.02830100  0.85540400  1
  C  1897  1  0.67262700  0.99389900  0.85941500  1
  C  1899  1  0.71994600  0.99487400  0.87055100  1
  C  1900  1  0.71578200  0.96758000  0.87677700  1
  C  1902  1  0.66811900  0.96637200  0.86567600  1
  C  1904  1  0.64284100  0.95071600  0.86370400  1
  C  1907  1  0.59270400  0.95777200  0.86224600  1
  C  1911  1  0.65326200  0.00692700  0.84975000  1
  C  1913  1  0.73777700  0.95338700  0.88432200  1
  C  1915  1  0.78246200  0.03057200  0.35948700  1
  C  1917  1  0.73501700  0.02968300  0.37049500  1
  C  1918  1  0.73920100  0.05693400  0.37676700  1
  C  1920  1  0.78699700  0.05805000  0.36579800  1
  C  1922  1  0.81227900  0.07368400  0.36392300  1
  C  1925  1  0.86233100  0.06641700  0.36168100  1
  C  1929  1  0.80186300  0.01756600  0.34983600  1
  C  1931  1  0.71719000  0.07114400  0.38429400  1
  C  1933  1  0.74604000  0.95876200  0.61402700  1
  C  1935  1  0.75749300  0.00906400  0.61498200  1
  C  1936  1  0.77643200  0.00518200  0.62683500  1
  C  1938  1  0.76515100  0.95456500  0.62594000  1
  C  1940  1  0.77116500  0.92791700  0.63161200  1
  C  1943  1  0.78368400  0.88178800  0.62406500  1
  C  1947  1  0.72862600  0.93725000  0.60794800  1
  C  1949  1  0.79189000  0.02783600  0.63308800  1
  C  1951  1  0.70903700  0.06569300  0.11405700  1
  C  1953  1  0.69769900  0.01537800  0.11508000  1
  C  1954  1  0.67859600  0.01931100  0.12686600  1
  C  1956  1  0.68978000  0.06994000  0.12590700  1
  C  1958  1  0.68356700  0.09667200  0.13144600  1
  C  1961  1  0.67020600  0.14265800  0.12411000  1
  C  1965  1  0.72641800  0.08722500  0.10797500  1
  C  1967  1  0.66313000  0.99666300  0.13311800  1
  C  1969  1  0.78062500  0.53432700  0.63006300  1
  C  1971  1  0.73431000  0.53148500  0.61799200  1
  C  1972  1  0.73736000  0.55934300  0.61226100  1
  C  1974  1  0.78402500  0.56242900  0.62430300  1
  C  1976  1  0.80816400  0.57933500  0.62703000  1
  C  1979  1  0.85855700  0.57547600  0.62937600  1
  C  1983  1  0.79982100  0.52184800  0.63999900  1
  C  1985  1  0.71506200  0.57296300  0.60465000  1
  C  1987  1  0.67421800  0.49019300  0.13001100  1
  C  1989  1  0.72061200  0.49301100  0.11800700  1
  C  1990  1  0.71757500  0.46515900  0.11226900  1
  C  1992  1  0.67082900  0.46209700  0.12423900  1
  C  1994  1  0.64673800  0.44515200  0.12692500  1
  C  1997  1  0.59650200  0.44921000  0.13015800  1
  C  2001  1  0.65501600  0.50265200  0.13994400  1
  C  2003  1  0.73988600  0.45153200  0.10467000  1
  C  2005  1  0.70859500  0.56865900  0.87537500  1
  C  2007  1  0.69521600  0.51883600  0.87457200  1
  C  2008  1  0.67675300  0.52322500  0.86257700  1
  C  2010  1  0.68995600  0.57336800  0.86333100  1
  C  2012  1  0.68506500  0.60009900  0.85751700  1
  C  2015  1  0.67113400  0.64655900  0.86409300  1
  C  2019  1  0.72674600  0.58959600  0.88140100  1
  C  2021  1  0.66088300  0.50101000  0.85619600  1
  C  2023  1  0.74623300  0.45595200  0.37537200  1
  C  2025  1  0.75949300  0.50579500  0.37448500  1
  C  2026  1  0.77814700  0.50132600  0.36256900  1
  C  2028  1  0.76504900  0.45116900  0.36340600  1
  C  2030  1  0.77015300  0.42433300  0.35774200  1
  C  2033  1  0.78532700  0.37815700  0.36405700  1
  C  2037  1  0.72809600  0.43500900  0.38139500  1
  C  2039  1  0.79403900  0.52352700  0.35618800  1
  C  2041  1  0.17970200  0.49062500  0.36071300  1
  C  2043  1  0.22685900  0.49317800  0.37198500  1
  C  2044  1  0.22383300  0.46552500  0.37796400  1
  C  2046  1  0.17633900  0.46273200  0.36672800  1
  C  2048  1  0.15178500  0.44612100  0.36453300  1
  C  2051  1  0.10144100  0.45136400  0.36299100  1
  C  2055  1  0.16015900  0.50307500  0.35092700  1
  C  2057  1  0.24642400  0.45194900  0.38538400  1
  C  2059  1  0.27535000  0.53380900  0.86079300  1
  C  2061  1  0.22806300  0.53139700  0.87194400  1
  C  2062  1  0.23116300  0.55899100  0.87798200  1
  C  2064  1  0.27879500  0.56163800  0.86687300  1
  C  2066  1  0.30338000  0.57819300  0.86477500  1
  C  2069  1  0.35364400  0.57269200  0.86245400  1
  C  2073  1  0.29483500  0.52136500  0.85098200  1
  C  2075  1  0.20857500  0.57261300  0.88538200  1
  C  2077  1  0.24484800  0.45791700  0.10994900  1
  C  2079  1  0.24161000  0.50491000  0.12051400  1
  C  2080  1  0.26942400  0.50232700  0.12686600  1
  C  2082  1  0.27288300  0.45497100  0.11636400  1
  C  2084  1  0.28992900  0.43078800  0.11472800  1
  C  2087  1  0.28457500  0.38128700  0.11260800  1
  C  2091  1  0.23279700  0.43833800  0.10017300  1
  C  2093  1  0.28279000  0.52497000  0.13415100  1
  C  2095  1  0.21007600  0.56655800  0.60992600  1
  C  2097  1  0.21325700  0.51950700  0.62042300  1
  C  2098  1  0.18550000  0.52213900  0.62683200  1
  C  2100  1  0.18211000  0.56956800  0.61640500  1
  C  2102  1  0.16521100  0.59390700  0.61486300  1
  C  2105  1  0.17021600  0.64339100  0.61264900  1
  C  2109  1  0.22212700  0.58619200  0.60017700  1
  C  2111  1  0.17213400  0.49950900  0.63412800  1
  C  2113  1  0.13194900  0.09695000  0.23291000  1
  C  2114  1  0.13973500  0.08175600  0.22023700  1
  C  2115  1  0.11869000  0.07165300  0.21035900  1
  C  2116  1  0.08878300  0.07766900  0.21282200  1
  C  2117  1  0.08048400  0.09243800  0.22563200  1
  C  2118  1  0.10179300  0.10204900  0.23574000  1
  C  2121  1  0.15481800  0.10835500  0.24197700  1
  C  2122  1  0.17417200  0.09121000  0.25041300  1
  C  2123  1  0.19578200  0.10473800  0.25927500  1
  C  2124  1  0.19886000  0.13529700  0.25906200  1
  C  2125  1  0.17901500  0.15243300  0.25091400  1
  C  2126  1  0.15797500  0.13845100  0.24238400  1
  C  2143  1  0.32301000  0.92757100  0.73289600  1
  C  2144  1  0.31522200  0.94277300  0.72022700  1
  C  2145  1  0.33626800  0.95288000  0.71035000  1
  C  2146  1  0.36617600  0.94686800  0.71281400  1
  C  2147  1  0.37447500  0.93210100  0.72562500  1
  C  2148  1  0.35316600  0.92248400  0.73573100  1
  C  2151  1  0.30014500  0.91616600  0.74196600  1
  C  2152  1  0.28079900  0.93331200  0.75040700  1
  C  2153  1  0.25919500  0.91978300  0.75927100  1
  C  2154  1  0.25613200  0.88922200  0.75906900  1
  C  2155  1  0.27596100  0.87208900  0.75091100  1
  C  2156  1  0.29698900  0.88606900  0.74237300  1
  C  2173  1  0.14653800  0.91542600  0.48440100  1
  C  2174  1  0.16141200  0.92283900  0.47153400  1
  C  2175  1  0.17107100  0.90196600  0.46160400  1
  C  2176  1  0.16504100  0.87259200  0.46425300  1
  C  2177  1  0.15060400  0.86462700  0.47726000  1
  C  2178  1  0.14130700  0.88581000  0.48737000  1
  C  2181  1  0.13491700  0.93820200  0.49328700  1
  C  2182  1  0.15220600  0.95789600  0.50142200  1
  C  2183  1  0.13831900  0.97971000  0.50989000  1
  C  2184  1  0.10725400  0.98262000  0.50954400  1
  C  2185  1  0.09002600  0.96253200  0.50166800  1
  C  2186  1  0.10432700  0.94125700  0.49356200  1
  C  2203  1  0.30844200  0.10909800  0.98439000  1
  C  2204  1  0.29357200  0.10170100  0.97151800  1
  C  2205  1  0.28388800  0.12258900  0.96160200  1
  C  2206  1  0.28990300  0.15196200  0.96426600  1
  C  2207  1  0.30432700  0.15990800  0.97728000  1
  C  2208  1  0.31365300  0.13870900  0.98737400  1
  C  2211  1  0.32006700  0.08631100  0.99326600  1
  C  2212  1  0.30278200  0.06662300  0.00140604  1
  C  2213  1  0.31667200  0.04481500  0.00987704  1
  C  2214  1  0.34773400  0.04188300  0.00951704  1
  C  2215  1  0.36496100  0.06196500  0.00163504  1
  C  2216  1  0.35065800  0.08325100  0.99353800  1
  C  2233  1  0.32269500  0.09829100  0.60151300  1
  C  2234  1  0.31410300  0.08306900  0.61402900  1
  C  2235  1  0.33453300  0.07295200  0.62419600  1
  C  2236  1  0.36454600  0.07943500  0.62228800  1
  C  2237  1  0.37369900  0.09347500  0.60941300  1
  C  2238  1  0.35299500  0.10308400  0.59900500  1
  C  2241  1  0.30047600  0.10952500  0.59207300  1
  C  2242  1  0.28441800  0.09249600  0.58206600  1
  C  2243  1  0.26370700  0.10580700  0.57266800  1
  C  2244  1  0.26028200  0.13634900  0.57277800  1
  C  2245  1  0.27691300  0.15342300  0.58258700  1
  C  2246  1  0.29593900  0.13943700  0.59222300  1
  C  2263  1  0.13232700  0.92623800  0.10152500  1
  C  2264  1  0.14093200  0.94146400  0.11403700  1
  C  2265  1  0.12050900  0.95159900  0.12420400  1
  C  2266  1  0.09049100  0.94513100  0.12229800  1
  C  2267  1  0.08132900  0.93108600  0.10942500  1
  C  2268  1  0.10202700  0.92146200  0.09901700  1
  C  2271  1  0.15453800  0.91500900  0.09207900  1
  C  2272  1  0.17059100  0.93204600  0.08207300  1
  C  2273  1  0.19130200  0.91874000  0.07267100  1
  C  2274  1  0.19473600  0.88819800  0.07278100  1
  C  2275  1  0.17811600  0.87112100  0.08259300  1
  C  2276  1  0.15907900  0.88509800  0.09222600  1
  C  2293  1  0.31017900  0.91623600  0.35018600  1
  C  2294  1  0.29542400  0.92442700  0.36294800  1
  C  2295  1  0.28579400  0.90411900  0.37315800  1
  C  2296  1  0.29224800  0.87463400  0.37101500  1
  C  2297  1  0.30584900  0.86587100  0.35791700  1
  C  2298  1  0.31505700  0.88648800  0.34750000  1
  C  2301  1  0.32152800  0.93838300  0.34090000  1
  C  2302  1  0.30420400  0.95490900  0.33119400  1
  C  2303  1  0.31774800  0.97580100  0.32208400  1
  C  2304  1  0.34879900  0.97903400  0.32219100  1
  C  2305  1  0.36606300  0.96217300  0.33179900  1
  C  2306  1  0.35191600  0.94285400  0.34113500  1
  C  2323  1  0.14480900  0.10826300  0.85016300  1
  C  2324  1  0.15955800  0.10008100  0.86292700  1
  C  2325  1  0.16921200  0.12039500  0.87312800  1
  C  2326  1  0.16278700  0.14988400  0.87097400  1
  C  2327  1  0.14919000  0.15863600  0.85787200  1
  C  2328  1  0.13994900  0.13801300  0.84746700  1
  C  2331  1  0.13344800  0.08611300  0.84088200  1
  C  2332  1  0.15076000  0.06959700  0.83116600  1
  C  2333  1  0.13720000  0.04873200  0.82204700  1
  C  2334  1  0.10614900  0.04551000  0.82215900  1
  C  2335  1  0.08889800  0.06235300  0.83178000  1
  C  2336  1  0.10306000  0.08164200  0.84112700  1
  C  2353  1  0.81562400  0.92876600  0.10155500  1
  C  2354  1  0.80785800  0.94268500  0.11458300  1
  C  2355  1  0.82889500  0.95518500  0.12373100  1
  C  2356  1  0.85885300  0.95329700  0.12004900  1
  C  2357  1  0.86713700  0.93849900  0.10722800  1
  C  2358  1  0.84570400  0.92681800  0.09775600  1
  C  2361  1  0.79279200  0.91684300  0.09269500  1
  C  2362  1  0.77339800  0.93380300  0.08420500  1
  C  2363  1  0.75196300  0.92004800  0.07535100  1
  C  2364  1  0.74885000  0.88951500  0.07576100  1
  C  2365  1  0.76874800  0.87257300  0.08398800  1
  C  2366  1  0.78993300  0.88672900  0.09237300  1
  C  2383  1  0.63935400  0.09572900  0.60155100  1
  C  2384  1  0.64714700  0.08181600  0.61457600  1
  C  2385  1  0.62612500  0.06934100  0.62374100  1
  C  2386  1  0.59615600  0.07124700  0.62007900  1
  C  2387  1  0.58785500  0.08599300  0.60724500  1
  C  2388  1  0.60927000  0.09766000  0.59775900  1
  C  2391  1  0.66216900  0.10765400  0.59268100  1
  C  2392  1  0.68155900  0.09069800  0.58418500  1
  C  2393  1  0.70298300  0.10446000  0.57532800  1
  C  2394  1  0.70607800  0.13499400  0.57572900  1
  C  2395  1  0.68619300  0.15193000  0.58396600  1
  C  2396  1  0.66502100  0.13776900  0.59236000  1
  C  2413  1  0.81277900  0.10899900  0.85093900  1
  C  2414  1  0.79712400  0.10132600  0.86354800  1
  C  2415  1  0.78705700  0.12198100  0.87350900  1
  C  2416  1  0.79347400  0.15138300  0.87116200  1
  C  2417  1  0.80857500  0.15963000  0.85838800  1
  C  2418  1  0.81821300  0.13868600  0.84823100  1
  C  2421  1  0.82457800  0.08647800  0.84192000  1
  C  2422  1  0.80733400  0.06711500  0.83357900  1
  C  2423  1  0.82127400  0.04579100  0.82488600  1
  C  2424  1  0.85234900  0.04385200  0.82450300  1
  C  2425  1  0.86965200  0.06338100  0.83265300  1
  C  2426  1  0.85522700  0.08375200  0.84138900  1
  C  2443  1  0.64218000  0.91551800  0.35095700  1
  C  2444  1  0.65782600  0.92318100  0.36357100  1
  C  2445  1  0.66791000  0.90251800  0.37352400  1
  C  2446  1  0.66149600  0.87311800  0.37116900  1
  C  2447  1  0.64641900  0.86487900  0.35838700  1
  C  2448  1  0.63676500  0.88583100  0.34823900  1
  C  2451  1  0.63038500  0.93804300  0.34193900  1
  C  2452  1  0.64763600  0.95740200  0.33359900  1
  C  2453  1  0.63370300  0.97872600  0.32490500  1
  C  2454  1  0.60262900  0.98068500  0.32452800  1
  C  2455  1  0.58532000  0.96115700  0.33267500  1
  C  2456  1  0.59973600  0.94077800  0.34140900  1
  C  2473  1  0.63932600  0.92787600  0.73305900  1
  C  2474  1  0.64772700  0.94149900  0.72005900  1
  C  2475  1  0.62715700  0.95364800  0.71056700  1
  C  2476  1  0.59696500  0.95112500  0.71371200  1
  C  2477  1  0.58816300  0.93766900  0.72681700  1
  C  2478  1  0.60915100  0.92646700  0.73667000  1
  C  2481  1  0.66180000  0.91607600  0.74213500  1
  C  2482  1  0.68040700  0.93311500  0.75097700  1
  C  2483  1  0.70279800  0.91969400  0.75932200  1
  C  2484  1  0.70679100  0.88926100  0.75851200  1
  C  2485  1  0.68638900  0.87205300  0.75072500  1
  C  2486  1  0.66492100  0.88600900  0.74243200  1
  C  2503  1  0.81565300  0.09665600  0.23305700  1
  C  2504  1  0.80723600  0.08303900  0.22005800  1
  C  2505  1  0.82779300  0.07087700  0.21056300  1
  C  2506  1  0.85798800  0.07338900  0.21370000  1
  C  2507  1  0.86680600  0.08684600  0.22680200  1
  C  2508  1  0.84583400  0.09805500  0.23666100  1
  C  2511  1  0.79319200  0.10844600  0.24214400  1
  C  2512  1  0.77460200  0.09139300  0.25098900  1
  C  2513  1  0.75221700  0.10480300  0.25934400  1
  C  2514  1  0.74822400  0.13523600  0.25854700  1
  C  2515  1  0.76859800  0.15245400  0.25074800  1
  C  2516  1  0.79005700  0.13851000  0.24244300  1
  C  2533  1  0.64024500  0.10794400  0.98278800  1
  C  2534  1  0.65535700  0.09958500  0.97014500  1
  C  2535  1  0.66532600  0.11974600  0.95992900  1
  C  2536  1  0.65867600  0.14924400  0.96189300  1
  C  2537  1  0.64470800  0.15820100  0.97486000  1
  C  2538  1  0.63534100  0.13775500  0.98532600  1
  C  2541  1  0.62896400  0.08604700  0.99227600  1
  C  2542  1  0.64649000  0.06957200  0.00192004  1
  C  2543  1  0.63299000  0.04973600  0.01161500  1
  C  2544  1  0.60187500  0.04794500  0.01232500  1
  C  2545  1  0.58434000  0.06400400  0.00252304  1
  C  2546  1  0.59846200  0.08217400  0.99253000  1
  C  2563  1  0.81474000  0.91654600  0.48280600  1
  C  2564  1  0.79963200  0.92490200  0.47016200  1
  C  2565  1  0.78964000  0.90473900  0.45995200  1
  C  2566  1  0.79626500  0.87523700  0.46192500  1
  C  2567  1  0.81023300  0.86628400  0.47489300  1
  C  2568  1  0.81963000  0.88673600  0.48535100  1
  C  2571  1  0.82602300  0.93844700  0.49229200  1
  C  2572  1  0.80849900  0.95491300  0.50194200  1
  C  2573  1  0.82200000  0.97473600  0.51164100  1
  C  2574  1  0.85311600  0.97653300  0.51234700  1
  C  2575  1  0.87064500  0.96049800  0.50253100  1
  C  2576  1  0.85652300  0.94233500  0.49253700  1
  C  2593  1  0.63793500  0.60057800  0.73186300  1
  C  2594  1  0.64584000  0.58494800  0.71933600  1
  C  2595  1  0.62494700  0.57486400  0.70936000  1
  C  2596  1  0.59509300  0.58156700  0.71149600  1
  C  2597  1  0.58660000  0.59666900  0.72417500  1
  C  2598  1  0.60773500  0.60610100  0.73442200  1
  C  2601  1  0.66065000  0.61168800  0.74116600  1
  C  2602  1  0.67965900  0.59425300  0.74965900  1
  C  2603  1  0.70061800  0.60747100  0.75900100  1
  C  2604  1  0.70306300  0.63804900  0.75945800  1
  C  2605  1  0.68430400  0.65555200  0.75091800  1
  C  2606  1  0.66388000  0.64178700  0.74185300  1
  C  2623  1  0.81700700  0.42393500  0.23187600  1
  C  2624  1  0.80909400  0.43956300  0.21934900  1
  C  2625  1  0.82998400  0.44964400  0.20937200  1
  C  2626  1  0.85984200  0.44294800  0.21150700  1
  C  2627  1  0.86833900  0.42785700  0.22418900  1
  C  2628  1  0.84720600  0.41842700  0.23443700  1
  C  2631  1  0.79429800  0.41282300  0.24118200  1
  C  2632  1  0.77528900  0.43025300  0.24967600  1
  C  2633  1  0.75434100  0.41702900  0.25902000  1
  C  2634  1  0.75190600  0.38645100  0.25948200  1
  C  2635  1  0.77066600  0.36895000  0.25093900  1
  C  2636  1  0.79107900  0.38272400  0.24187100  1
  C  2653  1  0.64255200  0.41998400  0.98342300  1
  C  2654  1  0.65714800  0.42770300  0.97052100  1
  C  2655  1  0.66991900  0.40706300  0.96135400  1
  C  2656  1  0.66781400  0.37755800  0.96495700  1
  C  2657  1  0.65239900  0.36929400  0.97765600  1
  C  2658  1  0.64034100  0.39034000  0.98710200  1
  C  2661  1  0.62994200  0.44242400  0.99215600  1
  C  2662  1  0.64673800  0.46183600  0.00067704  1
  C  2663  1  0.63235000  0.48350500  0.00895904  1
  C  2664  1  0.60132700  0.48618400  0.00845404  1
  C  2665  1  0.58451200  0.46581500  0.00053704  1
  C  2666  1  0.59927300  0.44491900  0.99233500  1
  C  2683  1  0.81239600  0.60451600  0.48340900  1
  C  2684  1  0.79782600  0.59679300  0.47050300  1
  C  2685  1  0.78505100  0.61742700  0.46133300  1
  C  2686  1  0.78714200  0.64693100  0.46493500  1
  C  2687  1  0.80252600  0.65520000  0.47764300  1
  C  2688  1  0.81458300  0.63416000  0.48709300  1
  C  2691  1  0.82500600  0.58208100  0.49214600  1
  C  2692  1  0.80821200  0.56266800  0.50066600  1
  C  2693  1  0.82260000  0.54100900  0.50895700  1
  C  2694  1  0.85362100  0.53832700  0.50845000  1
  C  2695  1  0.87043600  0.55868300  0.50052400  1
  C  2696  1  0.85567500  0.57958500  0.49232500  1
  C  2713  1  0.81347400  0.60070200  0.10225900  1
  C  2714  1  0.80389300  0.58525800  0.11451900  1
  C  2715  1  0.82339700  0.57452400  0.12495400  1
  C  2716  1  0.85357700  0.58064600  0.12365400  1
  C  2717  1  0.86381300  0.59522600  0.11112300  1
  C  2718  1  0.84398500  0.60534000  0.10039600  1
  C  2721  1  0.79174000  0.61217800  0.09257600  1
  C  2722  1  0.77329400  0.59490300  0.08375000  1
  C  2723  1  0.75128500  0.60809400  0.07506700  1
  C  2724  1  0.74786100  0.63861600  0.07527500  1
  C  2725  1  0.76770700  0.65609300  0.08322300  1
  C  2726  1  0.78856400  0.64225100  0.09201300  1
  C  2743  1  0.64149300  0.42373000  0.60227600  1
  C  2744  1  0.65107000  0.43918500  0.61453200  1
  C  2745  1  0.63156600  0.44994800  0.62495900  1
  C  2746  1  0.60138000  0.44385400  0.62365000  1
  C  2747  1  0.59115000  0.42924400  0.61112800  1
  C  2748  1  0.61098100  0.41909600  0.60040900  1
  C  2751  1  0.66322800  0.41228000  0.59258500  1
  C  2752  1  0.68164100  0.42958400  0.58375600  1
  C  2753  1  0.70365000  0.41642400  0.57506300  1
  C  2754  1  0.70709600  0.38590300  0.57525100  1
  C  2755  1  0.68729100  0.36840000  0.58321200  1
  C  2756  1  0.66643900  0.38221100  0.59201600  1
  C  2773  1  0.81244400  0.42082000  0.85122000  1
  C  2774  1  0.79868200  0.42910500  0.86423900  1
  C  2775  1  0.78664200  0.40885200  0.87383900  1
  C  2776  1  0.78949200  0.37912800  0.87076900  1
  C  2777  1  0.80298900  0.37040600  0.85762400  1
  C  2778  1  0.81407700  0.39108200  0.84769500  1
  C  2781  1  0.82448200  0.44275300  0.84202200  1
  C  2782  1  0.80757500  0.45918900  0.83209800  1
  C  2783  1  0.82160400  0.47947000  0.82283300  1
  C  2784  1  0.85268400  0.48228600  0.82305200  1
  C  2785  1  0.86956700  0.46538100  0.83281300  1
  C  2786  1  0.85497900  0.44652700  0.84224400  1
  C  2803  1  0.64250400  0.60367600  0.35120900  1
  C  2804  1  0.65627200  0.59539300  0.36422700  1
  C  2805  1  0.66834500  0.61564600  0.37381600  1
  C  2806  1  0.66552600  0.64537000  0.37073700  1
  C  2807  1  0.65199200  0.65409000  0.35760200  1
  C  2808  1  0.64087100  0.63341200  0.34768300  1
  C  2811  1  0.63045700  0.58174100  0.34201600  1
  C  2812  1  0.64735800  0.56531300  0.33208500  1
  C  2813  1  0.63332000  0.54505200  0.32281300  1
  C  2814  1  0.60223800  0.54223800  0.32303700  1
  C  2815  1  0.58536600  0.55912300  0.33281000  1
  C  2816  1  0.59996200  0.57795800  0.34224800  1
  C  2833  1  0.32502300  0.42609300  0.60237100  1
  C  2834  1  0.31715400  0.44024100  0.61533500  1
  C  2835  1  0.33810000  0.45280300  0.62453200  1
  C  2836  1  0.36811900  0.45053200  0.62103800  1
  C  2837  1  0.37655300  0.43539100  0.60834500  1
  C  2838  1  0.35521000  0.42388000  0.59876300  1
  C  2841  1  0.30230600  0.41423600  0.59334400  1
  C  2842  1  0.28250600  0.43128000  0.58511000  1
  C  2843  1  0.26182100  0.41764200  0.57578600  1
  C  2844  1  0.26026400  0.38702400  0.57519600  1
  C  2845  1  0.27974500  0.36990400  0.58354400  1
  C  2846  1  0.30017100  0.38407300  0.59246400  1
  C  2863  1  0.12996900  0.59853000  0.10236900  1
  C  2864  1  0.13782700  0.58436000  0.11532900  1
  C  2865  1  0.11687700  0.57177500  0.12451500  1
  C  2866  1  0.08686000  0.57403900  0.12101300  1
  C  2867  1  0.07843100  0.58922600  0.10833100  1
  C  2868  1  0.09978500  0.60076200  0.09876200  1
  C  2871  1  0.15269600  0.61036200  0.09334200  1
  C  2872  1  0.17247100  0.59328900  0.08510700  1
  C  2873  1  0.19320300  0.60689800  0.07579800  1
  C  2874  1  0.19481900  0.63751300  0.07521600  1
  C  2875  1  0.17534500  0.65465700  0.08355400  1
  C  2876  1  0.15488600  0.64052300  0.09247000  1
  C  2893  1  0.30825100  0.60414900  0.35037500  1
  C  2894  1  0.29501300  0.59660500  0.36364500  1
  C  2895  1  0.28280800  0.61734500  0.37292900  1
  C  2896  1  0.28443200  0.64679700  0.36916800  1
  C  2897  1  0.29868900  0.65490200  0.35612000  1
  C  2898  1  0.30995700  0.63373900  0.34650600  1
  C  2901  1  0.32042400  0.58169600  0.34150800  1
  C  2902  1  0.30333000  0.56166100  0.33351400  1
  C  2903  1  0.31746500  0.54110900  0.32441000  1
  C  2904  1  0.34861000  0.53985400  0.32389100  1
  C  2905  1  0.36573700  0.55952500  0.33207200  1
  C  2906  1  0.35108200  0.57989100  0.34071400  1
  C  2923  1  0.14668300  0.42034100  0.85036300  1
  C  2924  1  0.15989900  0.42790100  0.86363600  1
  C  2925  1  0.17211500  0.40717400  0.87292500  1
  C  2926  1  0.17051200  0.37771900  0.86916800  1
  C  2927  1  0.15628700  0.36959800  0.85611500  1
  C  2928  1  0.14500800  0.39074900  0.84649700  1
  C  2931  1  0.13451000  0.44278500  0.84149100  1
  C  2932  1  0.15160800  0.46281600  0.83349600  1
  C  2933  1  0.13747700  0.48337200  0.82439300  1
  C  2934  1  0.10633300  0.48464400  0.82388000  1
  C  2935  1  0.08920400  0.46496900  0.83205800  1
  C  2936  1  0.10385400  0.44459400  0.84069700  1
  C  2953  1  0.13320200  0.42425400  0.23245000  1
  C  2954  1  0.14293500  0.43824200  0.21979700  1
  C  2955  1  0.12341400  0.45057900  0.20982000  1
  C  2956  1  0.09293900  0.44772000  0.21206500  1
  C  2957  1  0.08273200  0.43405900  0.22486700  1
  C  2958  1  0.10266500  0.42274200  0.23522700  1
  C  2961  1  0.15458800  0.41276100  0.24226300  1
  C  2962  1  0.17084700  0.43001200  0.25208800  1
  C  2963  1  0.19050400  0.41671200  0.26200600  1
  C  2964  1  0.19248300  0.38611300  0.26266200  1
  C  2965  1  0.17635100  0.36880700  0.25278400  1
  C  2966  1  0.15814700  0.38272400  0.24265800  1
  C  2983  1  0.32175400  0.60033000  0.73245300  1
  C  2984  1  0.31200300  0.58634200  0.71980400  1
  C  2985  1  0.33150700  0.57398100  0.70982700  1
  C  2986  1  0.36198700  0.57681400  0.71206700  1
  C  2987  1  0.37221200  0.59049600  0.72486100  1
  C  2988  1  0.35229500  0.60183500  0.73522200  1
  C  2991  1  0.30037800  0.61180500  0.74227700  1
  C  2992  1  0.28412100  0.59453300  0.75209500  1
  C  2993  1  0.26443600  0.60781100  0.76200700  1
  C  2994  1  0.26240500  0.63840900  0.76265600  1
  C  2995  1  0.27854500  0.65573000  0.75278900  1
  C  2996  1  0.29678900  0.64183800  0.74267400  1
  C  3013  1  0.14633800  0.60362100  0.48449400  1
  C  3014  1  0.15928600  0.59535700  0.47128000  1
  C  3015  1  0.17077100  0.61565800  0.46155500  1
  C  3016  1  0.16817200  0.64537000  0.46468700  1
  C  3017  1  0.15542700  0.65404500  0.47801900  1
  C  3018  1  0.14489400  0.63334100  0.48807500  1
  C  3021  1  0.13479700  0.58169600  0.49382200  1
  C  3022  1  0.15223800  0.56509900  0.50342800  1
  C  3023  1  0.13861400  0.54523800  0.51305400  1
  C  3024  1  0.10748800  0.54328800  0.51359200  1
  C  3025  1  0.09003300  0.55965800  0.50386200  1
  C  3026  1  0.10429300  0.57812700  0.49405100  1
  C  3043  1  0.30853100  0.42089000  0.98450500  1
  C  3044  1  0.29559800  0.42917400  0.97129200  1
  C  3045  1  0.28410100  0.40888900  0.96156200  1
  C  3046  1  0.28668100  0.37917300  0.96468700  1
  C  3047  1  0.29941100  0.37047900  0.97801900  1
  C  3048  1  0.30995100  0.39116800  0.98808100  1
  C  3051  1  0.32010000  0.44280000  0.99383500  1
  C  3052  1  0.30268600  0.45938800  0.00345604  1
  C  3053  1  0.31634200  0.47919600  0.01309700  1
  C  3054  1  0.34747100  0.48111400  0.01362800  1
  C  3055  1  0.36490000  0.46476600  0.00387904  1
  C  3056  1  0.35060800  0.44634100  0.99405600  1
  C  3073  1  0.16907600  0.28979300  0.25012700  1
  C  3075  1  0.18781100  0.25247300  0.26545400  1
  C  3076  1  0.17792900  0.23080500  0.25600400  1
  C  3078  1  0.15911400  0.26814400  0.24047100  1
  C  3080  1  0.14461400  0.27429500  0.22775500  1
  C  3083  1  0.14929600  0.30714600  0.20904800  1
  C  3087  1  0.16275200  0.31899200  0.24847700  1
  C  3089  1  0.17993300  0.20167100  0.25938900  1
  C  3091  1  0.28572900  0.73472700  0.75013200  1
  C  3093  1  0.26749400  0.77210000  0.76557400  1
  C  3094  1  0.27707600  0.79373200  0.75602900  1
  C  3096  1  0.29535900  0.75632700  0.74036400  1
  C  3098  1  0.30945500  0.75017300  0.72755000  1
  C  3101  1  0.30651600  0.71583000  0.70935900  1
  C  3105  1  0.29215700  0.70554700  0.74853900  1
  C  3107  1  0.27517400  0.82287900  0.75940000  1
  C  3109  1  0.95077400  0.95315600  0.50018600  1
  C  3111  1  0.98833400  0.97060500  0.51599500  1
  C  3112  1  0.01050800  0.96154200  0.50647400  1
  C  3114  1  0.97291100  0.94406200  0.49043600  1
  C  3116  1  0.96691600  0.93069700  0.47745700  1
  C  3119  1  0.93210200  0.93419500  0.45925500  1
  C  3123  1  0.92121000  0.94683100  0.49841700  1
  C  3125  1  0.04003300  0.96345300  0.50997400  1
  C  3127  1  0.50420400  0.07138400  0.00018804  1
  C  3129  1  0.46665300  0.05395100  0.01600500  1
  C  3130  1  0.44447700  0.06297000  0.00647604  1
  C  3132  1  0.48206900  0.08042900  0.99042500  1
  C  3134  1  0.48811600  0.09367600  0.97740500  1
  C  3137  1  0.52293500  0.09100200  0.95918600  1
  C  3141  1  0.53377300  0.07766600  0.99839600  1
  C  3143  1  0.41494700  0.06099500  0.00996004  1
  C  3145  1  0.28753300  0.29072500  0.58536200  1
  C  3147  1  0.27028900  0.25416000  0.56915300  1
  C  3148  1  0.27922600  0.23204300  0.57856400  1
  C  3150  1  0.29654100  0.26860600  0.59498200  1
  C  3152  1  0.30996200  0.27413700  0.60806600  1
  C  3155  1  0.30494700  0.30705800  0.62673800  1
  C  3159  1  0.29383900  0.31982500  0.58746700  1
  C  3161  1  0.27810800  0.20312000  0.57468300  1
  C  3163  1  0.16763500  0.73381200  0.08533000  1
  C  3165  1  0.18443700  0.77043600  0.06904200  1
  C  3166  1  0.17578300  0.79251300  0.07854000  1
  C  3168  1  0.15894400  0.75588000  0.09505400  1
  C  3170  1  0.14588300  0.75033500  0.10821100  1
  C  3173  1  0.14917200  0.71597300  0.12638500  1
  C  3177  1  0.16117500  0.70473700  0.08735900  1
  C  3179  1  0.17681100  0.82145300  0.07468400  1
  C  3181  1  0.50523000  0.95288900  0.33437400  1
  C  3183  1  0.46786000  0.96829600  0.31794100  1
  C  3184  1  0.44561600  0.96005600  0.32760200  1
  C  3186  1  0.48302100  0.94465000  0.34427400  1
  C  3188  1  0.48892100  0.93248800  0.35757500  1
  C  3191  1  0.52485000  0.93592900  0.37525400  1
  C  3195  1  0.53473200  0.94661500  0.33630600  1
  C  3197  1  0.41621900  0.96069900  0.32381900  1
  C  3199  1  0.94975100  0.07167600  0.83436200  1
  C  3201  1  0.98709900  0.05638200  0.81789300  1
  C  3202  1  0.00935000  0.06453100  0.82756900  1
  C  3204  1  0.97196200  0.07980700  0.84428500  1
  C  3206  1  0.96601900  0.09177100  0.85764300  1
  C  3209  1  0.93008500  0.08911700  0.87533600  1
  C  3213  1  0.92024300  0.07788700  0.83633300  1
  C  3215  1  0.03875100  0.06386100  0.82379500  1
  C  3217  1  0.77611900  0.73505800  0.08512000  1
  C  3219  1  0.75915800  0.77270300  0.06952500  1
  C  3220  1  0.76885000  0.79416400  0.07914500  1
  C  3222  1  0.78583100  0.75645900  0.09497000  1
  C  3224  1  0.79937100  0.74990100  0.10789700  1
  C  3227  1  0.79365200  0.71568000  0.12588500  1
  C  3231  1  0.78243800  0.70587900  0.08664200  1
  C  3233  1  0.76760700  0.82331800  0.07572700  1
  C  3235  1  0.67900000  0.28944800  0.58511000  1
  C  3237  1  0.69542900  0.25176300  0.56939600  1
  C  3238  1  0.68605200  0.23032800  0.57910600  1
  C  3240  1  0.66963000  0.26808000  0.59506000  1
  C  3242  1  0.65649200  0.27461800  0.60808000  1
  C  3245  1  0.66052600  0.31016900  0.62559400  1
  C  3249  1  0.67258400  0.31860500  0.58658500  1
  C  3251  1  0.68719500  0.20116300  0.57569800  1
  C  3253  1  0.67754200  0.73476100  0.74896800  1
  C  3255  1  0.69623800  0.77151200  0.76465700  1
  C  3256  1  0.68693900  0.79352600  0.75525800  1
  C  3258  1  0.66822100  0.75674100  0.73934900  1
  C  3260  1  0.65425300  0.75107100  0.72645700  1
  C  3263  1  0.65868300  0.71755900  0.70799800  1
  C  3267  1  0.67068400  0.70571600  0.74717400  1
  C  3269  1  0.68943800  0.82259300  0.75877200  1
  C  3271  1  0.77745200  0.28973300  0.24898400  1
  C  3273  1  0.75890800  0.25299000  0.26472000  1
  C  3274  1  0.76809400  0.23097600  0.25529600  1
  C  3276  1  0.78665300  0.26775700  0.23933400  1
  C  3278  1  0.80040400  0.27348100  0.22637300  1
  C  3281  1  0.79679300  0.30704600  0.20791200  1
  C  3285  1  0.78425100  0.31878400  0.24715200  1
  C  3287  1  0.76558100  0.20190700  0.25880400  1
  C  3289  1  0.44498400  0.45709600  0.00076504  1
  C  3291  1  0.48372300  0.47374000  0.01606900  1
  C  3292  1  0.50518900  0.46469300  0.00614404  1
  C  3294  1  0.46639000  0.44806700  0.99060400  1
  C  3296  1  0.45934700  0.43513500  0.97762100  1
  C  3299  1  0.42406400  0.44074300  0.95984700  1
  C  3303  1  0.41528200  0.45097400  0.99941400  1
  C  3305  1  0.53493600  0.46625800  0.00920304  1
  C  3307  1  0.00996500  0.56724000  0.50076700  1
  C  3309  1  0.97118500  0.55103200  0.51616600  1
  C  3310  1  0.94974800  0.55980900  0.50616700  1
  C  3312  1  0.98859700  0.57597000  0.49051700  1
  C  3314  1  0.99561600  0.58855900  0.47745800  1
  C  3317  1  0.03226500  0.58482800  0.46016100  1
  C  3321  1  0.03964200  0.57346600  0.49946700  1
  C  3323  1  0.91998800  0.55829300  0.50921100  1
  C  3325  1  0.00908800  0.45639900  0.83441300  1
  C  3327  1  0.97084400  0.47022200  0.81811800  1
  C  3328  1  0.94909000  0.46263600  0.82818900  1
  C  3330  1  0.98738800  0.44889600  0.84473900  1
  C  3332  1  0.99398800  0.43788500  0.85822000  1
  C  3335  1  0.03114900  0.44214200  0.87522700  1
  C  3339  1  0.03870600  0.45035000  0.83613000  1
  C  3341  1  0.91951200  0.46288800  0.82471500  1
  C  3343  1  0.44586200  0.56813300  0.33442600  1
  C  3345  1  0.48407800  0.55439300  0.31810300  1
  C  3346  1  0.50584300  0.56191600  0.32817800  1
  C  3348  1  0.46756600  0.57555700  0.34476500  1
  C  3350  1  0.46093000  0.58640000  0.35829300  1
  C  3353  1  0.42377700  0.58297200  0.37533300  1
  C  3357  1  0.41623400  0.57411400  0.33618300  1
  C  3359  1  0.53542300  0.56163500  0.32470800  1
  C  3361  1  0.94376900  0.10296600  0.22814100  1
  C  3363  1  0.98148000  0.07876300  0.24136900  1
  C  3364  1  0.00330900  0.09202200  0.23301500  1
  C  3366  1  0.96564900  0.11644700  0.21968200  1
  C  3368  1  0.95968900  0.13460200  0.20832100  1
  C  3371  1  0.93781500  0.17899000  0.20573600  1
  C  3375  1  0.91402100  0.10615300  0.22565700  1
  C  3377  1  0.03251200  0.08465300  0.23408200  1
  C  3379  1  0.51119000  0.92149800  0.72814300  1
  C  3381  1  0.47351100  0.94601400  0.74125200  1
  C  3382  1  0.45166300  0.93256700  0.73299100  1
  C  3384  1  0.48929000  0.90779900  0.71978200  1
  C  3386  1  0.49516600  0.88932300  0.70856200  1
  C  3389  1  0.51906800  0.84588800  0.70554300  1
  C  3393  1  0.54094000  0.91838500  0.72563300  1
  C  3395  1  0.42246000  0.93996600  0.73402500  1
  C  3397  1  0.13928600  0.72995700  0.47970300  1
  C  3399  1  0.16507600  0.76691500  0.49249200  1
  C  3400  1  0.15094200  0.78851900  0.48449500  1
  C  3402  1  0.12488700  0.75161200  0.47160500  1
  C  3404  1  0.10536900  0.74594100  0.46067800  1
  C  3407  1  0.06133100  0.72194900  0.45800200  1
  C  3411  1  0.13591600  0.70068300  0.47718700  1
  C  3413  1  0.15870100  0.81722800  0.48544800  1
  C  3415  1  0.31549400  0.29456300  0.97972100  1
  C  3417  1  0.28981400  0.25759000  0.99254900  1
  C  3418  1  0.30393200  0.23599400  0.98453800  1
  C  3420  1  0.32986400  0.27291800  0.97160800  1
  C  3422  1  0.34935400  0.27864400  0.96066300  1
  C  3425  1  0.39358400  0.30201000  0.95782700  1
  C  3429  1  0.31891100  0.32383500  0.97721800  1
  C  3431  1  0.29625400  0.20726600  0.98553500  1
  C  3433  1  0.51072700  0.10214600  0.60690800  1
  C  3435  1  0.47264800  0.07708500  0.59433700  1
  C  3436  1  0.45100700  0.09143000  0.60234400  1
  C  3438  1  0.48901600  0.11681700  0.61498400  1
  C  3440  1  0.49519400  0.13640700  0.62571500  1
  C  3443  1  0.52111500  0.17888900  0.62771200  1
  C  3447  1  0.54053700  0.10462400  0.60953000  1
  C  3449  1  0.42168600  0.08442000  0.60142400  1
  C  3451  1  0.94430100  0.92237900  0.10693400  1
  C  3453  1  0.98233900  0.94790700  0.09456500  1
  C  3454  1  0.00400400  0.93324700  0.10240600  1
  C  3456  1  0.96603600  0.90734300  0.11482800  1
  C  3458  1  0.95994100  0.88727900  0.12533200  1
  C  3461  1  0.93180700  0.84607600  0.12778200  1
  C  3465  1  0.91450600  0.92001400  0.10961800  1
  C  3467  1  0.03332600  0.94028400  0.10152700  1
  C  3469  1  0.31491100  0.73094900  0.35549600  1
  C  3471  1  0.28827700  0.76830000  0.34342300  1
  C  3472  1  0.30362100  0.78969100  0.35100300  1
  C  3474  1  0.33064700  0.75240500  0.36312400  1
  C  3476  1  0.35163800  0.74647800  0.37335200  1
  C  3479  1  0.39341900  0.71849000  0.37544500  1
  C  3483  1  0.31742800  0.70163600  0.35821500  1
  C  3485  1  0.29628500  0.81852200  0.35021500  1
  C  3487  1  0.14015600  0.29353900  0.85547100  1
  C  3489  1  0.16671100  0.25620400  0.84334700  1
  C  3490  1  0.15141700  0.23480700  0.85094500  1
  C  3492  1  0.12448400  0.27207600  0.86312700  1
  C  3494  1  0.10350400  0.27803700  0.87337100  1
  C  3497  1  0.06163800  0.30569000  0.87579100  1
  C  3501  1  0.13756000  0.32285100  0.85817000  1
  C  3503  1  0.15870000  0.20596500  0.85010800  1
  C  3505  1  0.81926500  0.29446900  0.85627100  1
  C  3507  1  0.79448300  0.25736300  0.84311000  1
  C  3508  1  0.80821800  0.23582500  0.85132600  1
  C  3510  1  0.83323600  0.27287800  0.86459000  1
  C  3512  1  0.85196600  0.27869600  0.87584700  1
  C  3515  1  0.89704700  0.30040200  0.87822300  1
  C  3519  1  0.82249100  0.32376600  0.85879400  1
  C  3521  1  0.80068700  0.20707100  0.85024100  1
  C  3523  1  0.63569100  0.73005100  0.35628000  1
  C  3525  1  0.66079300  0.76711800  0.34323500  1
  C  3526  1  0.64684300  0.78868100  0.35134200  1
  C  3528  1  0.62147500  0.75166800  0.36448400  1
  C  3530  1  0.60239900  0.74593700  0.37558900  1
  C  3533  1  0.55830100  0.72220400  0.37839000  1
  C  3537  1  0.63255700  0.70075600  0.35884400  1
  C  3539  1  0.65438700  0.81743300  0.35027000  1
  C  3541  1  0.63608700  0.29323500  0.97758500  1
  C  3543  1  0.66211300  0.25558000  0.98974300  1
  C  3544  1  0.64700800  0.23437300  0.98191800  1
  C  3546  1  0.62058000  0.27196000  0.96971500  1
  C  3548  1  0.59997500  0.27814600  0.95933800  1
  C  3551  1  0.55838100  0.30633600  0.95716200  1
  C  3555  1  0.63383500  0.32260100  0.97494100  1
  C  3557  1  0.65416100  0.20549300  0.98269600  1
  C  3559  1  0.81878500  0.73126500  0.47759700  1
  C  3561  1  0.79284200  0.76891200  0.48980200  1
  C  3562  1  0.80791200  0.79012500  0.48196400  1
  C  3564  1  0.83424200  0.75254200  0.46970600  1
  C  3566  1  0.85484400  0.74631800  0.45931800  1
  C  3569  1  0.89649500  0.71842100  0.45680700  1
  C  3573  1  0.82110200  0.70190200  0.47497200  1
  C  3575  1  0.80082100  0.81901800  0.48278700  1
  C  3577  1  0.44955100  0.60598100  0.72564800  1
  C  3579  1  0.48719000  0.58114800  0.73864200  1
  C  3580  1  0.50912100  0.59549800  0.73082600  1
  C  3582  1  0.47153500  0.62059100  0.71775000  1
  C  3584  1  0.46567100  0.63983000  0.70684700  1
  C  3587  1  0.44376200  0.68439000  0.70559900  1
  C  3591  1  0.41978600  0.60920300  0.72313900  1
  C  3593  1  0.53837500  0.58831100  0.73198800  1
  C  3595  1  0.00539100  0.41851900  0.22565100  1
  C  3597  1  0.96777500  0.44363200  0.23853000  1
  C  3598  1  0.94582900  0.42909200  0.23081500  1
  C  3600  1  0.98339300  0.40369100  0.21786100  1
  C  3602  1  0.98918400  0.38415700  0.20710600  1
  C  3605  1  0.01300800  0.34044600  0.20543800  1
  C  3609  1  0.03515400  0.41537400  0.22311100  1
  C  3611  1  0.91657300  0.43629400  0.23195100  1
  C  3613  1  0.00111700  0.60483900  0.10858400  1
  C  3615  1  0.96304700  0.57871100  0.09656700  1
  C  3616  1  0.94140600  0.59329700  0.10446400  1
  C  3618  1  0.97940000  0.61983900  0.11650900  1
  C  3620  1  0.98556700  0.64030500  0.12679400  1
  C  3623  1  0.01311900  0.68199900  0.12824500  1
  C  3627  1  0.03095600  0.60738800  0.11113900  1
  C  3629  1  0.91207600  0.58627600  0.10352600  1
  C  3631  1  0.45385000  0.41975300  0.60858000  1
  C  3633  1  0.49194400  0.44576800  0.59652100  1
  C  3634  1  0.51357100  0.43120100  0.60443700  1
  C  3636  1  0.47555000  0.40478600  0.61653000  1
  C  3638  1  0.46932300  0.38433200  0.62682700  1
  C  3641  1  0.44214300  0.34252600  0.62857300  1
  C  3645  1  0.42400300  0.41714900  0.61110100  1
  C  3647  1  0.54291600  0.43815000  0.60346600  1
  C  3649  1  0.13108600  0.00590900  0.15160900  1
  C  3651  1  0.15912800  0.00762600  0.17353300  1
  C  3652  1  0.14205100  0.03029400  0.17898600  1
  C  3654  1  0.11387800  0.02891600  0.15696200  1
  C  3656  1  0.09011800  0.04013200  0.14975700  1
  C  3659  1  0.04796200  0.02369700  0.13856500  1
  C  3663  1  0.12597700  0.99297100  0.13826400  1
  C  3665  1  0.14607300  0.04251900  0.19256800  1
  C  3667  1  0.32396900  0.01866500  0.65160900  1
  C  3669  1  0.29578700  0.01682400  0.67348700  1
  C  3670  1  0.31293300  0.99423400  0.67896900  1
  C  3672  1  0.34126100  0.99574600  0.65699400  1
  C  3674  1  0.36508300  0.98460200  0.64985100  1
  C  3677  1  0.40667600  0.00110000  0.63808600  1
  C  3681  1  0.32904900  0.03158600  0.63826100  1
  C  3683  1  0.30887700  0.98198300  0.69254300  1
  C  3685  1  0.23283900  0.91458500  0.40155200  1
  C  3687  1  0.23307300  0.94185800  0.42358100  1
  C  3688  1  0.21047800  0.92502800  0.42944500  1
  C  3690  1  0.20989300  0.89761700  0.40732100  1
  C  3692  1  0.19775900  0.87446300  0.40027400  1
  C  3695  1  0.21322400  0.83388900  0.38779300  1
  C  3699  1  0.24483300  0.90978700  0.38793700  1
  C  3701  1  0.19922100  0.92885300  0.44327300  1
  C  3703  1  0.22215500  0.10995300  0.90153200  1
  C  3705  1  0.22201400  0.08262000  0.92354100  1
  C  3706  1  0.24452200  0.09953600  0.92942700  1
  C  3708  1  0.24502900  0.12699200  0.90731600  1
  C  3710  1  0.25698200  0.15028000  0.90027700  1
  C  3713  1  0.24188800  0.19085600  0.88774300  1
  C  3717  1  0.21016600  0.11473900  0.88791400  1
  C  3719  1  0.25579100  0.09570900  0.94325400  1
  C  3721  1  0.81355700  0.01772200  0.18308900  1
  C  3723  1  0.78942500  0.01936600  0.16006700  1
  C  3724  1  0.80418000  0.99458900  0.15533500  1
  C  3726  1  0.82828400  0.99252600  0.17848200  1
  C  3728  1  0.84888800  0.97838800  0.18669500  1
  C  3731  1  0.89072800  0.98915000  0.19976400  1
  C  3735  1  0.81810000  0.03017900  0.19658000  1
  C  3737  1  0.80121300  0.98312700  0.14154300  1
  C  3739  1  0.64138900  0.00678500  0.68308900  1
  C  3741  1  0.66566300  0.00523100  0.66010200  1
  C  3742  1  0.65084000  0.02995400  0.65535100  1
  C  3744  1  0.62658100  0.03192200  0.67846200  1
  C  3746  1  0.60592300  0.04601800  0.68662300  1
  C  3749  1  0.56476100  0.03513000  0.70026100  1
  C  3753  1  0.63687800  0.99433700  0.69658300  1
  C  3755  1  0.65384000  0.04143900  0.64156400  1
  C  3757  1  0.72018600  0.10964500  0.93230500  1
  C  3759  1  0.72202000  0.08205000  0.91038500  1
  C  3760  1  0.74492000  0.09899200  0.90489300  1
  C  3762  1  0.74340100  0.12675400  0.92690400  1
  C  3764  1  0.75474100  0.15013800  0.93408900  1
  C  3767  1  0.73795600  0.19076300  0.94610700  1
  C  3771  1  0.70715400  0.11449500  0.94569700  1
  C  3773  1  0.75735600  0.09503700  0.89130600  1
  C  3775  1  0.73478400  0.91483300  0.43232500  1
  C  3777  1  0.73284500  0.94251000  0.41043400  1
  C  3778  1  0.71002800  0.92548800  0.40491700  1
  C  3780  1  0.71163900  0.89766000  0.42690800  1
  C  3782  1  0.70048300  0.87413800  0.43407200  1
  C  3785  1  0.71691000  0.83349300  0.44613800  1
  C  3789  1  0.74781800  0.90998200  0.44571800  1
  C  3791  1  0.69757200  0.92945600  0.39133500  1
  C  3793  1  0.64140200  0.50458000  0.65188200  1
  C  3795  1  0.66666667  0.50723800  0.67459900  1
  C  3796  1  0.64903100  0.53017700  0.67926500  1
  C  3798  1  0.62345100  0.52768300  0.65646500  1
  C  3800  1  0.60110800  0.53888100  0.64820700  1
  C  3803  1  0.56209200  0.52240200  0.63450600  1
  C  3807  1  0.64031300  0.49242900  0.63813000  1
  C  3809  1  0.65203600  0.54326600  0.69271600  1
  C  3811  1  0.81361800  0.51996900  0.15190800  1
  C  3813  1  0.78820900  0.51717600  0.17458000  1
  C  3814  1  0.80590600  0.49430900  0.17926800  1
  C  3816  1  0.83164400  0.49694300  0.15651400  1
  C  3818  1  0.85405300  0.48580300  0.14831300  1
  C  3821  1  0.89233900  0.50229500  0.13404800  1
  C  3825  1  0.81463700  0.53207500  0.13814800  1
  C  3827  1  0.80286200  0.48118500  0.19270800  1
  C  3829  1  0.73300600  0.42192100  0.90172000  1
  C  3831  1  0.73438000  0.44632000  0.92458600  1
  C  3832  1  0.70969300  0.43126300  0.92954000  1
  C  3834  1  0.70791100  0.40684900  0.90656500  1
  C  3836  1  0.69385500  0.38608900  0.89856800  1
  C  3839  1  0.70530700  0.34536200  0.88518200  1
  C  3843  1  0.74546600  0.41752100  0.88816000  1
  C  3845  1  0.69802700  0.43441000  0.94332900  1
  C  3847  1  0.72198300  0.60256200  0.40169400  1
  C  3849  1  0.72068800  0.57809300  0.42454000  1
  C  3850  1  0.74530700  0.59323300  0.42951200  1
  C  3852  1  0.74702200  0.61770500  0.40655000  1
  C  3854  1  0.76091400  0.63861400  0.39856200  1
  C  3857  1  0.74985900  0.67935700  0.38515800  1
  C  3861  1  0.70952100  0.60695600  0.38813100  1
  C  3863  1  0.75698900  0.59007700  0.44330000  1
  C  3865  1  0.31990600  0.51995200  0.68277400  1
  C  3867  1  0.29665600  0.51916500  0.65950600  1
  C  3868  1  0.31300100  0.49507000  0.65518800  1
  C  3870  1  0.33646600  0.49560200  0.67855600  1
  C  3872  1  0.35705900  0.48273100  0.68728500  1
  C  3875  1  0.39712100  0.49541800  0.70127200  1
  C  3879  1  0.32068000  0.53206900  0.69653900  1
  C  3881  1  0.31055700  0.48255700  0.64158300  1
  C  3883  1  0.13493100  0.50456100  0.18274200  1
  C  3885  1  0.15831400  0.50544200  0.15950600  1
  C  3886  1  0.14194500  0.52950900  0.15517900  1
  C  3888  1  0.11834500  0.52888900  0.17851400  1
  C  3890  1  0.09772900  0.54175500  0.18720000  1
  C  3893  1  0.05849300  0.52894700  0.20178900  1
  C  3897  1  0.13421200  0.49247200  0.19651100  1
  C  3899  1  0.14444100  0.54206700  0.14158500  1
  C  3901  1  0.22315700  0.60222200  0.43326600  1
  C  3903  1  0.22055900  0.57793700  0.41041300  1
  C  3904  1  0.24504400  0.59295500  0.40520200  1
  C  3906  1  0.24806100  0.61724300  0.42816500  1
  C  3908  1  0.26251200  0.63796000  0.43601300  1
  C  3911  1  0.25169600  0.67866800  0.44953800  1
  C  3915  1  0.21131000  0.60662300  0.44693700  1
  C  3917  1  0.25588200  0.58999600  0.39125600  1
  C  3919  1  0.23172600  0.42231700  0.93327000  1
  C  3921  1  0.23421900  0.44670000  0.91044400  1
  C  3922  1  0.20982800  0.43156800  0.90520700  1
  C  3924  1  0.20690200  0.40719300  0.92815300  1
  C  3926  1  0.19264000  0.38629500  0.93598500  1
  C  3929  1  0.20311700  0.34556500  0.94950500  1
  C  3933  1  0.24356800  0.41792000  0.94694200  1
  C  3935  1  0.19896900  0.43454500  0.89126500  1
  C  3937  1  0.27638900  0.03101800  0.30242400  1
  C  3939  1  0.23001100  0.02873300  0.29036500  1
  C  3940  1  0.23309500  0.05679400  0.28489600  1
  C  3942  1  0.27980200  0.05933300  0.29692700  1
  C  3944  1  0.30392100  0.07613700  0.29983800  1
  C  3947  1  0.35436600  0.07246500  0.30203200  1
  C  3951  1  0.29539800  0.01818600  0.31234700  1
  C  3953  1  0.21072700  0.07074700  0.27749600  1
  C  3955  1  0.17851100  0.99352900  0.80236300  1
  C  3957  1  0.22495200  0.99578700  0.79035700  1
  C  3958  1  0.22187000  0.96773200  0.78488200  1
  C  3960  1  0.17509800  0.96521900  0.79685800  1
  C  3962  1  0.15103100  0.94837700  0.79973500  1
  C  3965  1  0.10072400  0.95225800  0.80280200  1
  C  3969  1  0.15956200  0.00635600  0.81231200  1
  C  3971  1  0.24424600  0.95376500  0.77749500  1
  C  3973  1  0.20986600  0.06344700  0.55233600  1
  C  3975  1  0.21424600  0.01728700  0.54092900  1
  C  3976  1  0.18592200  0.01912100  0.53508000  1
  C  3978  1  0.18128400  0.06561400  0.54644500  1
  C  3980  1  0.16327100  0.08886000  0.54884400  1
  C  3983  1  0.16589200  0.13841700  0.55188200  1
  C  3987  1  0.22169200  0.08276700  0.56233900  1
  C  3989  1  0.17277300  0.99624400  0.52786300  1
  C  3991  1  0.24515300  0.96110100  0.05233800  1
  C  3993  1  0.24085500  0.00736500  0.04103700  1
  C  3994  1  0.26909800  0.00544700  0.03510200  1
  C  3996  1  0.27364300  0.95882800  0.04634800  1
  C  3998  1  0.29148500  0.93537300  0.04861400  1
  C  4001  1  0.28910900  0.88584800  0.05169100  1
  C  4005  1  0.23334100  0.94170600  0.06230900  1
  C  4007  1  0.28225600  0.02830100  0.02786700  1
  C  4009  1  0.67262700  0.99389900  0.03187800  1
  C  4011  1  0.71994600  0.99487400  0.04301400  1
  C  4012  1  0.71578200  0.96758000  0.04924000  1
  C  4014  1  0.66811900  0.96637200  0.03813900  1
  C  4016  1  0.64284100  0.95071600  0.03616700  1
  C  4019  1  0.59270400  0.95777200  0.03470900  1
  C  4023  1  0.65326200  0.00692700  0.02221300  1
  C  4025  1  0.73777700  0.95338700  0.05678500  1
  C  4027  1  0.78246200  0.03057200  0.53195000  1
  C  4029  1  0.73501700  0.02968300  0.54295800  1
  C  4030  1  0.73920100  0.05693400  0.54923000  1
  C  4032  1  0.78699700  0.05805000  0.53826100  1
  C  4034  1  0.81227900  0.07368400  0.53638600  1
  C  4037  1  0.86233100  0.06641700  0.53414400  1
  C  4041  1  0.80186300  0.01756600  0.52229900  1
  C  4043  1  0.71719000  0.07114400  0.55675700  1
  C  4045  1  0.74604000  0.95876200  0.78649000  1
  C  4047  1  0.75749300  0.00906400  0.78744500  1
  C  4048  1  0.77643200  0.00518200  0.79929800  1
  C  4050  1  0.76515100  0.95456500  0.79840300  1
  C  4052  1  0.77116500  0.92791700  0.80407500  1
  C  4055  1  0.78368400  0.88178800  0.79652800  1
  C  4059  1  0.72862600  0.93725000  0.78041100  1
  C  4061  1  0.79189000  0.02783600  0.80555100  1
  C  4063  1  0.70903700  0.06569300  0.28652000  1
  C  4065  1  0.69769900  0.01537800  0.28754300  1
  C  4066  1  0.67859600  0.01931100  0.29932900  1
  C  4068  1  0.68978000  0.06994000  0.29837000  1
  C  4070  1  0.68356700  0.09667200  0.30390900  1
  C  4073  1  0.67020600  0.14265800  0.29657300  1
  C  4077  1  0.72641800  0.08722500  0.28043800  1
  C  4079  1  0.66313000  0.99666300  0.30558100  1
  C  4081  1  0.78062500  0.53432700  0.80252600  1
  C  4083  1  0.73431000  0.53148500  0.79045500  1
  C  4084  1  0.73736000  0.55934300  0.78472400  1
  C  4086  1  0.78402500  0.56242900  0.79676600  1
  C  4088  1  0.80816400  0.57933500  0.79949300  1
  C  4091  1  0.85855700  0.57547600  0.80183900  1
  C  4095  1  0.79982100  0.52184800  0.81246200  1
  C  4097  1  0.71506200  0.57296300  0.77711300  1
  C  4099  1  0.67421800  0.49019300  0.30247400  1
  C  4101  1  0.72061200  0.49301100  0.29047000  1
  C  4102  1  0.71757500  0.46515900  0.28473200  1
  C  4104  1  0.67082900  0.46209700  0.29670200  1
  C  4106  1  0.64673800  0.44515200  0.29938800  1
  C  4109  1  0.59650200  0.44921000  0.30262100  1
  C  4113  1  0.65501600  0.50265200  0.31240700  1
  C  4115  1  0.73988600  0.45153200  0.27713300  1
  C  4117  1  0.70859500  0.56865900  0.04783800  1
  C  4119  1  0.69521600  0.51883600  0.04703500  1
  C  4120  1  0.67675300  0.52322500  0.03504000  1
  C  4122  1  0.68995600  0.57336800  0.03579400  1
  C  4124  1  0.68506500  0.60009900  0.02998000  1
  C  4127  1  0.67113400  0.64655900  0.03655600  1
  C  4131  1  0.72674600  0.58959600  0.05386400  1
  C  4133  1  0.66088300  0.50101000  0.02865900  1
  C  4135  1  0.74623300  0.45595200  0.54783500  1
  C  4137  1  0.75949300  0.50579500  0.54694800  1
  C  4138  1  0.77814700  0.50132600  0.53503200  1
  C  4140  1  0.76504900  0.45116900  0.53586900  1
  C  4142  1  0.77015300  0.42433300  0.53020500  1
  C  4145  1  0.78532700  0.37815700  0.53652000  1
  C  4149  1  0.72809600  0.43500900  0.55385800  1
  C  4151  1  0.79403900  0.52352700  0.52865100  1
  C  4153  1  0.17970200  0.49062500  0.53317600  1
  C  4155  1  0.22685900  0.49317800  0.54444800  1
  C  4156  1  0.22383300  0.46552500  0.55042700  1
  C  4158  1  0.17633900  0.46273200  0.53919100  1
  C  4160  1  0.15178500  0.44612100  0.53699600  1
  C  4163  1  0.10144100  0.45136400  0.53545400  1
  C  4167  1  0.16015900  0.50307500  0.52339000  1
  C  4169  1  0.24642400  0.45194900  0.55784700  1
  C  4171  1  0.27535000  0.53380900  0.03325600  1
  C  4173  1  0.22806300  0.53139700  0.04440700  1
  C  4174  1  0.23116300  0.55899100  0.05044500  1
  C  4176  1  0.27879500  0.56163800  0.03933600  1
  C  4178  1  0.30338000  0.57819300  0.03723800  1
  C  4181  1  0.35364400  0.57269200  0.03491700  1
  C  4185  1  0.29483500  0.52136500  0.02344500  1
  C  4187  1  0.20857500  0.57261300  0.05784500  1
  C  4189  1  0.24484800  0.45791700  0.28241200  1
  C  4191  1  0.24161000  0.50491000  0.29297700  1
  C  4192  1  0.26942400  0.50232700  0.29932900  1
  C  4194  1  0.27288300  0.45497100  0.28882700  1
  C  4196  1  0.28992900  0.43078800  0.28719100  1
  C  4199  1  0.28457500  0.38128700  0.28507100  1
  C  4203  1  0.23279700  0.43833800  0.27263600  1
  C  4205  1  0.28279000  0.52497000  0.30661400  1
  C  4207  1  0.21007600  0.56655800  0.78238900  1
  C  4209  1  0.21325700  0.51950700  0.79288600  1
  C  4210  1  0.18550000  0.52213900  0.79929500  1
  C  4212  1  0.18211000  0.56956800  0.78886800  1
  C  4214  1  0.16521100  0.59390700  0.78732600  1
  C  4217  1  0.17021600  0.64339100  0.78511200  1
  C  4221  1  0.22212700  0.58619200  0.77264000  1
  C  4223  1  0.17213400  0.49950900  0.80659100  1
  N  8  1  0.06824300  0.06920200  0.03054200  1
  N  15  1  0.22114600  0.14809200  0.09386900  1
  N  17  1  0.09313100  0.11571100  0.07556400  1
  N  18  1  0.17213900  0.06209000  0.07735100  1
  N  27  1  0.17859800  0.18134100  0.07751300  1
  N  28  1  0.21476600  0.08941900  0.09494900  1
  N  29  1  0.05227200  0.09874500  0.05480800  1
  N  30  1  0.12563100  0.05738700  0.02587500  1
  N  38  1  0.38671500  0.95532600  0.53053300  1
  N  45  1  0.23386700  0.87642800  0.59389200  1
  N  47  1  0.36183100  0.90883200  0.57555800  1
  N  48  1  0.28283000  0.96243100  0.57734500  1
  N  57  1  0.27634500  0.84318300  0.57750400  1
  N  58  1  0.24021000  0.93510300  0.59494300  1
  N  59  1  0.40268500  0.92578700  0.55480700  1
  N  60  1  0.32932700  0.96715200  0.52586900  1
  N  68  1  0.17309800  0.85226000  0.28192600  1
  N  75  1  0.09402900  0.00493400  0.34394900  1
  N  77  1  0.12777100  0.87756300  0.32733000  1
  N  78  1  0.18180900  0.95599300  0.32841900  1
  N  87  1  0.06071400  0.96216600  0.32811900  1
  N  88  1  0.15356000  0.99904500  0.34532600  1
  N  89  1  0.14399600  0.83690800  0.30654800  1
  N  90  1  0.18463100  0.90868000  0.27684300  1
  N  98  1  0.28182300  0.17231100  0.78195200  1
  N  105  1  0.36096300  0.01956900  0.84392200  1
  N  107  1  0.32718600  0.14693900  0.82733900  1
  N  108  1  0.27318000  0.06852800  0.82840500  1
  N  117  1  0.39427500  0.06235800  0.82810200  1
  N  118  1  0.30143200  0.02548100  0.84531400  1
  N  119  1  0.31091800  0.18763000  0.80657700  1
  N  120  1  0.27036800  0.11588900  0.77682700  1
  N  128  1  0.38420900  0.07256200  0.46034000  1
  N  135  1  0.24120300  0.14913300  0.39111500  1
  N  137  1  0.36228900  0.11668200  0.41435100  1
  N  138  1  0.28909200  0.06365000  0.40895700  1
  N  147  1  0.27679700  0.18229800  0.41135500  1
  N  148  1  0.24905000  0.08878300  0.39085100  1
  N  149  1  0.40207500  0.09923500  0.43548700  1
  N  150  1  0.32542100  0.05857000  0.46345000  1
  N  158  1  0.07083500  0.95201800  0.96035000  1
  N  165  1  0.21380300  0.87541000  0.89111300  1
  N  167  1  0.09272100  0.90787400  0.91436300  1
  N  168  1  0.16591000  0.96089200  0.90896900  1
  N  177  1  0.17826600  0.84224700  0.91136700  1
  N  178  1  0.20596800  0.93579000  0.89086900  1
  N  179  1  0.05295600  0.92532300  0.93549300  1
  N  180  1  0.12963800  0.96599100  0.96345100  1
  N  188  1  0.28584700  0.85511900  0.20907700  1
  N  195  1  0.36193500  0.99806800  0.14070900  1
  N  197  1  0.32839000  0.87763800  0.16266300  1
  N  198  1  0.27485600  0.95054100  0.15810500  1
  N  207  1  0.39533400  0.96249300  0.16060900  1
  N  208  1  0.30056500  0.99104000  0.14054500  1
  N  209  1  0.31185300  0.83799600  0.18384000  1
  N  210  1  0.27214800  0.91290900  0.21270900  1
  N  218  1  0.16923700  0.16941700  0.70902100  1
  N  225  1  0.09300200  0.02650800  0.64066400  1
  N  227  1  0.12660700  0.14685300  0.66263100  1
  N  228  1  0.18010800  0.07395500  0.65807200  1
  N  237  1  0.05962800  0.06204200  0.66058900  1
  N  238  1  0.15435200  0.03349700  0.64049300  1
  N  239  1  0.14319400  0.18651300  0.68379200  1
  N  240  1  0.18285400  0.11161000  0.71268300  1
  N  248  1  0.87934900  0.96611300  0.95613800  1
  N  255  1  0.72647400  0.87661800  0.89613900  1
  N  257  1  0.85412500  0.91426300  0.91266900  1
  N  258  1  0.77511900  0.96295500  0.91231700  1
  N  267  1  0.76886800  0.84369200  0.91265600  1
  N  268  1  0.73320000  0.93525500  0.89459800  1
  N  269  1  0.89550800  0.93685700  0.93145000  1
  N  270  1  0.82194100  0.96814400  0.96365100  1
  N  278  1  0.57566700  0.05851500  0.45620100  1
  N  285  1  0.72842800  0.14789400  0.39609000  1
  N  287  1  0.60082700  0.11018100  0.41266700  1
  N  288  1  0.67984200  0.06154700  0.41229800  1
  N  297  1  0.68610200  0.18080800  0.41264200  1
  N  298  1  0.72175500  0.08925200  0.39458000  1
  N  299  1  0.55947900  0.08756800  0.43148100  1
  N  300  1  0.63309400  0.05637400  0.46365600  1
  N  308  1  0.78509200  0.17150300  0.70860700  1
  N  315  1  0.86561700  0.02341900  0.64381100  1
  N  317  1  0.83219200  0.14727800  0.66352000  1
  N  318  1  0.77772400  0.06914200  0.66130100  1
  N  327  1  0.89909000  0.06177300  0.65961400  1
  N  328  1  0.80546000  0.02596700  0.64525100  1
  N  329  1  0.81515500  0.18741300  0.68436600  1
  N  330  1  0.77245400  0.11512500  0.71304100  1
  N  338  1  0.66987100  0.85298900  0.20861200  1
  N  345  1  0.58936500  0.00112800  0.14384000  1
  N  347  1  0.62280800  0.87724700  0.16352100  1
  N  348  1  0.67724600  0.95536900  0.16132200  1
  N  357  1  0.55588400  0.96279300  0.15965000  1
  N  358  1  0.64951600  0.99855100  0.14526900  1
  N  359  1  0.63984500  0.83709600  0.18435300  1
  N  360  1  0.68248500  0.90936600  0.21306600  1
  N  368  1  0.57680800  0.96147800  0.53174300  1
  N  375  1  0.73088500  0.87686400  0.59187600  1
  N  377  1  0.60028600  0.91476700  0.57696100  1
  N  378  1  0.67648500  0.96209800  0.57907000  1
  N  387  1  0.68617400  0.84317700  0.57715700  1
  N  388  1  0.72035700  0.93713900  0.59463800  1
  N  389  1  0.55973600  0.93689700  0.55753500  1
  N  390  1  0.63618100  0.96702400  0.52609300  1
  N  398  1  0.87813600  0.06303200  0.03172700  1
  N  405  1  0.72413700  0.14761000  0.09192600  1
  N  407  1  0.85471400  0.10974500  0.07695100  1
  N  408  1  0.77853700  0.06241200  0.07907500  1
  N  417  1  0.76879400  0.18133000  0.07718000  1
  N  418  1  0.73468600  0.08734100  0.09466500  1
  N  419  1  0.89523800  0.08758600  0.05751200  1
  N  420  1  0.81874400  0.05749400  0.02609500  1
  N  428  1  0.66531300  0.16861600  0.77887400  1
  N  435  1  0.58870900  0.03181400  0.85025100  1
  N  437  1  0.62189500  0.14687300  0.82516300  1
  N  438  1  0.67597900  0.07311400  0.82957300  1
  N  447  1  0.55491900  0.06189300  0.83052600  1
  N  448  1  0.65021400  0.03461000  0.84823100  1
  N  449  1  0.63881900  0.18613300  0.80391200  1
  N  450  1  0.67975700  0.11088300  0.77566700  1
  N  458  1  0.78958100  0.85585200  0.27891800  1
  N  465  1  0.86628900  0.99264100  0.35028100  1
  N  467  1  0.83308600  0.87762500  0.32518500  1
  N  468  1  0.77901000  0.95136800  0.32959500  1
  N  477  1  0.90006400  0.96263400  0.33051900  1
  N  478  1  0.80477700  0.98988100  0.34825200  1
  N  479  1  0.81610700  0.83835100  0.30394900  1
  N  480  1  0.77521300  0.91360400  0.27569100  1
  N  488  1  0.57477100  0.57337200  0.52904500  1
  N  495  1  0.72318500  0.65078400  0.59574600  1
  N  497  1  0.59880100  0.61991300  0.57415500  1
  N  498  1  0.67779400  0.56515300  0.57633200  1
  N  507  1  0.68660200  0.68454000  0.57898400  1
  N  508  1  0.71928800  0.59201500  0.59477200  1
  N  509  1  0.55834200  0.60304800  0.55321400  1
  N  510  1  0.63191100  0.55970000  0.52514800  1
  N  518  1  0.88015500  0.45112800  0.02905000  1
  N  525  1  0.73179500  0.37371400  0.09577600  1
  N  527  1  0.85614900  0.40463200  0.07417500  1
  N  528  1  0.77714300  0.45935400  0.07634700  1
  N  537  1  0.76839200  0.33996100  0.07901800  1
  N  538  1  0.73566700  0.43248800  0.09478900  1
  N  539  1  0.89659500  0.42148000  0.05323200  1
  N  540  1  0.82301700  0.46481300  0.02516100  1
  N  548  1  0.68103500  0.35745700  0.78397900  1
  N  555  1  0.58794200  0.50855700  0.84271300  1
  N  557  1  0.62719000  0.38196700  0.82714900  1
  N  558  1  0.67635700  0.45973500  0.82842000  1
  N  567  1  0.55517100  0.46520000  0.82709000  1
  N  568  1  0.64796200  0.50318400  0.84387100  1
  N  569  1  0.65057900  0.34132700  0.80843500  1
  N  570  1  0.68327600  0.41393700  0.77654500  1
  N  578  1  0.77394800  0.66703200  0.28394500  1
  N  585  1  0.86702400  0.51597900  0.34272800  1
  N  587  1  0.82770400  0.64254000  0.32714500  1
  N  588  1  0.77859300  0.56475900  0.32840500  1
  N  597  1  0.89977700  0.55929400  0.32708500  1
  N  598  1  0.80699500  0.52133100  0.34387400  1
  N  599  1  0.80429500  0.68317100  0.30842100  1
  N  600  1  0.77174600  0.61055000  0.27651100  1
  N  608  1  0.87226200  0.57287800  0.96195400  1
  N  615  1  0.72516600  0.65122100  0.89578900  1
  N  617  1  0.85428100  0.61910300  0.91599200  1
  N  618  1  0.77715400  0.56590800  0.91094300  1
  N  627  1  0.76555700  0.68509800  0.91033300  1
  N  628  1  0.73366900  0.59056700  0.89489200  1
  N  629  1  0.89234100  0.60074000  0.93769900  1
  N  630  1  0.81259000  0.55965300  0.96366600  1
  N  638  1  0.58268300  0.45169100  0.46193300  1
  N  645  1  0.72976700  0.37332900  0.39573400  1
  N  647  1  0.60069000  0.40530500  0.41601200  1
  N  648  1  0.67774800  0.45857600  0.41095700  1
  N  657  1  0.68950200  0.33940300  0.41034000  1
  N  658  1  0.72124600  0.43398000  0.39489400  1
  N  659  1  0.56261800  0.42374900  0.43770000  1
  N  660  1  0.64237600  0.46484700  0.46366100  1
  N  668  1  0.77945200  0.35929400  0.70793700  1
  N  675  1  0.86621900  0.50097600  0.64152400  1
  N  677  1  0.82603200  0.38229900  0.66250100  1
  N  678  1  0.77814300  0.45539200  0.65897700  1
  N  687  1  0.89887500  0.46546700  0.66160900  1
  N  688  1  0.80492700  0.49436000  0.64094200  1
  N  689  1  0.80376200  0.34238700  0.68198900  1
  N  690  1  0.77317200  0.41771100  0.71344900  1
  N  698  1  0.67564900  0.66520400  0.20788600  1
  N  705  1  0.58869200  0.52358000  0.14149800  1
  N  707  1  0.62889000  0.64219100  0.16249400  1
  N  708  1  0.67679000  0.56910600  0.15895800  1
  N  717  1  0.55605600  0.55904800  0.16160400  1
  N  718  1  0.64998600  0.53015100  0.14091900  1
  N  719  1  0.65119000  0.68210900  0.18196000  1
  N  720  1  0.68181700  0.60678300  0.21342600  1
  N  728  1  0.38854300  0.46340400  0.45715700  1
  N  735  1  0.24027900  0.37392500  0.39404000  1
  N  737  1  0.36387600  0.41131600  0.41371600  1
  N  738  1  0.28331000  0.46040400  0.41375200  1
  N  747  1  0.27812600  0.34088600  0.41041900  1
  N  748  1  0.24261600  0.43280900  0.39526000  1
  N  749  1  0.40499200  0.43366000  0.43269800  1
  N  750  1  0.33107500  0.46660000  0.46422600  1
  N  758  1  0.06643800  0.56111200  0.95710900  1
  N  765  1  0.21484800  0.65058300  0.89407500  1
  N  767  1  0.09112800  0.61336600  0.91372200  1
  N  768  1  0.17160400  0.56416500  0.91373600  1
  N  777  1  0.17704400  0.68366900  0.91045500  1
  N  778  1  0.21239800  0.59170000  0.89528300  1
  N  779  1  0.04999600  0.59099000  0.93267800  1
  N  780  1  0.12389300  0.55795400  0.96420300  1
  N  788  1  0.27186500  0.66697900  0.20541000  1
  N  795  1  0.36221100  0.51996500  0.14298400  1
  N  797  1  0.32189800  0.64196000  0.16121200  1
  N  798  1  0.27372800  0.56211200  0.16221300  1
  N  807  1  0.39523000  0.55814400  0.15913700  1
  N  808  1  0.30231700  0.52178000  0.14404000  1
  N  809  1  0.30014100  0.68281800  0.18027100  1
  N  810  1  0.27037400  0.61054800  0.21303700  1
  N  818  1  0.18305900  0.35754700  0.70542400  1
  N  825  1  0.09273500  0.50454400  0.64298000  1
  N  827  1  0.13309700  0.38251200  0.66119800  1
  N  828  1  0.18120800  0.46236000  0.66219800  1
  N  837  1  0.05971300  0.46638000  0.65913900  1
  N  838  1  0.15262700  0.50270500  0.64402600  1
  N  839  1  0.15489500  0.34167800  0.68027000  1
  N  840  1  0.18449300  0.41398200  0.71304500  1
  N  848  1  0.07391500  0.45787400  0.02951600  1
  N  855  1  0.20898100  0.37327300  0.10057600  1
  N  857  1  0.09245600  0.41083700  0.07522600  1
  N  858  1  0.16734200  0.45905500  0.07964800  1
  N  867  1  0.17862000  0.33982400  0.08074400  1
  N  868  1  0.20523200  0.43382200  0.09878700  1
  N  869  1  0.05406600  0.43372600  0.05506300  1
  N  870  1  0.13438900  0.46478100  0.02599800  1
  N  878  1  0.38099800  0.56662200  0.52952300  1
  N  885  1  0.24587000  0.65123100  0.60056000  1
  N  887  1  0.36252400  0.61374900  0.57521600  1
  N  888  1  0.28765700  0.56549500  0.57965300  1
  N  897  1  0.27620800  0.68470600  0.58072700  1
  N  898  1  0.24969600  0.59066800  0.59877000  1
  N  899  1  0.40088300  0.59080000  0.55504300  1
  N  900  1  0.32051100  0.55976500  0.52601400  1
  N  908  1  0.17776000  0.66520800  0.28248500  1
  N  915  1  0.09425400  0.52659300  0.35125700  1
  N  917  1  0.13366500  0.64208000  0.32851300  1
  N  918  1  0.18176100  0.56844800  0.33102100  1
  N  927  1  0.06057800  0.55743800  0.33163600  1
  N  928  1  0.15588300  0.53028100  0.34971800  1
  N  929  1  0.15488500  0.68203800  0.30876900  1
  N  930  1  0.18368100  0.60681300  0.27689400  1
  N  938  1  0.27708200  0.35934700  0.78248000  1
  N  945  1  0.36072600  0.49776600  0.85130600  1
  N  947  1  0.32116100  0.38241000  0.82852100  1
  N  948  1  0.27316100  0.45607400  0.83105400  1
  N  957  1  0.39436200  0.46692700  0.83166500  1
  N  958  1  0.29911500  0.49415700  0.84977900  1
  N  959  1  0.29991000  0.34247900  0.80876100  1
  N  960  1  0.27119800  0.41774900  0.77690300  1
  N  962  1  0.18292400  0.28050700  0.08978000  1
  N  965  1  0.16401000  0.24008900  0.07147200  1
  N  980  1  0.27231500  0.74405800  0.58989600  1
  N  983  1  0.29059200  0.78439200  0.57139600  1
  N  998  1  0.95992800  0.96592300  0.34012300  1
  N  1001  1  0.00133700  0.94868500  0.32166300  1
  N  1016  1  0.49505900  0.05862800  0.84012900  1
  N  1019  1  0.45364400  0.07577100  0.82164900  1
  N  1034  1  0.27487600  0.28202900  0.40035600  1
  N  1037  1  0.29201800  0.24073000  0.41858100  1
  N  1052  1  0.17988800  0.74255900  0.90023500  1
  N  1055  1  0.16335800  0.78376600  0.91863800  1
  N  1070  1  0.49623100  0.96420400  0.14913300  1
  N  1073  1  0.45463300  0.94856500  0.16784900  1
  N  1088  1  0.95873200  0.06044300  0.64910000  1
  N  1091  1  0.00034800  0.07588800  0.66784900  1
  N  1106  1  0.76334200  0.74458400  0.90030800  1
  N  1109  1  0.78173200  0.78461000  0.91898000  1
  N  1124  1  0.69131400  0.27988700  0.40019000  1
  N  1127  1  0.67359200  0.23992200  0.41903900  1
  N  1142  1  0.69104900  0.74361300  0.58879700  1
  N  1145  1  0.67336000  0.78465100  0.57055200  1
  N  1160  1  0.76405700  0.28088900  0.08884500  1
  N  1163  1  0.78151900  0.23984700  0.07054700  1
  N  1178  1  0.45505400  0.46944800  0.84062900  1
  N  1181  1  0.49509800  0.45229600  0.82139200  1
  N  1196  1  0.99985900  0.55527700  0.34072100  1
  N  1199  1  0.95988400  0.57184900  0.32133400  1
  N  1214  1  0.99941300  0.46659200  0.64905500  1
  N  1217  1  0.95878700  0.45229800  0.66856200  1
  N  1232  1  0.45551300  0.55799200  0.14905400  1
  N  1235  1  0.49616600  0.57214900  0.16857600  1
  N  1250  1  0.95308300  0.08459800  0.06611700  1
  N  1253  1  0.99401600  0.11009700  0.05002700  1
  N  1268  1  0.50189800  0.94013400  0.56600200  1
  N  1271  1  0.46093600  0.91423300  0.55011500  1
  N  1286  1  0.15887900  0.73901400  0.31728100  1
  N  1289  1  0.13164700  0.77948700  0.30189400  1
  N  1304  1  0.29598000  0.28549900  0.81733400  1
  N  1307  1  0.32318200  0.24503000  0.80191600  1
  N  1322  1  0.50111700  0.08281000  0.42452600  1
  N  1325  1  0.46056000  0.11053800  0.43986400  1
  N  1340  1  0.95388300  0.94212500  0.92475300  1
  N  1343  1  0.99447700  0.91374100  0.93973200  1
  N  1358  1  0.29429600  0.74032200  0.17358300  1
  N  1361  1  0.32399700  0.78037200  0.18806700  1
  N  1376  1  0.16068900  0.28418200  0.67351200  1
  N  1379  1  0.13109200  0.24410600  0.68804000  1
  N  1394  1  0.80038200  0.28530500  0.67346400  1
  N  1397  1  0.82681000  0.24495500  0.68929800  1
  N  1412  1  0.65485900  0.73919100  0.17359500  1
  N  1415  1  0.62797300  0.77957500  0.18919500  1
  N  1430  1  0.65629800  0.28362600  0.81472400  1
  N  1433  1  0.62702300  0.24392300  0.79978500  1
  N  1448  1  0.79865200  0.74086800  0.31477700  1
  N  1451  1  0.82785100  0.78058600  0.29980400  1
  N  1466  1  0.45881100  0.58683000  0.56327200  1
  N  1469  1  0.49991700  0.61441400  0.54819600  1
  N  1484  1  0.99614400  0.43792100  0.06315700  1
  N  1487  1  0.95502200  0.40993400  0.04830000  1
  N  1502  1  0.99149900  0.58480500  0.92656600  1
  N  1505  1  0.95094600  0.61317000  0.94160300  1
  N  1520  1  0.46348400  0.43970200  0.42652000  1
  N  1523  1  0.50401700  0.41138400  0.44160200  1
  N  1538  1  0.15294500  0.99642200  0.98785500  1
  N  1541  1  0.12015800  0.03949500  0.99783300  1
  N  1556  1  0.30200600  0.02805200  0.48781900  1
  N  1559  1  0.33492700  0.98513400  0.49785100  1
  N  1574  1  0.24329600  0.93593700  0.23765700  1
  N  1577  1  0.20029800  0.90365100  0.24842100  1
  N  1592  1  0.21178600  0.08852900  0.73761700  1
  N  1595  1  0.25461300  0.12098400  0.74842100  1
  N  1610  1  0.79478900  0.02988500  0.00104100  1
  N  1613  1  0.82302600  0.98268000  0.99243500  1
  N  1628  1  0.66025600  0.99469000  0.50106700  1
  N  1631  1  0.63189800  0.04179100  0.49242700  1
  N  1646  1  0.71066300  0.08806100  0.75115300  1
  N  1649  1  0.75415800  0.12060400  0.74110400  1
  N  1664  1  0.74421800  0.93649700  0.25119900  1
  N  1667  1  0.70088300  0.90379800  0.24110300  1
  N  1682  1  0.66228700  0.49568600  0.48883400  1
  N  1685  1  0.62817500  0.53893200  0.49737800  1
  N  1700  1  0.79261300  0.52874600  0.98882200  1
  N  1703  1  0.82686000  0.48565300  0.99741300  1
  N  1718  1  0.74498800  0.44097600  0.73867000  1
  N  1721  1  0.69796200  0.41215600  0.74768600  1
  N  1736  1  0.71007100  0.58342800  0.23862400  1
  N  1739  1  0.75696500  0.61242100  0.24767600  1
  N  1754  1  0.30064100  0.53035200  0.50045100  1
  N  1757  1  0.33225100  0.48479200  0.49258400  1
  N  1772  1  0.15428700  0.49423400  0.00044400  1
  N  1775  1  0.12262900  0.53973400  0.99255700  1
  N  1790  1  0.21063100  0.58325200  0.25152500  1
  N  1793  1  0.25730800  0.61198700  0.24199900  1
  N  1808  1  0.24415500  0.44139300  0.75155600  1
  N  1811  1  0.19765900  0.41243200  0.74198200  1
  N  1826  1  0.25128300  0.01729100  0.12634100  1
  N  1829  1  0.25805800  0.07055900  0.11610700  1
  N  1844  1  0.20366300  0.00722200  0.62632400  1
  N  1847  1  0.19688200  0.95398500  0.61606700  1
  N  1862  1  0.22473700  0.03898100  0.37678100  1
  N  1865  1  0.17099000  0.04342000  0.36579600  1
  N  1880  1  0.23035200  0.98564800  0.87687000  1
  N  1883  1  0.28393800  0.98103500  0.86570400  1
  N  1898  1  0.69866400  0.00663800  0.86223700  1
  N  1901  1  0.68984300  0.95483200  0.87392800  1
  N  1916  1  0.75634500  0.01791100  0.36221300  1
  N  1919  1  0.76521000  0.06961100  0.37400100  1
  N  1934  1  0.74319400  0.98620600  0.60926700  1
  N  1937  1  0.77931300  0.97777500  0.63156600  1
  N  1952  1  0.71200200  0.03822400  0.10935700  1
  N  1955  1  0.67557700  0.04674800  0.13152900  1
  N  1970  1  0.75558400  0.52039000  0.62654800  1
  N  1973  1  0.76229200  0.57328600  0.61582100  1
  N  1988  1  0.69930500  0.50410200  0.12654400  1
  N  1991  1  0.69261600  0.45123300  0.11579500  1
  N  2006  1  0.71027100  0.54122900  0.88027900  1
  N  2009  1  0.67505500  0.55062200  0.85770600  1
  N  2024  1  0.74442200  0.48342300  0.38020300  1
  N  2027  1  0.78000200  0.47388100  0.35778000  1
  N  2042  1  0.20517400  0.50429400  0.36370100  1
  N  2045  1  0.19847900  0.45182100  0.37493200  1
  N  2060  1  0.24976300  0.52025500  0.86367900  1
  N  2063  1  0.25661500  0.57259100  0.87503600  1
  N  2078  1  0.23078900  0.48312000  0.11238300  1
  N  2081  1  0.28352500  0.47724200  0.12437400  1
  N  2096  1  0.22408700  0.54131200  0.61230600  1
  N  2099  1  0.17147100  0.54729300  0.62441600  1
  N  2120  1  0.06824300  0.06920200  0.20300500  1
  N  2127  1  0.22114600  0.14809200  0.26633200  1
  N  2129  1  0.09313100  0.11571100  0.24802700  1
  N  2130  1  0.17213900  0.06209000  0.24981400  1
  N  2139  1  0.17859800  0.18134100  0.24997600  1
  N  2140  1  0.21476600  0.08941900  0.26741200  1
  N  2141  1  0.05227200  0.09874500  0.22727100  1
  N  2142  1  0.12563100  0.05738700  0.19833800  1
  N  2150  1  0.38671500  0.95532600  0.70299600  1
  N  2157  1  0.23386700  0.87642800  0.76635500  1
  N  2159  1  0.36183100  0.90883200  0.74802100  1
  N  2160  1  0.28283000  0.96243100  0.74980800  1
  N  2169  1  0.27634500  0.84318300  0.74996700  1
  N  2170  1  0.24021000  0.93510300  0.76740600  1
  N  2171  1  0.40268500  0.92578700  0.72727000  1
  N  2172  1  0.32932700  0.96715200  0.69833200  1
  N  2180  1  0.17309800  0.85226000  0.45438900  1
  N  2187  1  0.09402900  0.00493400  0.51641200  1
  N  2189  1  0.12777100  0.87756300  0.49979300  1
  N  2190  1  0.18180900  0.95599300  0.50088200  1
  N  2199  1  0.06071400  0.96216600  0.50058200  1
  N  2200  1  0.15356000  0.99904500  0.51778900  1
  N  2201  1  0.14399600  0.83690800  0.47901100  1
  N  2202  1  0.18463100  0.90868000  0.44930600  1
  N  2210  1  0.28182300  0.17231100  0.95441500  1
  N  2217  1  0.36096300  0.01956900  0.01638500  1
  N  2219  1  0.32718600  0.14693900  0.99980200  1
  N  2220  1  0.27318000  0.06852800  0.00086804  1
  N  2229  1  0.39427500  0.06235800  0.00056504  1
  N  2230  1  0.30143200  0.02548100  0.01777700  1
  N  2231  1  0.31091800  0.18763000  0.97904000  1
  N  2232  1  0.27036800  0.11588900  0.94929000  1
  N  2240  1  0.38420900  0.07256200  0.63280300  1
  N  2247  1  0.24120300  0.14913300  0.56357800  1
  N  2249  1  0.36228900  0.11668200  0.58681400  1
  N  2250  1  0.28909200  0.06365000  0.58142000  1
  N  2259  1  0.27679700  0.18229800  0.58381800  1
  N  2260  1  0.24905000  0.08878300  0.56331400  1
  N  2261  1  0.40207500  0.09923500  0.60795000  1
  N  2262  1  0.32542100  0.05857000  0.63591300  1
  N  2270  1  0.07083500  0.95201800  0.13281300  1
  N  2277  1  0.21380300  0.87541000  0.06357600  1
  N  2279  1  0.09272100  0.90787400  0.08682600  1
  N  2280  1  0.16591000  0.96089200  0.08143200  1
  N  2289  1  0.17826600  0.84224700  0.08383000  1
  N  2290  1  0.20596800  0.93579000  0.06333200  1
  N  2291  1  0.05295600  0.92532300  0.10795600  1
  N  2292  1  0.12963800  0.96599100  0.13591400  1
  N  2300  1  0.28584700  0.85511900  0.38154000  1
  N  2307  1  0.36193500  0.99806800  0.31317200  1
  N  2309  1  0.32839000  0.87763800  0.33512600  1
  N  2310  1  0.27485600  0.95054100  0.33056800  1
  N  2319  1  0.39533400  0.96249300  0.33307200  1
  N  2320  1  0.30056500  0.99104000  0.31300800  1
  N  2321  1  0.31185300  0.83799600  0.35630300  1
  N  2322  1  0.27214800  0.91290900  0.38517200  1
  N  2330  1  0.16923700  0.16941700  0.88148400  1
  N  2337  1  0.09300200  0.02650800  0.81312700  1
  N  2339  1  0.12660700  0.14685300  0.83509400  1
  N  2340  1  0.18010800  0.07395500  0.83053500  1
  N  2349  1  0.05962800  0.06204200  0.83305200  1
  N  2350  1  0.15435200  0.03349700  0.81295600  1
  N  2351  1  0.14319400  0.18651300  0.85625500  1
  N  2352  1  0.18285400  0.11161000  0.88514600  1
  N  2360  1  0.87934900  0.96611300  0.12860100  1
  N  2367  1  0.72647400  0.87661800  0.06860200  1
  N  2369  1  0.85412500  0.91426300  0.08513200  1
  N  2370  1  0.77511900  0.96295500  0.08478000  1
  N  2379  1  0.76886800  0.84369200  0.08511900  1
  N  2380  1  0.73320000  0.93525500  0.06706100  1
  N  2381  1  0.89550800  0.93685700  0.10391300  1
  N  2382  1  0.82194100  0.96814400  0.13611400  1
  N  2390  1  0.57566700  0.05851500  0.62866400  1
  N  2397  1  0.72842800  0.14789400  0.56855300  1
  N  2399  1  0.60082700  0.11018100  0.58513000  1
  N  2400  1  0.67984200  0.06154700  0.58476100  1
  N  2409  1  0.68610200  0.18080800  0.58510500  1
  N  2410  1  0.72175500  0.08925200  0.56704300  1
  N  2411  1  0.55947900  0.08756800  0.60394400  1
  N  2412  1  0.63309400  0.05637400  0.63611900  1
  N  2420  1  0.78509200  0.17150300  0.88107000  1
  N  2427  1  0.86561700  0.02341900  0.81627400  1
  N  2429  1  0.83219200  0.14727800  0.83598300  1
  N  2430  1  0.77772400  0.06914200  0.83376400  1
  N  2439  1  0.89909000  0.06177300  0.83207700  1
  N  2440  1  0.80546000  0.02596700  0.81771400  1
  N  2441  1  0.81515500  0.18741300  0.85682900  1
  N  2442  1  0.77245400  0.11512500  0.88550400  1
  N  2450  1  0.66987100  0.85298900  0.38107500  1
  N  2457  1  0.58936500  0.00112800  0.31630300  1
  N  2459  1  0.62280800  0.87724700  0.33598400  1
  N  2460  1  0.67724600  0.95536900  0.33378500  1
  N  2469  1  0.55588400  0.96279300  0.33211300  1
  N  2470  1  0.64951600  0.99855100  0.31773200  1
  N  2471  1  0.63984500  0.83709600  0.35681600  1
  N  2472  1  0.68248500  0.90936600  0.38552900  1
  N  2480  1  0.57680800  0.96147800  0.70420600  1
  N  2487  1  0.73088500  0.87686400  0.76433900  1
  N  2489  1  0.60028600  0.91476700  0.74942400  1
  N  2490  1  0.67648500  0.96209800  0.75153300  1
  N  2499  1  0.68617400  0.84317700  0.74962000  1
  N  2500  1  0.72035700  0.93713900  0.76710100  1
  N  2501  1  0.55973600  0.93689700  0.72999800  1
  N  2502  1  0.63618100  0.96702400  0.69855600  1
  N  2510  1  0.87813600  0.06303200  0.20419000  1
  N  2517  1  0.72413700  0.14761000  0.26438900  1
  N  2519  1  0.85471400  0.10974500  0.24941400  1
  N  2520  1  0.77853700  0.06241200  0.25153800  1
  N  2529  1  0.76879400  0.18133000  0.24964300  1
  N  2530  1  0.73468600  0.08734100  0.26712800  1
  N  2531  1  0.89523800  0.08758600  0.22997500  1
  N  2532  1  0.81874400  0.05749400  0.19855800  1
  N  2540  1  0.66531300  0.16861600  0.95133700  1
  N  2547  1  0.58870900  0.03181400  0.02271400  1
  N  2549  1  0.62189500  0.14687300  0.99762600  1
  N  2550  1  0.67597900  0.07311400  0.00203604  1
  N  2559  1  0.55491900  0.06189300  0.00298904  1
  N  2560  1  0.65021400  0.03461000  0.02069400  1
  N  2561  1  0.63881900  0.18613300  0.97637500  1
  N  2562  1  0.67975700  0.11088300  0.94813000  1
  N  2570  1  0.78958100  0.85585200  0.45138100  1
  N  2577  1  0.86628900  0.99264100  0.52274400  1
  N  2579  1  0.83308600  0.87762500  0.49764800  1
  N  2580  1  0.77901000  0.95136800  0.50205800  1
  N  2589  1  0.90006400  0.96263400  0.50298200  1
  N  2590  1  0.80477700  0.98988100  0.52071500  1
  N  2591  1  0.81610700  0.83835100  0.47641200  1
  N  2592  1  0.77521300  0.91360400  0.44815400  1
  N  2600  1  0.57477100  0.57337200  0.70150800  1
  N  2607  1  0.72318500  0.65078400  0.76820900  1
  N  2609  1  0.59880100  0.61991300  0.74661800  1
  N  2610  1  0.67779400  0.56515300  0.74879500  1
  N  2619  1  0.68660200  0.68454000  0.75144700  1
  N  2620  1  0.71928800  0.59201500  0.76723500  1
  N  2621  1  0.55834200  0.60304800  0.72567700  1
  N  2622  1  0.63191100  0.55970000  0.69761100  1
  N  2630  1  0.88015500  0.45112800  0.20151300  1
  N  2637  1  0.73179500  0.37371400  0.26823900  1
  N  2639  1  0.85614900  0.40463200  0.24663800  1
  N  2640  1  0.77714300  0.45935400  0.24881000  1
  N  2649  1  0.76839200  0.33996100  0.25148100  1
  N  2650  1  0.73566700  0.43248800  0.26725200  1
  N  2651  1  0.89659500  0.42148000  0.22569500  1
  N  2652  1  0.82301700  0.46481300  0.19762400  1
  N  2660  1  0.68103500  0.35745700  0.95644200  1
  N  2667  1  0.58794200  0.50855700  0.01517600  1
  N  2669  1  0.62719000  0.38196700  0.99961200  1
  N  2670  1  0.67635700  0.45973500  0.00088304  1
  N  2679  1  0.55517100  0.46520000  0.99955300  1
  N  2680  1  0.64796200  0.50318400  0.01633400  1
  N  2681  1  0.65057900  0.34132700  0.98089800  1
  N  2682  1  0.68327600  0.41393700  0.94900800  1
  N  2690  1  0.77394800  0.66703200  0.45640800  1
  N  2697  1  0.86702400  0.51597900  0.51519100  1
  N  2699  1  0.82770400  0.64254000  0.49960800  1
  N  2700  1  0.77859300  0.56475900  0.50086800  1
  N  2709  1  0.89977700  0.55929400  0.49954800  1
  N  2710  1  0.80699500  0.52133100  0.51633700  1
  N  2711  1  0.80429500  0.68317100  0.48088400  1
  N  2712  1  0.77174600  0.61055000  0.44897400  1
  N  2720  1  0.87226200  0.57287800  0.13441700  1
  N  2727  1  0.72516600  0.65122100  0.06825200  1
  N  2729  1  0.85428100  0.61910300  0.08845500  1
  N  2730  1  0.77715400  0.56590800  0.08340600  1
  N  2739  1  0.76555700  0.68509800  0.08279600  1
  N  2740  1  0.73366900  0.59056700  0.06735500  1
  N  2741  1  0.89234100  0.60074000  0.11016200  1
  N  2742  1  0.81259000  0.55965300  0.13612900  1
  N  2750  1  0.58268300  0.45169100  0.63439600  1
  N  2757  1  0.72976700  0.37332900  0.56819700  1
  N  2759  1  0.60069000  0.40530500  0.58847500  1
  N  2760  1  0.67774800  0.45857600  0.58342000  1
  N  2769  1  0.68950200  0.33940300  0.58280300  1
  N  2770  1  0.72124600  0.43398000  0.56735700  1
  N  2771  1  0.56261800  0.42374900  0.61016300  1
  N  2772  1  0.64237600  0.46484700  0.63612400  1
  N  2780  1  0.77945200  0.35929400  0.88040000  1
  N  2787  1  0.86621900  0.50097600  0.81398700  1
  N  2789  1  0.82603200  0.38229900  0.83496400  1
  N  2790  1  0.77814300  0.45539200  0.83144000  1
  N  2799  1  0.89887500  0.46546700  0.83407200  1
  N  2800  1  0.80492700  0.49436000  0.81340500  1
  N  2801  1  0.80376200  0.34238700  0.85445200  1
  N  2802  1  0.77317200  0.41771100  0.88591200  1
  N  2810  1  0.67564900  0.66520400  0.38034900  1
  N  2817  1  0.58869200  0.52358000  0.31396100  1
  N  2819  1  0.62889000  0.64219100  0.33495700  1
  N  2820  1  0.67679000  0.56910600  0.33142100  1
  N  2829  1  0.55605600  0.55904800  0.33406700  1
  N  2830  1  0.64998600  0.53015100  0.31338200  1
  N  2831  1  0.65119000  0.68210900  0.35442300  1
  N  2832  1  0.68181700  0.60678300  0.38588900  1
  N  2840  1  0.38854300  0.46340400  0.62962000  1
  N  2847  1  0.24027900  0.37392500  0.56650300  1
  N  2849  1  0.36387600  0.41131600  0.58617900  1
  N  2850  1  0.28331000  0.46040400  0.58621500  1
  N  2859  1  0.27812600  0.34088600  0.58288200  1
  N  2860  1  0.24261600  0.43280900  0.56772300  1
  N  2861  1  0.40499200  0.43366000  0.60516100  1
  N  2862  1  0.33107500  0.46660000  0.63668900  1
  N  2870  1  0.06643800  0.56111200  0.12957200  1
  N  2877  1  0.21484800  0.65058300  0.06653800  1
  N  2879  1  0.09112800  0.61336600  0.08618500  1
  N  2880  1  0.17160400  0.56416500  0.08619900  1
  N  2889  1  0.17704400  0.68366900  0.08291800  1
  N  2890  1  0.21239800  0.59170000  0.06774600  1
  N  2891  1  0.04999600  0.59099000  0.10514100  1
  N  2892  1  0.12389300  0.55795400  0.13666600  1
  N  2900  1  0.27186500  0.66697900  0.37787300  1
  N  2907  1  0.36221100  0.51996500  0.31544700  1
  N  2909  1  0.32189800  0.64196000  0.33367500  1
  N  2910  1  0.27372800  0.56211200  0.33467600  1
  N  2919  1  0.39523000  0.55814400  0.33160000  1
  N  2920  1  0.30231700  0.52178000  0.31650300  1
  N  2921  1  0.30014100  0.68281800  0.35273400  1
  N  2922  1  0.27037400  0.61054800  0.38550000  1
  N  2930  1  0.18305900  0.35754700  0.87788700  1
  N  2937  1  0.09273500  0.50454400  0.81544300  1
  N  2939  1  0.13309700  0.38251200  0.83366100  1
  N  2940  1  0.18120800  0.46236000  0.83466100  1
  N  2949  1  0.05971300  0.46638000  0.83160200  1
  N  2950  1  0.15262700  0.50270500  0.81648900  1
  N  2951  1  0.15489500  0.34167800  0.85273300  1
  N  2952  1  0.18449300  0.41398200  0.88550800  1
  N  2960  1  0.07391500  0.45787400  0.20197900  1
  N  2967  1  0.20898100  0.37327300  0.27303900  1
  N  2969  1  0.09245600  0.41083700  0.24768900  1
  N  2970  1  0.16734200  0.45905500  0.25211100  1
  N  2979  1  0.17862000  0.33982400  0.25320700  1
  N  2980  1  0.20523200  0.43382200  0.27125000  1
  N  2981  1  0.05406600  0.43372600  0.22752600  1
  N  2982  1  0.13438900  0.46478100  0.19846100  1
  N  2990  1  0.38099800  0.56662200  0.70198600  1
  N  2997  1  0.24587000  0.65123100  0.77302300  1
  N  2999  1  0.36252400  0.61374900  0.74767900  1
  N  3000  1  0.28765700  0.56549500  0.75211600  1
  N  3009  1  0.27620800  0.68470600  0.75319000  1
  N  3010  1  0.24969600  0.59066800  0.77123300  1
  N  3011  1  0.40088300  0.59080000  0.72750600  1
  N  3012  1  0.32051100  0.55976500  0.69847700  1
  N  3020  1  0.17776000  0.66520800  0.45494800  1
  N  3027  1  0.09425400  0.52659300  0.52372000  1
  N  3029  1  0.13366500  0.64208000  0.50097600  1
  N  3030  1  0.18176100  0.56844800  0.50348400  1
  N  3039  1  0.06057800  0.55743800  0.50409900  1
  N  3040  1  0.15588300  0.53028100  0.52218100  1
  N  3041  1  0.15488500  0.68203800  0.48123200  1
  N  3042  1  0.18368100  0.60681300  0.44935700  1
  N  3050  1  0.27708200  0.35934700  0.95494300  1
  N  3057  1  0.36072600  0.49776600  0.02376900  1
  N  3059  1  0.32116100  0.38241000  0.00098404  1
  N  3060  1  0.27316100  0.45607400  0.00351704  1
  N  3069  1  0.39436200  0.46692700  0.00412804  1
  N  3070  1  0.29911500  0.49415700  0.02224200  1
  N  3071  1  0.29991000  0.34247900  0.98122400  1
  N  3072  1  0.27119800  0.41774900  0.94936600  1
  N  3074  1  0.18292400  0.28050700  0.26224300  1
  N  3077  1  0.16401000  0.24008900  0.24393500  1
  N  3092  1  0.27231500  0.74405800  0.76235900  1
  N  3095  1  0.29059200  0.78439200  0.74385900  1
  N  3110  1  0.95992800  0.96592300  0.51258600  1
  N  3113  1  0.00133700  0.94868500  0.49412600  1
  N  3128  1  0.49505900  0.05862800  0.01259200  1
  N  3131  1  0.45364400  0.07577100  0.99411200  1
  N  3146  1  0.27487600  0.28202900  0.57281900  1
  N  3149  1  0.29201800  0.24073000  0.59104400  1
  N  3164  1  0.17988800  0.74255900  0.07269800  1
  N  3167  1  0.16335800  0.78376600  0.09110100  1
  N  3182  1  0.49623100  0.96420400  0.32159600  1
  N  3185  1  0.45463300  0.94856500  0.34031200  1
  N  3200  1  0.95873200  0.06044300  0.82156300  1
  N  3203  1  0.00034800  0.07588800  0.84031200  1
  N  3218  1  0.76334200  0.74458400  0.07277100  1
  N  3221  1  0.78173200  0.78461000  0.09144300  1
  N  3236  1  0.69131400  0.27988700  0.57265300  1
  N  3239  1  0.67359200  0.23992200  0.59150200  1
  N  3254  1  0.69104900  0.74361300  0.76126000  1
  N  3257  1  0.67336000  0.78465100  0.74301500  1
  N  3272  1  0.76405700  0.28088900  0.26130800  1
  N  3275  1  0.78151900  0.23984700  0.24301000  1
  N  3290  1  0.45505400  0.46944800  0.01309200  1
  N  3293  1  0.49509800  0.45229600  0.99385500  1
  N  3308  1  0.99985900  0.55527700  0.51318400  1
  N  3311  1  0.95988400  0.57184900  0.49379700  1
  N  3326  1  0.99941300  0.46659200  0.82151800  1
  N  3329  1  0.95878700  0.45229800  0.84102500  1
  N  3344  1  0.45551300  0.55799200  0.32151700  1
  N  3347  1  0.49616600  0.57214900  0.34103900  1
  N  3362  1  0.95308300  0.08459800  0.23858000  1
  N  3365  1  0.99401600  0.11009700  0.22249000  1
  N  3380  1  0.50189800  0.94013400  0.73846500  1
  N  3383  1  0.46093600  0.91423300  0.72257800  1
  N  3398  1  0.15887900  0.73901400  0.48974400  1
  N  3401  1  0.13164700  0.77948700  0.47435700  1
  N  3416  1  0.29598000  0.28549900  0.98979700  1
  N  3419  1  0.32318200  0.24503000  0.97437900  1
  N  3434  1  0.50111700  0.08281000  0.59698900  1
  N  3437  1  0.46056000  0.11053800  0.61232700  1
  N  3452  1  0.95388300  0.94212500  0.09721600  1
  N  3455  1  0.99447700  0.91374100  0.11219500  1
  N  3470  1  0.29429600  0.74032200  0.34604600  1
  N  3473  1  0.32399700  0.78037200  0.36053000  1
  N  3488  1  0.16068900  0.28418200  0.84597500  1
  N  3491  1  0.13109200  0.24410600  0.86050300  1
  N  3506  1  0.80038200  0.28530500  0.84592700  1
  N  3509  1  0.82681000  0.24495500  0.86176100  1
  N  3524  1  0.65485900  0.73919100  0.34605800  1
  N  3527  1  0.62797300  0.77957500  0.36165800  1
  N  3542  1  0.65629800  0.28362600  0.98718700  1
  N  3545  1  0.62702300  0.24392300  0.97224800  1
  N  3560  1  0.79865200  0.74086800  0.48724000  1
  N  3563  1  0.82785100  0.78058600  0.47226700  1
  N  3578  1  0.45881100  0.58683000  0.73573500  1
  N  3581  1  0.49991700  0.61441400  0.72065900  1
  N  3596  1  0.99614400  0.43792100  0.23562000  1
  N  3599  1  0.95502200  0.40993400  0.22076300  1
  N  3614  1  0.99149900  0.58480500  0.09902900  1
  N  3617  1  0.95094600  0.61317000  0.11406600  1
  N  3632  1  0.46348400  0.43970200  0.59898300  1
  N  3635  1  0.50401700  0.41138400  0.61406500  1
  N  3650  1  0.15294500  0.99642200  0.16031800  1
  N  3653  1  0.12015800  0.03949500  0.17029600  1
  N  3668  1  0.30200600  0.02805200  0.66028200  1
  N  3671  1  0.33492700  0.98513400  0.67031400  1
  N  3686  1  0.24329600  0.93593700  0.41012000  1
  N  3689  1  0.20029800  0.90365100  0.42088400  1
  N  3704  1  0.21178600  0.08852900  0.91008000  1
  N  3707  1  0.25461300  0.12098400  0.92088400  1
  N  3722  1  0.79478900  0.02988500  0.17350400  1
  N  3725  1  0.82302600  0.98268000  0.16489800  1
  N  3740  1  0.66025600  0.99469000  0.67353000  1
  N  3743  1  0.63189800  0.04179100  0.66489000  1
  N  3758  1  0.71066300  0.08806100  0.92361600  1
  N  3761  1  0.75415800  0.12060400  0.91356700  1
  N  3776  1  0.74421800  0.93649700  0.42366200  1
  N  3779  1  0.70088300  0.90379800  0.41356600  1
  N  3794  1  0.66228700  0.49568600  0.66129700  1
  N  3797  1  0.62817500  0.53893200  0.66984100  1
  N  3812  1  0.79261300  0.52874600  0.16128500  1
  N  3815  1  0.82686000  0.48565300  0.16987600  1
  N  3830  1  0.74498800  0.44097600  0.91113300  1
  N  3833  1  0.69796200  0.41215600  0.92014900  1
  N  3848  1  0.71007100  0.58342800  0.41108700  1
  N  3851  1  0.75696500  0.61242100  0.42013900  1
  N  3866  1  0.30064100  0.53035200  0.67291400  1
  N  3869  1  0.33225100  0.48479200  0.66504700  1
  N  3884  1  0.15428700  0.49423400  0.17290700  1
  N  3887  1  0.12262900  0.53973400  0.16502000  1
  N  3902  1  0.21063100  0.58325200  0.42398800  1
  N  3905  1  0.25730800  0.61198700  0.41446200  1
  N  3920  1  0.24415500  0.44139300  0.92401900  1
  N  3923  1  0.19765900  0.41243200  0.91444500  1
  N  3938  1  0.25128300  0.01729100  0.29880400  1
  N  3941  1  0.25805800  0.07055900  0.28857000  1
  N  3956  1  0.20366300  0.00722200  0.79878700  1
  N  3959  1  0.19688200  0.95398500  0.78853000  1
  N  3974  1  0.22473700  0.03898100  0.54924400  1
  N  3977  1  0.17099000  0.04342000  0.53825900  1
  N  3992  1  0.23035200  0.98564800  0.04933300  1
  N  3995  1  0.28393800  0.98103500  0.03816700  1
  N  4010  1  0.69866400  0.00663800  0.03470000  1
  N  4013  1  0.68984300  0.95483200  0.04639100  1
  N  4028  1  0.75634500  0.01791100  0.53467600  1
  N  4031  1  0.76521000  0.06961100  0.54646400  1
  N  4046  1  0.74319400  0.98620600  0.78173000  1
  N  4049  1  0.77931300  0.97777500  0.80402900  1
  N  4064  1  0.71200200  0.03822400  0.28182000  1
  N  4067  1  0.67557700  0.04674800  0.30399200  1
  N  4082  1  0.75558400  0.52039000  0.79901100  1
  N  4085  1  0.76229200  0.57328600  0.78828400  1
  N  4100  1  0.69930500  0.50410200  0.29900700  1
  N  4103  1  0.69261600  0.45123300  0.28825800  1
  N  4118  1  0.71027100  0.54122900  0.05274200  1
  N  4121  1  0.67505500  0.55062200  0.03016900  1
  N  4136  1  0.74442200  0.48342300  0.55266600  1
  N  4139  1  0.78000200  0.47388100  0.53024300  1
  N  4154  1  0.20517400  0.50429400  0.53616400  1
  N  4157  1  0.19847900  0.45182100  0.54739500  1
  N  4172  1  0.24976300  0.52025500  0.03614200  1
  N  4175  1  0.25661500  0.57259100  0.04749900  1
  N  4190  1  0.23078900  0.48312000  0.28484600  1
  N  4193  1  0.28352500  0.47724200  0.29683700  1
  N  4208  1  0.22408700  0.54131200  0.78476900  1
  N  4211  1  0.17147100  0.54729300  0.79687900  1
  O  969  1  0.12571100  0.25744600  0.05152600  1
  O  970  1  0.16186300  0.28413500  0.04479000  1
  O  987  1  0.32697100  0.76771400  0.55052900  1
  O  988  1  0.29259200  0.73831000  0.54494100  1
  O  1005  1  0.98492800  0.91378600  0.30031000  1
  O  1006  1  0.95489800  0.94763500  0.29498600  1
  O  1023  1  0.47009400  0.11081500  0.80046700  1
  O  1024  1  0.50047000  0.07705600  0.79492700  1
  O  1041  1  0.32779000  0.25659500  0.43983200  1
  O  1042  1  0.29214200  0.28475100  0.44567300  1
  O  1059  1  0.12944100  0.76848000  0.94067600  1
  O  1060  1  0.16319600  0.73788300  0.94552400  1
  O  1077  1  0.47034200  0.91704900  0.19049600  1
  O  1078  1  0.50245900  0.94975800  0.19448400  1
  O  1095  1  0.98464500  0.10739200  0.69039900  1
  O  1096  1  0.95210000  0.07480800  0.69452900  1
  O  1113  1  0.81765900  0.76681400  0.93982600  1
  O  1114  1  0.78147500  0.73920000  0.94544400  1
  O  1131  1  0.63958000  0.25710400  0.44072700  1
  O  1132  1  0.67397500  0.28713300  0.44529300  1
  O  1149  1  0.63628900  0.76848200  0.54975600  1
  O  1150  1  0.67149700  0.74059400  0.54363000  1
  O  1167  1  0.81851100  0.25603700  0.04984100  1
  O  1168  1  0.78341600  0.28437500  0.04358000  1
  O  1185  1  0.47659600  0.41755100  0.80041700  1
  O  1186  1  0.44774400  0.45295000  0.79544300  1
  O  1203  1  0.97776700  0.60471500  0.29954100  1
  O  1204  1  0.00915700  0.57128100  0.29562800  1
  O  1221  1  0.97554800  0.42329400  0.69181900  1
  O  1222  1  0.00855600  0.45569300  0.69447400  1
  O  1239  1  0.47943500  0.60119800  0.19172400  1
  O  1240  1  0.44599200  0.56893100  0.19453700  1
  O  1257  1  0.97085700  0.12809200  0.02434500  1
  O  1258  1  0.96107800  0.16230000  0.03933500  1
  O  1275  1  0.48258700  0.89401200  0.52470800  1
  O  1276  1  0.49598500  0.86171300  0.53986800  1
  O  1293  1  0.10898200  0.75887300  0.27687600  1
  O  1294  1  0.07763800  0.74429300  0.29250800  1
  O  1311  1  0.34448900  0.26646500  0.77675900  1
  O  1312  1  0.37725300  0.27950400  0.79217800  1
  O  1329  1  0.48162600  0.13358300  0.46451500  1
  O  1330  1  0.49795200  0.16322000  0.44844000  1
  O  1347  1  0.97487400  0.88786000  0.96379800  1
  O  1348  1  0.95456500  0.86100900  0.94778100  1
  O  1365  1  0.35191900  0.76146700  0.21172000  1
  O  1366  1  0.37794000  0.74067100  0.19543500  1
  O  1383  1  0.10418800  0.26339100  0.71185800  1
  O  1384  1  0.07701800  0.28359400  0.69567200  1
  O  1401  1  0.84571700  0.26754100  0.71490600  1
  O  1402  1  0.88003800  0.27753000  0.69971900  1
  O  1419  1  0.60675300  0.75849700  0.21450600  1
  O  1420  1  0.57444700  0.74489400  0.19915900  1
  O  1437  1  0.60012700  0.26345700  0.77594200  1
  O  1438  1  0.57345600  0.28373100  0.79212200  1
  O  1455  1  0.85375500  0.76068000  0.27581900  1
  O  1456  1  0.88152400  0.74093600  0.29188600  1
  O  1473  1  0.47684800  0.63434000  0.52274100  1
  O  1474  1  0.46729700  0.66715800  0.53851100  1
  O  1491  1  0.97668900  0.38792600  0.02314600  1
  O  1492  1  0.98957700  0.35691000  0.03904200  1
  O  1509  1  0.97133300  0.63954400  0.96548200  1
  O  1510  1  0.98968600  0.66666667  0.94902800  1
  O  1527  1  0.48310600  0.38609400  0.46563200  1
  O  1528  1  0.46555100  0.35783800  0.44929800  1
  O  1545  1  0.08703100  0.06609900  0.97800400  1
  O  1546  1  0.06589700  0.02455500  0.97880900  1
  O  1563  1  0.36903000  0.95876600  0.47834500  1
  O  1564  1  0.38926100  0.00043100  0.47851300  1
  O  1581  1  0.17158900  0.87068200  0.22934200  1
  O  1582  1  0.21379000  0.85056200  0.22837200  1
  O  1599  1  0.28327700  0.15346500  0.72919200  1
  O  1600  1  0.24112300  0.17423700  0.72833700  1
  O  1617  1  0.84849700  0.95223900  0.01361000  1
  O  1618  1  0.87519500  0.99059700  0.01385100  1
  O  1635  1  0.60542900  0.07215700  0.51333200  1
  O  1636  1  0.57968200  0.03357700  0.51417900  1
  O  1653  1  0.78097300  0.15416200  0.76058600  1
  O  1654  1  0.73851200  0.17386000  0.76067600  1
  O  1671  1  0.67413100  0.87070400  0.26073300  1
  O  1672  1  0.71654500  0.85035700  0.26069400  1
  O  1689  1  0.59726700  0.56473800  0.47659800  1
  O  1690  1  0.57704300  0.52278700  0.47567400  1
  O  1707  1  0.85879200  0.46011100  0.97692300  1
  O  1708  1  0.87798100  0.50211900  0.97537600  1
  O  1725  1  0.66730400  0.38519100  0.72700000  1
  O  1726  1  0.70696300  0.36050000  0.72620700  1
  O  1743  1  0.78751200  0.63885300  0.22684100  1
  O  1744  1  0.74801600  0.66425500  0.22618600  1
  O  1761  1  0.35828100  0.45659600  0.51427900  1
  O  1762  1  0.38260900  0.49642600  0.51506900  1
  O  1779  1  0.09563500  0.56783200  0.01399600  1
  O  1780  1  0.07228500  0.52786500  0.01540300  1
  O  1797  1  0.28901800  0.63881300  0.26235300  1
  O  1798  1  0.24946100  0.66357700  0.26359300  1
  O  1815  1  0.16608400  0.38607200  0.76247500  1
  O  1816  1  0.20551400  0.36064300  0.76356700  1
  O  1833  1  0.30027300  0.10208900  0.12744700  1
  O  1834  1  0.32854500  0.06674400  0.12128700  1
  O  1851  1  0.15418900  0.92236200  0.62690700  1
  O  1852  1  0.12600700  0.95796500  0.62164800  1
  O  1869  1  0.13697000  0.08505400  0.37548700  1
  O  1870  1  0.17278000  0.11364700  0.37085300  1
  O  1887  1  0.31777600  0.93944800  0.87542800  1
  O  1888  1  0.28193400  0.91058300  0.87069700  1
  O  1905  1  0.64497300  0.92462400  0.86423100  1
  O  1906  1  0.61938000  0.96204000  0.87007100  1
  O  1923  1  0.81067300  0.09976600  0.36493400  1
  O  1924  1  0.83609400  0.06208200  0.36985900  1
  O  1941  1  0.77581300  0.92656600  0.64460000  1
  O  1942  1  0.78896200  0.91209000  0.62340400  1
  O  1959  1  0.67993900  0.09790100  0.14452200  1
  O  1960  1  0.66536500  0.11229200  0.12340000  1
  O  1977  1  0.80456200  0.60528800  0.62679300  1
  O  1978  1  0.83279200  0.56964700  0.62106800  1
  O  1995  1  0.64984200  0.41915800  0.12623700  1
  O  1996  1  0.62171200  0.45503100  0.12143400  1
  O  2013  1  0.68185700  0.60139300  0.84442100  1
  O  2014  1  0.66666667  0.61618700  0.86528300  1
  O  2031  1  0.77211800  0.42314400  0.34457900  1
  O  2032  1  0.78916600  0.40860200  0.36526700  1
  O  2049  1  0.15503600  0.42012700  0.36480700  1
  O  2050  1  0.12782600  0.45619800  0.37097200  1
  O  2067  1  0.30070600  0.60422400  0.86554700  1
  O  2068  1  0.32769300  0.56777600  0.87076900  1
  O  2085  1  0.31631300  0.43351600  0.11593400  1
  O  2086  1  0.27901000  0.40698800  0.12069500  1
  O  2103  1  0.13881600  0.59087300  0.61586600  1
  O  2104  1  0.17609700  0.61776200  0.62073800  1
  O  3081  1  0.12571100  0.25744600  0.22398900  1
  O  3082  1  0.16186300  0.28413500  0.21725300  1
  O  3099  1  0.32697100  0.76771400  0.72299200  1
  O  3100  1  0.29259200  0.73831000  0.71740400  1
  O  3117  1  0.98492800  0.91378600  0.47277300  1
  O  3118  1  0.95489800  0.94763500  0.46744900  1
  O  3135  1  0.47009400  0.11081500  0.97293000  1
  O  3136  1  0.50047000  0.07705600  0.96739000  1
  O  3153  1  0.32779000  0.25659500  0.61229500  1
  O  3154  1  0.29214200  0.28475100  0.61813600  1
  O  3171  1  0.12944100  0.76848000  0.11313900  1
  O  3172  1  0.16319600  0.73788300  0.11798700  1
  O  3189  1  0.47034200  0.91704900  0.36295900  1
  O  3190  1  0.50245900  0.94975800  0.36694700  1
  O  3207  1  0.98464500  0.10739200  0.86286200  1
  O  3208  1  0.95210000  0.07480800  0.86699200  1
  O  3225  1  0.81765900  0.76681400  0.11228900  1
  O  3226  1  0.78147500  0.73920000  0.11790700  1
  O  3243  1  0.63958000  0.25710400  0.61319000  1
  O  3244  1  0.67397500  0.28713300  0.61775600  1
  O  3261  1  0.63628900  0.76848200  0.72221900  1
  O  3262  1  0.67149700  0.74059400  0.71609300  1
  O  3279  1  0.81851100  0.25603700  0.22230400  1
  O  3280  1  0.78341600  0.28437500  0.21604300  1
  O  3297  1  0.47659600  0.41755100  0.97288000  1
  O  3298  1  0.44774400  0.45295000  0.96790600  1
  O  3315  1  0.97776700  0.60471500  0.47200400  1
  O  3316  1  0.00915700  0.57128100  0.46809100  1
  O  3333  1  0.97554800  0.42329400  0.86428200  1
  O  3334  1  0.00855600  0.45569300  0.86693700  1
  O  3351  1  0.47943500  0.60119800  0.36418700  1
  O  3352  1  0.44599200  0.56893100  0.36700000  1
  O  3369  1  0.97085700  0.12809200  0.19680800  1
  O  3370  1  0.96107800  0.16230000  0.21179800  1
  O  3387  1  0.48258700  0.89401200  0.69717100  1
  O  3388  1  0.49598500  0.86171300  0.71233100  1
  O  3405  1  0.10898200  0.75887300  0.44933900  1
  O  3406  1  0.07763800  0.74429300  0.46497100  1
  O  3423  1  0.34448900  0.26646500  0.94922200  1
  O  3424  1  0.37725300  0.27950400  0.96464100  1
  O  3441  1  0.48162600  0.13358300  0.63697800  1
  O  3442  1  0.49795200  0.16322000  0.62090300  1
  O  3459  1  0.97487400  0.88786000  0.13626100  1
  O  3460  1  0.95456500  0.86100900  0.12024400  1
  O  3477  1  0.35191900  0.76146700  0.38418300  1
  O  3478  1  0.37794000  0.74067100  0.36789800  1
  O  3495  1  0.10418800  0.26339100  0.88432100  1
  O  3496  1  0.07701800  0.28359400  0.86813500  1
  O  3513  1  0.84571700  0.26754100  0.88736900  1
  O  3514  1  0.88003800  0.27753000  0.87218200  1
  O  3531  1  0.60675300  0.75849700  0.38696900  1
  O  3532  1  0.57444700  0.74489400  0.37162200  1
  O  3549  1  0.60012700  0.26345700  0.94840500  1
  O  3550  1  0.57345600  0.28373100  0.96458500  1
  O  3567  1  0.85375500  0.76068000  0.44828200  1
  O  3568  1  0.88152400  0.74093600  0.46434900  1
  O  3585  1  0.47684800  0.63434000  0.69520400  1
  O  3586  1  0.46729700  0.66715800  0.71097400  1
  O  3603  1  0.97668900  0.38792600  0.19560900  1
  O  3604  1  0.98957700  0.35691000  0.21150500  1
  O  3621  1  0.97133300  0.63954400  0.13794500  1
  O  3622  1  0.98968600  0.66666667  0.12149100  1
  O  3639  1  0.48310600  0.38609400  0.63809500  1
  O  3640  1  0.46555100  0.35783800  0.62176100  1
  O  3657  1  0.08703100  0.06609900  0.15046700  1
  O  3658  1  0.06589700  0.02455500  0.15127200  1
  O  3675  1  0.36903000  0.95876600  0.65080800  1
  O  3676  1  0.38926100  0.00043100  0.65097600  1
  O  3693  1  0.17158900  0.87068200  0.40180500  1
  O  3694  1  0.21379000  0.85056200  0.40083500  1
  O  3711  1  0.28327700  0.15346500  0.90165500  1
  O  3712  1  0.24112300  0.17423700  0.90080000  1
  O  3729  1  0.84849700  0.95223900  0.18607300  1
  O  3730  1  0.87519500  0.99059700  0.18631400  1
  O  3747  1  0.60542900  0.07215700  0.68579500  1
  O  3748  1  0.57968200  0.03357700  0.68664200  1
  O  3765  1  0.78097300  0.15416200  0.93304900  1
  O  3766  1  0.73851200  0.17386000  0.93313900  1
  O  3783  1  0.67413100  0.87070400  0.43319600  1
  O  3784  1  0.71654500  0.85035700  0.43315700  1
  O  3801  1  0.59726700  0.56473800  0.64906100  1
  O  3802  1  0.57704300  0.52278700  0.64813700  1
  O  3819  1  0.85879200  0.46011100  0.14938600  1
  O  3820  1  0.87798100  0.50211900  0.14783900  1
  O  3837  1  0.66730400  0.38519100  0.89946300  1
  O  3838  1  0.70696300  0.36050000  0.89867000  1
  O  3855  1  0.78751200  0.63885300  0.39930400  1
  O  3856  1  0.74801600  0.66425500  0.39864900  1
  O  3873  1  0.35828100  0.45659600  0.68674200  1
  O  3874  1  0.38260900  0.49642600  0.68753200  1
  O  3891  1  0.09563500  0.56783200  0.18645900  1
  O  3892  1  0.07228500  0.52786500  0.18786600  1
  O  3909  1  0.28901800  0.63881300  0.43481600  1
  O  3910  1  0.24946100  0.66357700  0.43605600  1
  O  3927  1  0.16608400  0.38607200  0.93493800  1
  O  3928  1  0.20551400  0.36064300  0.93603000  1
  O  3945  1  0.30027300  0.10208900  0.29991000  1
  O  3946  1  0.32854500  0.06674400  0.29375000  1
  O  3963  1  0.15418900  0.92236200  0.79937000  1
  O  3964  1  0.12600700  0.95796500  0.79411100  1
  O  3981  1  0.13697000  0.08505400  0.54795000  1
  O  3982  1  0.17278000  0.11364700  0.54331600  1
  O  3999  1  0.31777600  0.93944800  0.04789100  1
  O  4000  1  0.28193400  0.91058300  0.04316000  1
  O  4017  1  0.64497300  0.92462400  0.03669400  1
  O  4018  1  0.61938000  0.96204000  0.04253400  1
  O  4035  1  0.81067300  0.09976600  0.53739700  1
  O  4036  1  0.83609400  0.06208200  0.54232200  1
  O  4053  1  0.77581300  0.92656600  0.81706300  1
  O  4054  1  0.78896200  0.91209000  0.79586700  1
  O  4071  1  0.67993900  0.09790100  0.31698500  1
  O  4072  1  0.66536500  0.11229200  0.29586300  1
  O  4089  1  0.80456200  0.60528800  0.79925600  1
  O  4090  1  0.83279200  0.56964700  0.79353100  1
  O  4107  1  0.64984200  0.41915800  0.29870000  1
  O  4108  1  0.62171200  0.45503100  0.29389700  1
  O  4125  1  0.68185700  0.60139300  0.01688400  1
  O  4126  1  0.66666667  0.61618700  0.03774600  1
  O  4143  1  0.77211800  0.42314400  0.51704200  1
  O  4144  1  0.78916600  0.40860200  0.53773000  1
  O  4161  1  0.15503600  0.42012700  0.53727000  1
  O  4162  1  0.12782600  0.45619800  0.54343500  1
  O  4179  1  0.30070600  0.60422400  0.03801000  1
  O  4180  1  0.32769300  0.56777600  0.04323200  1
  O  4197  1  0.31631300  0.43351600  0.28839700  1
  O  4198  1  0.27901000  0.40698800  0.29315800  1
  O  4215  1  0.13881600  0.59087300  0.78832900  1
  O  4216  1  0.17609700  0.61776200  0.79320100  1
