# generated using pymatgen
data_H28C49(N3O2)4
_symmetry_space_group_name_H-M   'P 1'
_cell_length_a   33.15200000
_cell_length_b   45.05410000
_cell_length_c   45.05410000
_cell_angle_alpha   90.00000000
_cell_angle_beta   90.00000000
_cell_angle_gamma   90.00000000
_symmetry_Int_Tables_number   1
_chemical_formula_structural   H28C49(N3O2)4
_chemical_formula_sum   'H336 C588 N144 O96'
_cell_volume   67294.31411761
_cell_formula_units_Z   12
loop_
 _symmetry_equiv_pos_site_id
 _symmetry_equiv_pos_as_xyz
  1  'x, y, z'
loop_
 _atom_site_type_symbol
 _atom_site_label
 _atom_site_symmetry_multiplicity
 _atom_site_fract_x
 _atom_site_fract_y
 _atom_site_fract_z
 _atom_site_occupancy
  H  26  1  0.92255800  0.94127600  0.38859500  1
  H  27  1  0.97430100  0.94792500  0.35239400  1
  H  28  1  0.89920200  0.03314800  0.38737000  1
  H  29  1  0.95063200  0.03994100  0.35151500  1
  H  30  1  0.02702700  0.04884300  0.35517800  1
  H  31  1  0.07892200  0.05381900  0.39139600  1
  H  32  1  0.10280100  0.96216800  0.38541900  1
  H  33  1  0.05132200  0.95709400  0.34925100  1
  H  34  1  0.07002600  0.98457500  0.29386700  1
  H  35  1  0.08153300  0.94891100  0.25601200  1
  H  36  1  0.95956300  0.92285300  0.26014300  1
  H  37  1  0.94762400  0.95893000  0.29780400  1
  H  38  1  0.93180600  0.01625800  0.29486800  1
  H  39  1  0.05470300  0.04025800  0.29980400  1
  H  40  1  0.04253700  0.08036400  0.26646400  1
  H  45  1  0.91985800  0.05642800  0.26179400  1
  H  71  1  0.42246400  0.05787900  0.61084800  1
  H  72  1  0.47420400  0.05123900  0.64704000  1
  H  73  1  0.39928600  0.96598100  0.61195100  1
  H  74  1  0.45074000  0.95919900  0.64780400  1
  H  75  1  0.52724200  0.95034300  0.64434400  1
  H  76  1  0.57914500  0.94544000  0.60812300  1
  H  77  1  0.60261000  0.03716000  0.61396900  1
  H  78  1  0.55112900  0.04215300  0.65013900  1
  H  79  1  0.56993900  0.01486700  0.70554800  1
  H  80  1  0.58127800  0.05071200  0.74326500  1
  H  81  1  0.45914300  0.07634400  0.73912500  1
  H  82  1  0.44737600  0.04008000  0.70161700  1
  H  83  1  0.43172100  0.98271500  0.70440200  1
  H  84  1  0.55479700  0.95916500  0.69979700  1
  H  85  1  0.54277900  0.91912200  0.73324600  1
  H  90  1  0.41991500  0.94258100  0.73755200  1
  H  116  1  0.17256700  0.61099900  0.94122900  1
  H  117  1  0.22425600  0.64722500  0.94796500  1
  H  118  1  0.14919600  0.61200700  0.03310000  1
  H  119  1  0.20057000  0.64788400  0.03997200  1
  H  120  1  0.27693100  0.64429900  0.04892000  1
  H  121  1  0.32881300  0.60807400  0.05386200  1
  H  122  1  0.35273300  0.61417800  0.96222400  1
  H  123  1  0.30127200  0.65035600  0.95719400  1
  H  124  1  0.31991500  0.70572300  0.98477700  1
  H  125  1  0.33144300  0.74364400  0.94919500  1
  H  126  1  0.20949600  0.73954500  0.92307500  1
  H  127  1  0.19755500  0.70179900  0.95905900  1
  H  128  1  0.18164600  0.70460200  0.01634800  1
  H  129  1  0.30448000  0.69969500  0.04048900  1
  H  130  1  0.29214500  0.73282200  0.08074100  1
  H  135  1  0.16952300  0.73747800  0.05664500  1
  H  161  1  0.67281400  0.38897900  0.05791500  1
  H  162  1  0.72452700  0.35276300  0.05127900  1
  H  163  1  0.64894800  0.38731700  0.96611900  1
  H  164  1  0.70036300  0.35144700  0.95934300  1
  H  165  1  0.77685600  0.35541100  0.95056200  1
  H  166  1  0.82880500  0.39159400  0.94561000  1
  H  167  1  0.85305400  0.38522800  0.03718300  1
  H  168  1  0.80152700  0.34910500  0.04223100  1
  H  169  1  0.81974300  0.29369400  0.01468200  1
  H  170  1  0.83113300  0.25598100  0.05052900  1
  H  171  1  0.70929800  0.26071600  0.07682800  1
  H  172  1  0.69747000  0.29821300  0.04056200  1
  H  173  1  0.68182400  0.29483500  0.98317200  1
  H  174  1  0.80462200  0.30001100  0.95895700  1
  H  175  1  0.79244500  0.26665100  0.91886900  1
  H  180  1  0.66986700  0.26173400  0.94302200  1
  H  187  1  0.85212500  0.23573200  0.11529500  1
  H  194  1  0.93212000  0.09125200  0.19282500  1
  H  195  1  0.91708000  0.17048700  0.24146500  1
  H  196  1  0.79370600  0.15337200  0.10383500  1
  H  205  1  0.94292800  0.12540800  0.26569600  1
  H  206  1  0.78373100  0.19523900  0.06834400  1
  H  213  1  0.35280000  0.76426200  0.88531400  1
  H  220  1  0.43266500  0.90798000  0.80694600  1
  H  221  1  0.41693500  0.82885300  0.75823800  1
  H  222  1  0.29328600  0.84635000  0.89563900  1
  H  231  1  0.44239000  0.87431400  0.73387800  1
  H  232  1  0.28336200  0.80506800  0.93135600  1
  H  239  1  0.10310300  0.88503700  0.23529500  1
  H  246  1  0.18078200  0.80585200  0.09098600  1
  H  247  1  0.16744100  0.75818900  0.17097500  1
  H  248  1  0.04338700  0.89544000  0.15330200  1
  H  257  1  0.19339500  0.73356700  0.12623200  1
  H  258  1  0.03341000  0.93121200  0.19488600  1
  H  265  1  0.60210900  0.11519100  0.76372900  1
  H  272  1  0.68212000  0.19282800  0.90815300  1
  H  273  1  0.66695000  0.24143400  0.82891300  1
  H  274  1  0.54380200  0.10370700  0.84612800  1
  H  283  1  0.69276800  0.26569900  0.87397400  1
  H  284  1  0.53388400  0.06817600  0.80428000  1
  H  291  1  0.86337900  0.97875100  0.46924300  1
  H  298  1  0.64287000  0.96997000  0.53359400  1
  H  299  1  0.73578200  0.01615000  0.57795400  1
  H  300  1  0.76185900  0.99829800  0.41626000  1
  H  309  1  0.66777100  0.01505700  0.59887600  1
  H  310  1  0.83177900  0.00706300  0.39779800  1
  H  317  1  0.36337500  0.02051300  0.53019800  1
  H  324  1  0.14294900  0.02945200  0.46578000  1
  H  325  1  0.23585100  0.98328300  0.42138700  1
  H  326  1  0.26183500  0.00085600  0.58312800  1
  H  335  1  0.16795800  0.98454800  0.40035700  1
  H  336  1  0.33176300  0.99208800  0.60160600  1
  H  343  1  0.11340400  0.53024700  0.97864400  1
  H  350  1  0.89294600  0.46579800  0.96991900  1
  H  351  1  0.98592400  0.42148500  0.01608000  1
  H  352  1  0.01184400  0.58320100  0.99816300  1
  H  361  1  0.91801500  0.40044500  0.01489600  1
  H  362  1  0.08174800  0.60169700  0.00692200  1
  H  369  1  0.61334800  0.46937400  0.02060400  1
  H  376  1  0.39284000  0.53371600  0.02945300  1
  H  377  1  0.48576000  0.57812100  0.98332300  1
  H  378  1  0.51181900  0.41641700  0.00100200  1
  H  387  1  0.41780900  0.59908700  0.98448800  1
  H  388  1  0.58169100  0.39790400  0.99229700  1
  H  414  1  0.92255800  0.94127600  0.69933300  1
  H  415  1  0.97430100  0.94792500  0.66313200  1
  H  416  1  0.89920200  0.03314800  0.69810800  1
  H  417  1  0.95063200  0.03994100  0.66225300  1
  H  418  1  0.02702700  0.04884300  0.66591600  1
  H  419  1  0.07892200  0.05381900  0.70213400  1
  H  420  1  0.10280100  0.96216800  0.69615700  1
  H  421  1  0.05132200  0.95709400  0.65998900  1
  H  422  1  0.07002600  0.98457500  0.60460500  1
  H  423  1  0.08153300  0.94891100  0.56675000  1
  H  424  1  0.95956300  0.92285300  0.57088100  1
  H  425  1  0.94762400  0.95893000  0.60854200  1
  H  426  1  0.93180600  0.01625800  0.60560600  1
  H  427  1  0.05470300  0.04025800  0.61054200  1
  H  428  1  0.04253700  0.08036400  0.57720200  1
  H  433  1  0.91985800  0.05642800  0.57253200  1
  H  459  1  0.42246400  0.05787900  0.92158600  1
  H  460  1  0.47420400  0.05123900  0.95777800  1
  H  461  1  0.39928600  0.96598100  0.92268900  1
  H  462  1  0.45074000  0.95919900  0.95854200  1
  H  463  1  0.52724200  0.95034300  0.95508200  1
  H  464  1  0.57914500  0.94544000  0.91886100  1
  H  465  1  0.60261000  0.03716000  0.92470700  1
  H  466  1  0.55112900  0.04215300  0.96087700  1
  H  467  1  0.56993900  0.01486700  0.01628550  1
  H  468  1  0.58127800  0.05071200  0.05400250  1
  H  469  1  0.45914300  0.07634400  0.04986250  1
  H  470  1  0.44737600  0.04008000  0.01235450  1
  H  471  1  0.43172100  0.98271500  0.01513950  1
  H  472  1  0.55479700  0.95916500  0.01053450  1
  H  473  1  0.54277900  0.91912200  0.04398350  1
  H  478  1  0.41991500  0.94258100  0.04828950  1
  H  504  1  0.17256700  0.61099900  0.25196700  1
  H  505  1  0.22425600  0.64722500  0.25870300  1
  H  506  1  0.14919600  0.61200700  0.34383800  1
  H  507  1  0.20057000  0.64788400  0.35071000  1
  H  508  1  0.27693100  0.64429900  0.35965800  1
  H  509  1  0.32881300  0.60807400  0.36460000  1
  H  510  1  0.35273300  0.61417800  0.27296200  1
  H  511  1  0.30127200  0.65035600  0.26793200  1
  H  512  1  0.31991500  0.70572300  0.29551500  1
  H  513  1  0.33144300  0.74364400  0.25993300  1
  H  514  1  0.20949600  0.73954500  0.23381300  1
  H  515  1  0.19755500  0.70179900  0.26979700  1
  H  516  1  0.18164600  0.70460200  0.32708600  1
  H  517  1  0.30448000  0.69969500  0.35122700  1
  H  518  1  0.29214500  0.73282200  0.39147900  1
  H  523  1  0.16952300  0.73747800  0.36738300  1
  H  549  1  0.67281400  0.38897900  0.36865300  1
  H  550  1  0.72452700  0.35276300  0.36201700  1
  H  551  1  0.64894800  0.38731700  0.27685700  1
  H  552  1  0.70036300  0.35144700  0.27008100  1
  H  553  1  0.77685600  0.35541100  0.26130000  1
  H  554  1  0.82880500  0.39159400  0.25634800  1
  H  555  1  0.85305400  0.38522800  0.34792100  1
  H  556  1  0.80152700  0.34910500  0.35296900  1
  H  557  1  0.81974300  0.29369400  0.32542000  1
  H  558  1  0.83113300  0.25598100  0.36126700  1
  H  559  1  0.70929800  0.26071600  0.38756600  1
  H  560  1  0.69747000  0.29821300  0.35130000  1
  H  561  1  0.68182400  0.29483500  0.29391000  1
  H  562  1  0.80462200  0.30001100  0.26969500  1
  H  563  1  0.79244500  0.26665100  0.22960700  1
  H  568  1  0.66986700  0.26173400  0.25376000  1
  H  575  1  0.85212500  0.23573200  0.42603300  1
  H  582  1  0.93212000  0.09125200  0.50356300  1
  H  583  1  0.91708000  0.17048700  0.55220300  1
  H  584  1  0.79370600  0.15337200  0.41457300  1
  H  593  1  0.94292800  0.12540800  0.57643400  1
  H  594  1  0.78373100  0.19523900  0.37908200  1
  H  601  1  0.35280000  0.76426200  0.19605200  1
  H  608  1  0.43266500  0.90798000  0.11768400  1
  H  609  1  0.41693500  0.82885300  0.06897550  1
  H  610  1  0.29328600  0.84635000  0.20637700  1
  H  619  1  0.44239000  0.87431400  0.04461550  1
  H  620  1  0.28336200  0.80506800  0.24209400  1
  H  627  1  0.10310300  0.88503700  0.54603300  1
  H  634  1  0.18078200  0.80585200  0.40172400  1
  H  635  1  0.16744100  0.75818900  0.48171300  1
  H  636  1  0.04338700  0.89544000  0.46404000  1
  H  645  1  0.19339500  0.73356700  0.43697000  1
  H  646  1  0.03341000  0.93121200  0.50562400  1
  H  653  1  0.60210900  0.11519100  0.07446650  1
  H  660  1  0.68212000  0.19282800  0.21889100  1
  H  661  1  0.66695000  0.24143400  0.13965100  1
  H  662  1  0.54380200  0.10370700  0.15686600  1
  H  671  1  0.69276800  0.26569900  0.18471200  1
  H  672  1  0.53388400  0.06817600  0.11501800  1
  H  679  1  0.86337900  0.97875100  0.77998100  1
  H  686  1  0.64287000  0.96997000  0.84433200  1
  H  687  1  0.73578200  0.01615000  0.88869200  1
  H  688  1  0.76185900  0.99829800  0.72699800  1
  H  697  1  0.66777100  0.01505700  0.90961400  1
  H  698  1  0.83177900  0.00706300  0.70853600  1
  H  705  1  0.36337500  0.02051300  0.84093600  1
  H  712  1  0.14294900  0.02945200  0.77651800  1
  H  713  1  0.23585100  0.98328300  0.73212500  1
  H  714  1  0.26183500  0.00085600  0.89386600  1
  H  723  1  0.16795800  0.98454800  0.71109500  1
  H  724  1  0.33176300  0.99208800  0.91234400  1
  H  731  1  0.11340400  0.53024700  0.28938200  1
  H  738  1  0.89294600  0.46579800  0.28065700  1
  H  739  1  0.98592400  0.42148500  0.32681800  1
  H  740  1  0.01184400  0.58320100  0.30890100  1
  H  749  1  0.91801500  0.40044500  0.32563400  1
  H  750  1  0.08174800  0.60169700  0.31766000  1
  H  757  1  0.61334800  0.46937400  0.33134200  1
  H  764  1  0.39284000  0.53371600  0.34019100  1
  H  765  1  0.48576000  0.57812100  0.29406100  1
  H  766  1  0.51181900  0.41641700  0.31174000  1
  H  775  1  0.41780900  0.59908700  0.29522600  1
  H  776  1  0.58169100  0.39790400  0.30303500  1
  H  802  1  0.92255800  0.94127600  0.01007010  1
  H  803  1  0.97430100  0.94792500  0.97386900  1
  H  804  1  0.89920200  0.03314800  0.00884507  1
  H  805  1  0.95063200  0.03994100  0.97299000  1
  H  806  1  0.02702700  0.04884300  0.97665300  1
  H  807  1  0.07892200  0.05381900  0.01287110  1
  H  808  1  0.10280100  0.96216800  0.00689407  1
  H  809  1  0.05132200  0.95709400  0.97072600  1
  H  810  1  0.07002600  0.98457500  0.91534200  1
  H  811  1  0.08153300  0.94891100  0.87748700  1
  H  812  1  0.95956300  0.92285300  0.88161800  1
  H  813  1  0.94762400  0.95893000  0.91927900  1
  H  814  1  0.93180600  0.01625800  0.91634300  1
  H  815  1  0.05470300  0.04025800  0.92127900  1
  H  816  1  0.04253700  0.08036400  0.88793900  1
  H  821  1  0.91985800  0.05642800  0.88326900  1
  H  847  1  0.42246400  0.05787900  0.23232300  1
  H  848  1  0.47420400  0.05123900  0.26851500  1
  H  849  1  0.39928600  0.96598100  0.23342600  1
  H  850  1  0.45074000  0.95919900  0.26927900  1
  H  851  1  0.52724200  0.95034300  0.26581900  1
  H  852  1  0.57914500  0.94544000  0.22959800  1
  H  853  1  0.60261000  0.03716000  0.23544400  1
  H  854  1  0.55112900  0.04215300  0.27161400  1
  H  855  1  0.56993900  0.01486700  0.32702300  1
  H  856  1  0.58127800  0.05071200  0.36474000  1
  H  857  1  0.45914300  0.07634400  0.36060000  1
  H  858  1  0.44737600  0.04008000  0.32309200  1
  H  859  1  0.43172100  0.98271500  0.32587700  1
  H  860  1  0.55479700  0.95916500  0.32127200  1
  H  861  1  0.54277900  0.91912200  0.35472100  1
  H  866  1  0.41991500  0.94258100  0.35902700  1
  H  892  1  0.17256700  0.61099900  0.56270400  1
  H  893  1  0.22425600  0.64722500  0.56944000  1
  H  894  1  0.14919600  0.61200700  0.65457500  1
  H  895  1  0.20057000  0.64788400  0.66144700  1
  H  896  1  0.27693100  0.64429900  0.67039500  1
  H  897  1  0.32881300  0.60807400  0.67533700  1
  H  898  1  0.35273300  0.61417800  0.58369900  1
  H  899  1  0.30127200  0.65035600  0.57866900  1
  H  900  1  0.31991500  0.70572300  0.60625200  1
  H  901  1  0.33144300  0.74364400  0.57067000  1
  H  902  1  0.20949600  0.73954500  0.54455000  1
  H  903  1  0.19755500  0.70179900  0.58053400  1
  H  904  1  0.18164600  0.70460200  0.63782300  1
  H  905  1  0.30448000  0.69969500  0.66196400  1
  H  906  1  0.29214500  0.73282200  0.70221600  1
  H  911  1  0.16952300  0.73747800  0.67812000  1
  H  937  1  0.67281400  0.38897900  0.67939000  1
  H  938  1  0.72452700  0.35276300  0.67275400  1
  H  939  1  0.64894800  0.38731700  0.58759400  1
  H  940  1  0.70036300  0.35144700  0.58081800  1
  H  941  1  0.77685600  0.35541100  0.57203700  1
  H  942  1  0.82880500  0.39159400  0.56708500  1
  H  943  1  0.85305400  0.38522800  0.65865800  1
  H  944  1  0.80152700  0.34910500  0.66370600  1
  H  945  1  0.81974300  0.29369400  0.63615700  1
  H  946  1  0.83113300  0.25598100  0.67200400  1
  H  947  1  0.70929800  0.26071600  0.69830300  1
  H  948  1  0.69747000  0.29821300  0.66203700  1
  H  949  1  0.68182400  0.29483500  0.60464700  1
  H  950  1  0.80462200  0.30001100  0.58043200  1
  H  951  1  0.79244500  0.26665100  0.54034400  1
  H  956  1  0.66986700  0.26173400  0.56449700  1
  H  963  1  0.85212500  0.23573200  0.73677000  1
  H  970  1  0.93212000  0.09125200  0.81430000  1
  H  971  1  0.91708000  0.17048700  0.86294000  1
  H  972  1  0.79370600  0.15337200  0.72531000  1
  H  981  1  0.94292800  0.12540800  0.88717100  1
  H  982  1  0.78373100  0.19523900  0.68981900  1
  H  989  1  0.35280000  0.76426200  0.50678900  1
  H  996  1  0.43266500  0.90798000  0.42842100  1
  H  997  1  0.41693500  0.82885300  0.37971300  1
  H  998  1  0.29328600  0.84635000  0.51711400  1
  H  1007  1  0.44239000  0.87431400  0.35535300  1
  H  1008  1  0.28336200  0.80506800  0.55283100  1
  H  1015  1  0.10310300  0.88503700  0.85677000  1
  H  1022  1  0.18078200  0.80585200  0.71246100  1
  H  1023  1  0.16744100  0.75818900  0.79245000  1
  H  1024  1  0.04338700  0.89544000  0.77477700  1
  H  1033  1  0.19339500  0.73356700  0.74770700  1
  H  1034  1  0.03341000  0.93121200  0.81636100  1
  H  1041  1  0.60210900  0.11519100  0.38520400  1
  H  1048  1  0.68212000  0.19282800  0.52962800  1
  H  1049  1  0.66695000  0.24143400  0.45038800  1
  H  1050  1  0.54380200  0.10370700  0.46760300  1
  H  1059  1  0.69276800  0.26569900  0.49544900  1
  H  1060  1  0.53388400  0.06817600  0.42575500  1
  H  1067  1  0.86337900  0.97875100  0.09071810  1
  H  1074  1  0.64287000  0.96997000  0.15506900  1
  H  1075  1  0.73578200  0.01615000  0.19942900  1
  H  1076  1  0.76185900  0.99829800  0.03773510  1
  H  1085  1  0.66777100  0.01505700  0.22035100  1
  H  1086  1  0.83177900  0.00706300  0.01927310  1
  H  1093  1  0.36337500  0.02051300  0.15167300  1
  H  1100  1  0.14294900  0.02945200  0.08725510  1
  H  1101  1  0.23585100  0.98328300  0.04286210  1
  H  1102  1  0.26183500  0.00085600  0.20460300  1
  H  1111  1  0.16795800  0.98454800  0.02183210  1
  H  1112  1  0.33176300  0.99208800  0.22308100  1
  H  1119  1  0.11340400  0.53024700  0.60011900  1
  H  1126  1  0.89294600  0.46579800  0.59139400  1
  H  1127  1  0.98592400  0.42148500  0.63755500  1
  H  1128  1  0.01184400  0.58320100  0.61963800  1
  H  1137  1  0.91801500  0.40044500  0.63637100  1
  H  1138  1  0.08174800  0.60169700  0.62839700  1
  H  1145  1  0.61334800  0.46937400  0.64207900  1
  H  1152  1  0.39284000  0.53371600  0.65092800  1
  H  1153  1  0.48576000  0.57812100  0.60479800  1
  H  1154  1  0.51181900  0.41641700  0.62247700  1
  H  1163  1  0.41780900  0.59908700  0.60596300  1
  H  1164  1  0.58169100  0.39790400  0.61377200  1
  C  1  1  0.97974300  0.07298500  0.26220900  1
  C  2  1  0.01888800  0.06722200  0.27285000  1
  C  3  1  0.02576600  0.04373900  0.29283300  1
  C  4  1  0.99389000  0.02532300  0.30317300  1
  C  5  1  0.95547600  0.02992700  0.28989200  1
  C  6  1  0.94823100  0.05356100  0.27028200  1
  C  7  1  0.00086500  0.99917700  0.32419700  1
  C  8  1  0.00810000  0.97446200  0.30158400  1
  C  9  1  0.97644000  0.95652000  0.29014700  1
  C  10  1  0.98320000  0.93540500  0.26764700  1
  C  11  1  0.02160500  0.93245700  0.25462700  1
  C  12  1  0.05330300  0.95055100  0.26506200  1
  C  13  1  0.04639200  0.97138400  0.28767200  1
  C  14  1  0.03566700  0.00288300  0.34613700  1
  C  15  1  0.96589800  0.99430500  0.34579300  1
  C  16  1  0.95779000  0.96606100  0.35855600  1
  C  17  1  0.92752000  0.96203700  0.38011200  1
  C  18  1  0.90444400  0.98630200  0.39009100  1
  C  19  1  0.91376200  0.01485000  0.37922400  1
  C  20  1  0.94420400  0.01870100  0.35791000  1
  C  21  1  0.04359700  0.03043900  0.36037400  1
  C  22  1  0.07396800  0.03345500  0.38198500  1
  C  23  1  0.09724900  0.00880700  0.39067100  1
  C  24  1  0.08802900  0.98081000  0.37835600  1
  C  25  1  0.05755800  0.97795800  0.35687800  1
  C  46  1  0.47990800  0.92624500  0.73729600  1
  C  47  1  0.51905500  0.93212900  0.72673100  1
  C  48  1  0.52585400  0.95558300  0.70670200  1
  C  49  1  0.49389800  0.97385900  0.69624800  1
  C  50  1  0.45545400  0.96913100  0.70944300  1
  C  51  1  0.44829000  0.94551700  0.72909300  1
  C  52  1  0.50082400  0.00001200  0.67522600  1
  C  53  1  0.50794900  0.02474600  0.69783500  1
  C  54  1  0.47618600  0.04261100  0.70925000  1
  C  55  1  0.48284600  0.06384000  0.73165400  1
  C  56  1  0.52124800  0.06696200  0.74463200  1
  C  57  1  0.55303800  0.04891900  0.73426200  1
  C  58  1  0.54622700  0.02798500  0.71172700  1
  C  59  1  0.53567000  0.99633200  0.65332200  1
  C  60  1  0.46588500  0.00484000  0.65360100  1
  C  61  1  0.45773500  0.03309100  0.64086100  1
  C  62  1  0.42745900  0.03711100  0.61930700  1
  C  63  1  0.40441400  0.01283900  0.60931200  1
  C  64  1  0.41382800  0.98428200  0.62011000  1
  C  65  1  0.44426600  0.98043700  0.64143100  1
  C  66  1  0.54372700  0.96877800  0.63911900  1
  C  67  1  0.57410500  0.96580600  0.61750500  1
  C  68  1  0.59724100  0.99050300  0.60875500  1
  C  69  1  0.58792000  0.01849000  0.62104900  1
  C  70  1  0.55744800  0.02129300  0.64253500  1
  C  91  1  0.22936100  0.73704800  0.07330100  1
  C  92  1  0.26854400  0.72648900  0.06752600  1
  C  93  1  0.27552500  0.70662900  0.04395400  1
  C  94  1  0.24371400  0.69630300  0.02546900  1
  C  95  1  0.20527400  0.70955200  0.03006500  1
  C  96  1  0.19792600  0.72904400  0.05377700  1
  C  97  1  0.25076700  0.67534200  0.99928600  1
  C  98  1  0.25801400  0.69798800  0.97460900  1
  C  99  1  0.22636900  0.70947000  0.95667900  1
  C  100  1  0.23313200  0.73201600  0.93561600  1
  C  101  1  0.27153100  0.74505100  0.93270400  1
  C  102  1  0.30321600  0.73458200  0.95079500  1
  C  103  1  0.29629200  0.71193100  0.97158400  1
  C  104  1  0.28559400  0.65342200  0.00298000  1
  C  105  1  0.21582500  0.65374300  0.99435200  1
  C  106  1  0.20775100  0.64101200  0.96608600  1
  C  107  1  0.17750500  0.61944500  0.96200800  1
  C  108  1  0.15443200  0.60939900  0.98624600  1
  C  109  1  0.16375800  0.62019300  0.01482000  1
  C  110  1  0.19416000  0.64152900  0.01871600  1
  C  111  1  0.29350300  0.63912500  0.03051000  1
  C  112  1  0.32386900  0.61750700  0.03350800  1
  C  113  1  0.34713800  0.60883500  0.00885100  1
  C  114  1  0.33794700  0.62120200  0.98087200  1
  C  115  1  0.30748700  0.64269400  0.97804900  1
  C  136  1  0.72969100  0.26227600  0.92635600  1
  C  137  1  0.76881100  0.27300800  0.93204000  1
  C  138  1  0.77569800  0.29299500  0.95551900  1
  C  139  1  0.74384800  0.30326000  0.97399900  1
  C  140  1  0.70546400  0.28990900  0.96945500  1
  C  141  1  0.69821200  0.27028600  0.94583500  1
  C  142  1  0.75080300  0.32429000  0.00014100  1
  C  143  1  0.75791300  0.30168400  0.02488100  1
  C  144  1  0.72623800  0.29045100  0.04294100  1
  C  145  1  0.73292800  0.26804200  0.06416100  1
  C  146  1  0.77125500  0.25490500  0.06710600  1
  C  147  1  0.80294500  0.26509900  0.04886500  1
  C  148  1  0.79611000  0.28763000  0.02793300  1
  C  149  1  0.78566700  0.34618600  0.99646700  1
  C  150  1  0.71586700  0.34592400  0.00495700  1
  C  151  1  0.70792800  0.35884200  0.03316100  1
  C  152  1  0.67766400  0.38040500  0.03717700  1
  C  153  1  0.65444400  0.39026000  0.01293900  1
  C  154  1  0.66364100  0.37928200  0.98441000  1
  C  155  1  0.69404700  0.35793400  0.98057300  1
  C  156  1  0.79351300  0.36052200  0.96894900  1
  C  157  1  0.82391500  0.38211200  0.96594800  1
  C  158  1  0.84730700  0.39068800  0.99057900  1
  C  159  1  0.83817400  0.37827200  0.01854600  1
  C  160  1  0.80769900  0.35679300  0.02137900  1
  C  181  1  0.81809000  0.19705300  0.10605600  1
  C  182  1  0.81426300  0.16690400  0.11400100  1
  C  184  1  0.86691700  0.17081700  0.15037500  1
  C  185  1  0.87233200  0.20129500  0.14336800  1
  C  186  1  0.84771800  0.21395900  0.12099700  1
  C  188  1  0.88904000  0.15568300  0.17276800  1
  C  189  1  0.90291800  0.12598600  0.16998800  1
  C  190  1  0.92269700  0.11283300  0.19455700  1
  C  191  1  0.92884400  0.12856800  0.22134300  1
  C  192  1  0.91428700  0.15798000  0.22263200  1
  C  203  1  0.94535300  0.11507100  0.24622600  1
  C  204  1  0.79585000  0.20914900  0.08303700  1
  C  207  1  0.31820100  0.80280200  0.89401000  1
  C  208  1  0.31395400  0.83280600  0.88561600  1
  C  210  1  0.36665700  0.82876900  0.84931100  1
  C  211  1  0.37244900  0.79842300  0.85669900  1
  C  212  1  0.34805500  0.78590900  0.87928300  1
  C  214  1  0.38880700  0.84380200  0.82688400  1
  C  215  1  0.40296300  0.87342200  0.82970100  1
  C  216  1  0.42296800  0.88646800  0.80517700  1
  C  217  1  0.42899100  0.87070900  0.77839400  1
  C  218  1  0.41414100  0.84138000  0.77706000  1
  C  229  1  0.44591000  0.88402900  0.75358300  1
  C  230  1  0.29637300  0.79090300  0.91738400  1
  C  233  1  0.06840900  0.89374400  0.19681100  1
  C  234  1  0.06415100  0.88544500  0.16678900  1
  C  236  1  0.11695800  0.84918200  0.17068800  1
  C  237  1  0.12281700  0.85655500  0.20103600  1
  C  238  1  0.09836700  0.87906400  0.21363200  1
  C  240  1  0.13892000  0.82665800  0.15561800  1
  C  241  1  0.15222000  0.82908600  0.12574600  1
  C  242  1  0.17178700  0.80437600  0.11268400  1
  C  243  1  0.17836700  0.77780800  0.12869300  1
  C  244  1  0.16436900  0.77686200  0.15826700  1
  C  255  1  0.19458800  0.75276200  0.11530900  1
  C  256  1  0.04641700  0.91694000  0.20878100  1
  C  259  1  0.56812900  0.10593900  0.80243100  1
  C  260  1  0.56432000  0.11389100  0.83258000  1
  C  262  1  0.61691400  0.15031100  0.82862200  1
  C  263  1  0.62230400  0.14330000  0.79814300  1
  C  264  1  0.59770500  0.12090600  0.78550100  1
  C  266  1  0.63904200  0.17271300  0.84373900  1
  C  267  1  0.65293600  0.16995500  0.87343500  1
  C  268  1  0.67269300  0.19454300  0.88657200  1
  C  269  1  0.67881100  0.22132400  0.87082500  1
  C  270  1  0.66422300  0.22259500  0.84141800  1
  C  281  1  0.69525000  0.24623500  0.88431500  1
  C  282  1  0.54592600  0.08289000  0.79035500  1
  C  285  1  0.81726700  0.98855200  0.43816900  1
  C  286  1  0.77517600  0.99271800  0.43596700  1
  C  288  1  0.76559000  0.98385100  0.48798700  1
  C  289  1  0.80763600  0.97916800  0.49173800  1
  C  290  1  0.83294900  0.98151200  0.46651300  1
  C  292  1  0.73757300  0.98486300  0.51181200  1
  C  293  1  0.69774200  0.97341300  0.51024900  1
  C  294  1  0.67172500  0.97796700  0.53478900  1
  C  295  1  0.68447200  0.99372100  0.56030900  1
  C  296  1  0.72452700  0.00437900  0.56039600  1
  C  307  1  0.65911300  0.99989100  0.58409800  1
  C  308  1  0.84178700  0.99358600  0.41372100  1
  C  311  1  0.31725400  0.01060100  0.56123700  1
  C  312  1  0.27516400  0.00643100  0.56342300  1
  C  314  1  0.26560500  0.01538700  0.51142100  1
  C  315  1  0.30764400  0.02011000  0.50768800  1
  C  316  1  0.33294600  0.01772200  0.53291500  1
  C  318  1  0.23761200  0.01445500  0.48758100  1
  C  319  1  0.19779300  0.02593000  0.48914600  1
  C  320  1  0.17179300  0.02142800  0.46458800  1
  C  321  1  0.18454300  0.00570800  0.43904800  1
  C  322  1  0.22458600  0.99502700  0.43896100  1
  C  333  1  0.15920600  0.99958300  0.41523200  1
  C  334  1  0.34176300  0.00557600  0.58569200  1
  C  337  1  0.06727100  0.56131200  0.98843500  1
  C  338  1  0.02517900  0.56349600  0.99260100  1
  C  340  1  0.01563400  0.51146100  0.98379100  1
  C  341  1  0.05768000  0.50773000  0.97909000  1
  C  342  1  0.08297300  0.53296600  0.98141900  1
  C  344  1  0.98764000  0.48762100  0.98477900  1
  C  345  1  0.94779300  0.48917200  0.97335500  1
  C  346  1  0.92180100  0.46462400  0.97792700  1
  C  347  1  0.93458100  0.43910300  0.99366600  1
  C  348  1  0.97463900  0.43903900  0.00431700  1
  C  359  1  0.90925900  0.41528800  0.99983000  1
  C  360  1  0.09177700  0.58576700  0.99346200  1
  C  363  1  0.56723700  0.43831100  0.01075900  1
  C  364  1  0.52514200  0.43611600  0.00659600  1
  C  366  1  0.51556200  0.48812900  0.01551100  1
  C  367  1  0.55760500  0.49186900  0.02021400  1
  C  368  1  0.58291600  0.46664400  0.01784900  1
  C  370  1  0.48755500  0.51196300  0.01457000  1
  C  371  1  0.44771700  0.51038000  0.02600200  1
  C  372  1  0.42170100  0.53492400  0.02146800  1
  C  373  1  0.43445400  0.56046700  0.00575200  1
  C  374  1  0.47451200  0.56056400  0.99510000  1
  C  385  1  0.40909200  0.58425400  0.99957700  1
  C  386  1  0.59174800  0.41386300  0.00571400  1
  C  389  1  0.97974300  0.07298500  0.57294700  1
  C  390  1  0.01888800  0.06722200  0.58358800  1
  C  391  1  0.02576600  0.04373900  0.60357100  1
  C  392  1  0.99389000  0.02532300  0.61391100  1
  C  393  1  0.95547600  0.02992700  0.60063000  1
  C  394  1  0.94823100  0.05356100  0.58102000  1
  C  395  1  0.00086500  0.99917700  0.63493500  1
  C  396  1  0.00810000  0.97446200  0.61232200  1
  C  397  1  0.97644000  0.95652000  0.60088500  1
  C  398  1  0.98320000  0.93540500  0.57838500  1
  C  399  1  0.02160500  0.93245700  0.56536500  1
  C  400  1  0.05330300  0.95055100  0.57580000  1
  C  401  1  0.04639200  0.97138400  0.59841000  1
  C  402  1  0.03566700  0.00288300  0.65687500  1
  C  403  1  0.96589800  0.99430500  0.65653100  1
  C  404  1  0.95779000  0.96606100  0.66929400  1
  C  405  1  0.92752000  0.96203700  0.69085000  1
  C  406  1  0.90444400  0.98630200  0.70082900  1
  C  407  1  0.91376200  0.01485000  0.68996200  1
  C  408  1  0.94420400  0.01870100  0.66864800  1
  C  409  1  0.04359700  0.03043900  0.67111200  1
  C  410  1  0.07396800  0.03345500  0.69272300  1
  C  411  1  0.09724900  0.00880700  0.70140900  1
  C  412  1  0.08802900  0.98081000  0.68909400  1
  C  413  1  0.05755800  0.97795800  0.66761600  1
  C  434  1  0.47990800  0.92624500  0.04803350  1
  C  435  1  0.51905500  0.93212900  0.03746850  1
  C  436  1  0.52585400  0.95558300  0.01743950  1
  C  437  1  0.49389800  0.97385900  0.00698554  1
  C  438  1  0.45545400  0.96913100  0.02018050  1
  C  439  1  0.44829000  0.94551700  0.03983050  1
  C  440  1  0.50082400  0.00001200  0.98596400  1
  C  441  1  0.50794900  0.02474600  0.00857254  1
  C  442  1  0.47618600  0.04261100  0.01998750  1
  C  443  1  0.48284600  0.06384000  0.04239150  1
  C  444  1  0.52124800  0.06696200  0.05536950  1
  C  445  1  0.55303800  0.04891900  0.04499950  1
  C  446  1  0.54622700  0.02798500  0.02246450  1
  C  447  1  0.53567000  0.99633200  0.96406000  1
  C  448  1  0.46588500  0.00484000  0.96433900  1
  C  449  1  0.45773500  0.03309100  0.95159900  1
  C  450  1  0.42745900  0.03711100  0.93004500  1
  C  451  1  0.40441400  0.01283900  0.92005000  1
  C  452  1  0.41382800  0.98428200  0.93084800  1
  C  453  1  0.44426600  0.98043700  0.95216900  1
  C  454  1  0.54372700  0.96877800  0.94985700  1
  C  455  1  0.57410500  0.96580600  0.92824300  1
  C  456  1  0.59724100  0.99050300  0.91949300  1
  C  457  1  0.58792000  0.01849000  0.93178700  1
  C  458  1  0.55744800  0.02129300  0.95327300  1
  C  479  1  0.22936100  0.73704800  0.38403900  1
  C  480  1  0.26854400  0.72648900  0.37826400  1
  C  481  1  0.27552500  0.70662900  0.35469200  1
  C  482  1  0.24371400  0.69630300  0.33620700  1
  C  483  1  0.20527400  0.70955200  0.34080300  1
  C  484  1  0.19792600  0.72904400  0.36451500  1
  C  485  1  0.25076700  0.67534200  0.31002400  1
  C  486  1  0.25801400  0.69798800  0.28534700  1
  C  487  1  0.22636900  0.70947000  0.26741700  1
  C  488  1  0.23313200  0.73201600  0.24635400  1
  C  489  1  0.27153100  0.74505100  0.24344200  1
  C  490  1  0.30321600  0.73458200  0.26153300  1
  C  491  1  0.29629200  0.71193100  0.28232200  1
  C  492  1  0.28559400  0.65342200  0.31371800  1
  C  493  1  0.21582500  0.65374300  0.30509000  1
  C  494  1  0.20775100  0.64101200  0.27682400  1
  C  495  1  0.17750500  0.61944500  0.27274600  1
  C  496  1  0.15443200  0.60939900  0.29698400  1
  C  497  1  0.16375800  0.62019300  0.32555800  1
  C  498  1  0.19416000  0.64152900  0.32945400  1
  C  499  1  0.29350300  0.63912500  0.34124800  1
  C  500  1  0.32386900  0.61750700  0.34424600  1
  C  501  1  0.34713800  0.60883500  0.31958900  1
  C  502  1  0.33794700  0.62120200  0.29161000  1
  C  503  1  0.30748700  0.64269400  0.28878700  1
  C  524  1  0.72969100  0.26227600  0.23709400  1
  C  525  1  0.76881100  0.27300800  0.24277800  1
  C  526  1  0.77569800  0.29299500  0.26625700  1
  C  527  1  0.74384800  0.30326000  0.28473700  1
  C  528  1  0.70546400  0.28990900  0.28019300  1
  C  529  1  0.69821200  0.27028600  0.25657300  1
  C  530  1  0.75080300  0.32429000  0.31087900  1
  C  531  1  0.75791300  0.30168400  0.33561900  1
  C  532  1  0.72623800  0.29045100  0.35367900  1
  C  533  1  0.73292800  0.26804200  0.37489900  1
  C  534  1  0.77125500  0.25490500  0.37784400  1
  C  535  1  0.80294500  0.26509900  0.35960300  1
  C  536  1  0.79611000  0.28763000  0.33867100  1
  C  537  1  0.78566700  0.34618600  0.30720500  1
  C  538  1  0.71586700  0.34592400  0.31569500  1
  C  539  1  0.70792800  0.35884200  0.34389900  1
  C  540  1  0.67766400  0.38040500  0.34791500  1
  C  541  1  0.65444400  0.39026000  0.32367700  1
  C  542  1  0.66364100  0.37928200  0.29514800  1
  C  543  1  0.69404700  0.35793400  0.29131100  1
  C  544  1  0.79351300  0.36052200  0.27968700  1
  C  545  1  0.82391500  0.38211200  0.27668600  1
  C  546  1  0.84730700  0.39068800  0.30131700  1
  C  547  1  0.83817400  0.37827200  0.32928400  1
  C  548  1  0.80769900  0.35679300  0.33211700  1
  C  569  1  0.81809000  0.19705300  0.41679400  1
  C  570  1  0.81426300  0.16690400  0.42473900  1
  C  572  1  0.86691700  0.17081700  0.46111300  1
  C  573  1  0.87233200  0.20129500  0.45410600  1
  C  574  1  0.84771800  0.21395900  0.43173500  1
  C  576  1  0.88904000  0.15568300  0.48350600  1
  C  577  1  0.90291800  0.12598600  0.48072600  1
  C  578  1  0.92269700  0.11283300  0.50529500  1
  C  579  1  0.92884400  0.12856800  0.53208100  1
  C  580  1  0.91428700  0.15798000  0.53337000  1
  C  591  1  0.94535300  0.11507100  0.55696400  1
  C  592  1  0.79585000  0.20914900  0.39377500  1
  C  595  1  0.31820100  0.80280200  0.20474800  1
  C  596  1  0.31395400  0.83280600  0.19635400  1
  C  598  1  0.36665700  0.82876900  0.16004900  1
  C  599  1  0.37244900  0.79842300  0.16743700  1
  C  600  1  0.34805500  0.78590900  0.19002100  1
  C  602  1  0.38880700  0.84380200  0.13762200  1
  C  603  1  0.40296300  0.87342200  0.14043900  1
  C  604  1  0.42296800  0.88646800  0.11591500  1
  C  605  1  0.42899100  0.87070900  0.08913150  1
  C  606  1  0.41414100  0.84138000  0.08779750  1
  C  617  1  0.44591000  0.88402900  0.06432050  1
  C  618  1  0.29637300  0.79090300  0.22812200  1
  C  621  1  0.06840900  0.89374400  0.50754900  1
  C  622  1  0.06415100  0.88544500  0.47752700  1
  C  624  1  0.11695800  0.84918200  0.48142600  1
  C  625  1  0.12281700  0.85655500  0.51177400  1
  C  626  1  0.09836700  0.87906400  0.52437000  1
  C  628  1  0.13892000  0.82665800  0.46635600  1
  C  629  1  0.15222000  0.82908600  0.43648400  1
  C  630  1  0.17178700  0.80437600  0.42342200  1
  C  631  1  0.17836700  0.77780800  0.43943100  1
  C  632  1  0.16436900  0.77686200  0.46900500  1
  C  643  1  0.19458800  0.75276200  0.42604700  1
  C  644  1  0.04641700  0.91694000  0.51951900  1
  C  647  1  0.56812900  0.10593900  0.11316900  1
  C  648  1  0.56432000  0.11389100  0.14331800  1
  C  650  1  0.61691400  0.15031100  0.13936000  1
  C  651  1  0.62230400  0.14330000  0.10888100  1
  C  652  1  0.59770500  0.12090600  0.09623850  1
  C  654  1  0.63904200  0.17271300  0.15447700  1
  C  655  1  0.65293600  0.16995500  0.18417300  1
  C  656  1  0.67269300  0.19454300  0.19731000  1
  C  657  1  0.67881100  0.22132400  0.18156300  1
  C  658  1  0.66422300  0.22259500  0.15215600  1
  C  669  1  0.69525000  0.24623500  0.19505300  1
  C  670  1  0.54592600  0.08289000  0.10109300  1
  C  673  1  0.81726700  0.98855200  0.74890700  1
  C  674  1  0.77517600  0.99271800  0.74670500  1
  C  676  1  0.76559000  0.98385100  0.79872500  1
  C  677  1  0.80763600  0.97916800  0.80247600  1
  C  678  1  0.83294900  0.98151200  0.77725100  1
  C  680  1  0.73757300  0.98486300  0.82255000  1
  C  681  1  0.69774200  0.97341300  0.82098700  1
  C  682  1  0.67172500  0.97796700  0.84552700  1
  C  683  1  0.68447200  0.99372100  0.87104700  1
  C  684  1  0.72452700  0.00437900  0.87113400  1
  C  695  1  0.65911300  0.99989100  0.89483600  1
  C  696  1  0.84178700  0.99358600  0.72445900  1
  C  699  1  0.31725400  0.01060100  0.87197500  1
  C  700  1  0.27516400  0.00643100  0.87416100  1
  C  702  1  0.26560500  0.01538700  0.82215900  1
  C  703  1  0.30764400  0.02011000  0.81842600  1
  C  704  1  0.33294600  0.01772200  0.84365300  1
  C  706  1  0.23761200  0.01445500  0.79831900  1
  C  707  1  0.19779300  0.02593000  0.79988400  1
  C  708  1  0.17179300  0.02142800  0.77532600  1
  C  709  1  0.18454300  0.00570800  0.74978600  1
  C  710  1  0.22458600  0.99502700  0.74969900  1
  C  721  1  0.15920600  0.99958300  0.72597000  1
  C  722  1  0.34176300  0.00557600  0.89643000  1
  C  725  1  0.06727100  0.56131200  0.29917300  1
  C  726  1  0.02517900  0.56349600  0.30333900  1
  C  728  1  0.01563400  0.51146100  0.29452900  1
  C  729  1  0.05768000  0.50773000  0.28982800  1
  C  730  1  0.08297300  0.53296600  0.29215700  1
  C  732  1  0.98764000  0.48762100  0.29551700  1
  C  733  1  0.94779300  0.48917200  0.28409300  1
  C  734  1  0.92180100  0.46462400  0.28866500  1
  C  735  1  0.93458100  0.43910300  0.30440400  1
  C  736  1  0.97463900  0.43903900  0.31505500  1
  C  747  1  0.90925900  0.41528800  0.31056800  1
  C  748  1  0.09177700  0.58576700  0.30420000  1
  C  751  1  0.56723700  0.43831100  0.32149700  1
  C  752  1  0.52514200  0.43611600  0.31733400  1
  C  754  1  0.51556200  0.48812900  0.32624900  1
  C  755  1  0.55760500  0.49186900  0.33095200  1
  C  756  1  0.58291600  0.46664400  0.32858700  1
  C  758  1  0.48755500  0.51196300  0.32530800  1
  C  759  1  0.44771700  0.51038000  0.33674000  1
  C  760  1  0.42170100  0.53492400  0.33220600  1
  C  761  1  0.43445400  0.56046700  0.31649000  1
  C  762  1  0.47451200  0.56056400  0.30583800  1
  C  773  1  0.40909200  0.58425400  0.31031500  1
  C  774  1  0.59174800  0.41386300  0.31645200  1
  C  777  1  0.97974300  0.07298500  0.88368400  1
  C  778  1  0.01888800  0.06722200  0.89432500  1
  C  779  1  0.02576600  0.04373900  0.91430800  1
  C  780  1  0.99389000  0.02532300  0.92464800  1
  C  781  1  0.95547600  0.02992700  0.91136700  1
  C  782  1  0.94823100  0.05356100  0.89175700  1
  C  783  1  0.00086500  0.99917700  0.94567200  1
  C  784  1  0.00810000  0.97446200  0.92305900  1
  C  785  1  0.97644000  0.95652000  0.91162200  1
  C  786  1  0.98320000  0.93540500  0.88912200  1
  C  787  1  0.02160500  0.93245700  0.87610200  1
  C  788  1  0.05330300  0.95055100  0.88653700  1
  C  789  1  0.04639200  0.97138400  0.90914700  1
  C  790  1  0.03566700  0.00288300  0.96761200  1
  C  791  1  0.96589800  0.99430500  0.96726800  1
  C  792  1  0.95779000  0.96606100  0.98003100  1
  C  793  1  0.92752000  0.96203700  0.00158707  1
  C  794  1  0.90444400  0.98630200  0.01156610  1
  C  795  1  0.91376200  0.01485000  0.00069907  1
  C  796  1  0.94420400  0.01870100  0.97938500  1
  C  797  1  0.04359700  0.03043900  0.98184900  1
  C  798  1  0.07396800  0.03345500  0.00346007  1
  C  799  1  0.09724900  0.00880700  0.01214610  1
  C  800  1  0.08802900  0.98081000  0.99983100  1
  C  801  1  0.05755800  0.97795800  0.97835300  1
  C  822  1  0.47990800  0.92624500  0.35877100  1
  C  823  1  0.51905500  0.93212900  0.34820600  1
  C  824  1  0.52585400  0.95558300  0.32817700  1
  C  825  1  0.49389800  0.97385900  0.31772300  1
  C  826  1  0.45545400  0.96913100  0.33091800  1
  C  827  1  0.44829000  0.94551700  0.35056800  1
  C  828  1  0.50082400  0.00001200  0.29670100  1
  C  829  1  0.50794900  0.02474600  0.31931000  1
  C  830  1  0.47618600  0.04261100  0.33072500  1
  C  831  1  0.48284600  0.06384000  0.35312900  1
  C  832  1  0.52124800  0.06696200  0.36610700  1
  C  833  1  0.55303800  0.04891900  0.35573700  1
  C  834  1  0.54622700  0.02798500  0.33320200  1
  C  835  1  0.53567000  0.99633200  0.27479700  1
  C  836  1  0.46588500  0.00484000  0.27507600  1
  C  837  1  0.45773500  0.03309100  0.26233600  1
  C  838  1  0.42745900  0.03711100  0.24078200  1
  C  839  1  0.40441400  0.01283900  0.23078700  1
  C  840  1  0.41382800  0.98428200  0.24158500  1
  C  841  1  0.44426600  0.98043700  0.26290600  1
  C  842  1  0.54372700  0.96877800  0.26059400  1
  C  843  1  0.57410500  0.96580600  0.23898000  1
  C  844  1  0.59724100  0.99050300  0.23023000  1
  C  845  1  0.58792000  0.01849000  0.24252400  1
  C  846  1  0.55744800  0.02129300  0.26401000  1
  C  867  1  0.22936100  0.73704800  0.69477600  1
  C  868  1  0.26854400  0.72648900  0.68900100  1
  C  869  1  0.27552500  0.70662900  0.66542900  1
  C  870  1  0.24371400  0.69630300  0.64694400  1
  C  871  1  0.20527400  0.70955200  0.65154000  1
  C  872  1  0.19792600  0.72904400  0.67525200  1
  C  873  1  0.25076700  0.67534200  0.62076100  1
  C  874  1  0.25801400  0.69798800  0.59608400  1
  C  875  1  0.22636900  0.70947000  0.57815400  1
  C  876  1  0.23313200  0.73201600  0.55709100  1
  C  877  1  0.27153100  0.74505100  0.55417900  1
  C  878  1  0.30321600  0.73458200  0.57227000  1
  C  879  1  0.29629200  0.71193100  0.59305900  1
  C  880  1  0.28559400  0.65342200  0.62445500  1
  C  881  1  0.21582500  0.65374300  0.61582700  1
  C  882  1  0.20775100  0.64101200  0.58756100  1
  C  883  1  0.17750500  0.61944500  0.58348300  1
  C  884  1  0.15443200  0.60939900  0.60772100  1
  C  885  1  0.16375800  0.62019300  0.63629500  1
  C  886  1  0.19416000  0.64152900  0.64019100  1
  C  887  1  0.29350300  0.63912500  0.65198500  1
  C  888  1  0.32386900  0.61750700  0.65498300  1
  C  889  1  0.34713800  0.60883500  0.63032600  1
  C  890  1  0.33794700  0.62120200  0.60234700  1
  C  891  1  0.30748700  0.64269400  0.59952400  1
  C  912  1  0.72969100  0.26227600  0.54783100  1
  C  913  1  0.76881100  0.27300800  0.55351500  1
  C  914  1  0.77569800  0.29299500  0.57699400  1
  C  915  1  0.74384800  0.30326000  0.59547400  1
  C  916  1  0.70546400  0.28990900  0.59093000  1
  C  917  1  0.69821200  0.27028600  0.56731000  1
  C  918  1  0.75080300  0.32429000  0.62161600  1
  C  919  1  0.75791300  0.30168400  0.64635600  1
  C  920  1  0.72623800  0.29045100  0.66441600  1
  C  921  1  0.73292800  0.26804200  0.68563600  1
  C  922  1  0.77125500  0.25490500  0.68858100  1
  C  923  1  0.80294500  0.26509900  0.67034000  1
  C  924  1  0.79611000  0.28763000  0.64940800  1
  C  925  1  0.78566700  0.34618600  0.61794200  1
  C  926  1  0.71586700  0.34592400  0.62643200  1
  C  927  1  0.70792800  0.35884200  0.65463600  1
  C  928  1  0.67766400  0.38040500  0.65865200  1
  C  929  1  0.65444400  0.39026000  0.63441400  1
  C  930  1  0.66364100  0.37928200  0.60588500  1
  C  931  1  0.69404700  0.35793400  0.60204800  1
  C  932  1  0.79351300  0.36052200  0.59042400  1
  C  933  1  0.82391500  0.38211200  0.58742300  1
  C  934  1  0.84730700  0.39068800  0.61205400  1
  C  935  1  0.83817400  0.37827200  0.64002100  1
  C  936  1  0.80769900  0.35679300  0.64285400  1
  C  957  1  0.81809000  0.19705300  0.72753100  1
  C  958  1  0.81426300  0.16690400  0.73547600  1
  C  960  1  0.86691700  0.17081700  0.77185000  1
  C  961  1  0.87233200  0.20129500  0.76484300  1
  C  962  1  0.84771800  0.21395900  0.74247200  1
  C  964  1  0.88904000  0.15568300  0.79424300  1
  C  965  1  0.90291800  0.12598600  0.79146300  1
  C  966  1  0.92269700  0.11283300  0.81603200  1
  C  967  1  0.92884400  0.12856800  0.84281800  1
  C  968  1  0.91428700  0.15798000  0.84410700  1
  C  979  1  0.94535300  0.11507100  0.86770100  1
  C  980  1  0.79585000  0.20914900  0.70451200  1
  C  983  1  0.31820100  0.80280200  0.51548500  1
  C  984  1  0.31395400  0.83280600  0.50709100  1
  C  986  1  0.36665700  0.82876900  0.47078600  1
  C  987  1  0.37244900  0.79842300  0.47817400  1
  C  988  1  0.34805500  0.78590900  0.50075800  1
  C  990  1  0.38880700  0.84380200  0.44835900  1
  C  991  1  0.40296300  0.87342200  0.45117600  1
  C  992  1  0.42296800  0.88646800  0.42665200  1
  C  993  1  0.42899100  0.87070900  0.39986900  1
  C  994  1  0.41414100  0.84138000  0.39853500  1
  C  1005  1  0.44591000  0.88402900  0.37505800  1
  C  1006  1  0.29637300  0.79090300  0.53885900  1
  C  1009  1  0.06840900  0.89374400  0.81828600  1
  C  1010  1  0.06415100  0.88544500  0.78826400  1
  C  1012  1  0.11695800  0.84918200  0.79216300  1
  C  1013  1  0.12281700  0.85655500  0.82251100  1
  C  1014  1  0.09836700  0.87906400  0.83510700  1
  C  1016  1  0.13892000  0.82665800  0.77709300  1
  C  1017  1  0.15222000  0.82908600  0.74722100  1
  C  1018  1  0.17178700  0.80437600  0.73415900  1
  C  1019  1  0.17836700  0.77780800  0.75016800  1
  C  1020  1  0.16436900  0.77686200  0.77974200  1
  C  1031  1  0.19458800  0.75276200  0.73678400  1
  C  1032  1  0.04641700  0.91694000  0.83025600  1
  C  1035  1  0.56812900  0.10593900  0.42390600  1
  C  1036  1  0.56432000  0.11389100  0.45405500  1
  C  1038  1  0.61691400  0.15031100  0.45009700  1
  C  1039  1  0.62230400  0.14330000  0.41961800  1
  C  1040  1  0.59770500  0.12090600  0.40697600  1
  C  1042  1  0.63904200  0.17271300  0.46521400  1
  C  1043  1  0.65293600  0.16995500  0.49491000  1
  C  1044  1  0.67269300  0.19454300  0.50804700  1
  C  1045  1  0.67881100  0.22132400  0.49230000  1
  C  1046  1  0.66422300  0.22259500  0.46289300  1
  C  1057  1  0.69525000  0.24623500  0.50579000  1
  C  1058  1  0.54592600  0.08289000  0.41183000  1
  C  1061  1  0.81726700  0.98855200  0.05964410  1
  C  1062  1  0.77517600  0.99271800  0.05744210  1
  C  1064  1  0.76559000  0.98385100  0.10946200  1
  C  1065  1  0.80763600  0.97916800  0.11321300  1
  C  1066  1  0.83294900  0.98151200  0.08798810  1
  C  1068  1  0.73757300  0.98486300  0.13328700  1
  C  1069  1  0.69774200  0.97341300  0.13172400  1
  C  1070  1  0.67172500  0.97796700  0.15626400  1
  C  1071  1  0.68447200  0.99372100  0.18178400  1
  C  1072  1  0.72452700  0.00437900  0.18187100  1
  C  1083  1  0.65911300  0.99989100  0.20557300  1
  C  1084  1  0.84178700  0.99358600  0.03519610  1
  C  1087  1  0.31725400  0.01060100  0.18271200  1
  C  1088  1  0.27516400  0.00643100  0.18489800  1
  C  1090  1  0.26560500  0.01538700  0.13289600  1
  C  1091  1  0.30764400  0.02011000  0.12916300  1
  C  1092  1  0.33294600  0.01772200  0.15439000  1
  C  1094  1  0.23761200  0.01445500  0.10905600  1
  C  1095  1  0.19779300  0.02593000  0.11062100  1
  C  1096  1  0.17179300  0.02142800  0.08606310  1
  C  1097  1  0.18454300  0.00570800  0.06052310  1
  C  1098  1  0.22458600  0.99502700  0.06043610  1
  C  1109  1  0.15920600  0.99958300  0.03670710  1
  C  1110  1  0.34176300  0.00557600  0.20716700  1
  C  1113  1  0.06727100  0.56131200  0.60991000  1
  C  1114  1  0.02517900  0.56349600  0.61407600  1
  C  1116  1  0.01563400  0.51146100  0.60526600  1
  C  1117  1  0.05768000  0.50773000  0.60056500  1
  C  1118  1  0.08297300  0.53296600  0.60289400  1
  C  1120  1  0.98764000  0.48762100  0.60625400  1
  C  1121  1  0.94779300  0.48917200  0.59483000  1
  C  1122  1  0.92180100  0.46462400  0.59940200  1
  C  1123  1  0.93458100  0.43910300  0.61514100  1
  C  1124  1  0.97463900  0.43903900  0.62579200  1
  C  1135  1  0.90925900  0.41528800  0.62130500  1
  C  1136  1  0.09177700  0.58576700  0.61493700  1
  C  1139  1  0.56723700  0.43831100  0.63223400  1
  C  1140  1  0.52514200  0.43611600  0.62807100  1
  C  1142  1  0.51556200  0.48812900  0.63698600  1
  C  1143  1  0.55760500  0.49186900  0.64168900  1
  C  1144  1  0.58291600  0.46664400  0.63932400  1
  C  1146  1  0.48755500  0.51196300  0.63604500  1
  C  1147  1  0.44771700  0.51038000  0.64747700  1
  C  1148  1  0.42170100  0.53492400  0.64294300  1
  C  1149  1  0.43445400  0.56046700  0.62722700  1
  C  1150  1  0.47451200  0.56056400  0.61657500  1
  C  1161  1  0.40909200  0.58425400  0.62105200  1
  C  1162  1  0.59174800  0.41386300  0.62718900  1
  N  41  1  0.87720600  0.98214400  0.41131900  1
  N  42  1  0.12500100  0.01259100  0.41162100  1
  N  43  1  0.97374600  0.09548800  0.24375400  1
  N  44  1  0.02707100  0.91251500  0.23333100  1
  N  86  1  0.37719000  0.01700700  0.58808700  1
  N  87  1  0.62502800  0.98674800  0.58782000  1
  N  88  1  0.47401400  0.90386300  0.75591600  1
  N  89  1  0.52668100  0.08708400  0.76575500  1
  N  131  1  0.12722100  0.58816200  0.98205600  1
  N  132  1  0.37492500  0.58790700  0.01262800  1
  N  133  1  0.22328200  0.75531500  0.09595300  1
  N  134  1  0.27698300  0.76641200  0.91283000  1
  N  176  1  0.62721200  0.41148800  0.01709000  1
  N  177  1  0.87507400  0.41163200  0.98680800  1
  N  178  1  0.72369200  0.24380300  0.90386700  1
  N  179  1  0.77670500  0.23379200  0.08723700  1
  N  183  1  0.83811900  0.15531800  0.13545700  1
  N  193  1  0.89529900  0.17003400  0.19891900  1
  N  197  1  0.89774200  0.11030100  0.14302500  1
  N  198  1  0.90285200  0.21805400  0.15758600  1
  N  209  1  0.33768100  0.84428100  0.86402200  1
  N  219  1  0.39500200  0.82940100  0.80074900  1
  N  223  1  0.39786800  0.88910500  0.85667100  1
  N  224  1  0.40318000  0.78170700  0.84267900  1
  N  235  1  0.08788800  0.86388600  0.15525900  1
  N  245  1  0.14553100  0.80069100  0.17022100  1
  N  249  1  0.14669400  0.85585200  0.10978900  1
  N  250  1  0.15362200  0.84256800  0.21770900  1
  N  261  1  0.58815800  0.13537100  0.84414300  1
  N  271  1  0.64525000  0.19886700  0.82938100  1
  N  275  1  0.64779300  0.14299800  0.88913400  1
  N  276  1  0.65280000  0.15752600  0.78136800  1
  N  287  1  0.75162100  0.99051400  0.46040700  1
  N  297  1  0.74876700  0.99984200  0.53666800  1
  N  301  1  0.68501800  0.95735400  0.48491700  1
  N  302  1  0.82342700  0.97198500  0.52003500  1
  N  313  1  0.25161500  0.00869000  0.53898600  1
  N  323  1  0.24881200  0.99951000  0.46270600  1
  N  327  1  0.18507400  0.04195600  0.51449700  1
  N  328  1  0.32344100  0.02737400  0.47941500  1
  N  339  1  0.00164500  0.53904300  0.99041900  1
  N  349  1  0.99886100  0.46277500  0.99976800  1
  N  353  1  0.93504300  0.51449500  0.95730100  1
  N  354  1  0.07349500  0.47943900  0.97191000  1
  N  365  1  0.50159000  0.46055500  0.00883100  1
  N  375  1  0.49874900  0.53683100  0.99960800  1
  N  379  1  0.43498800  0.48502600  0.04202100  1
  N  380  1  0.57340200  0.52015300  0.02744300  1
  N  429  1  0.87720600  0.98214400  0.72205700  1
  N  430  1  0.12500100  0.01259100  0.72235900  1
  N  431  1  0.97374600  0.09548800  0.55449200  1
  N  432  1  0.02707100  0.91251500  0.54406900  1
  N  474  1  0.37719000  0.01700700  0.89882500  1
  N  475  1  0.62502800  0.98674800  0.89855800  1
  N  476  1  0.47401400  0.90386300  0.06665350  1
  N  477  1  0.52668100  0.08708400  0.07649250  1
  N  519  1  0.12722100  0.58816200  0.29279400  1
  N  520  1  0.37492500  0.58790700  0.32336600  1
  N  521  1  0.22328200  0.75531500  0.40669100  1
  N  522  1  0.27698300  0.76641200  0.22356800  1
  N  564  1  0.62721200  0.41148800  0.32782800  1
  N  565  1  0.87507400  0.41163200  0.29754600  1
  N  566  1  0.72369200  0.24380300  0.21460500  1
  N  567  1  0.77670500  0.23379200  0.39797500  1
  N  571  1  0.83811900  0.15531800  0.44619500  1
  N  581  1  0.89529900  0.17003400  0.50965700  1
  N  585  1  0.89774200  0.11030100  0.45376300  1
  N  586  1  0.90285200  0.21805400  0.46832400  1
  N  597  1  0.33768100  0.84428100  0.17476000  1
  N  607  1  0.39500200  0.82940100  0.11148700  1
  N  611  1  0.39786800  0.88910500  0.16740900  1
  N  612  1  0.40318000  0.78170700  0.15341700  1
  N  623  1  0.08788800  0.86388600  0.46599700  1
  N  633  1  0.14553100  0.80069100  0.48095900  1
  N  637  1  0.14669400  0.85585200  0.42052700  1
  N  638  1  0.15362200  0.84256800  0.52844700  1
  N  649  1  0.58815800  0.13537100  0.15488100  1
  N  659  1  0.64525000  0.19886700  0.14011900  1
  N  663  1  0.64779300  0.14299800  0.19987200  1
  N  664  1  0.65280000  0.15752600  0.09210550  1
  N  675  1  0.75162100  0.99051400  0.77114500  1
  N  685  1  0.74876700  0.99984200  0.84740600  1
  N  689  1  0.68501800  0.95735400  0.79565500  1
  N  690  1  0.82342700  0.97198500  0.83077300  1
  N  701  1  0.25161500  0.00869000  0.84972400  1
  N  711  1  0.24881200  0.99951000  0.77344400  1
  N  715  1  0.18507400  0.04195600  0.82523500  1
  N  716  1  0.32344100  0.02737400  0.79015300  1
  N  727  1  0.00164500  0.53904300  0.30115700  1
  N  737  1  0.99886100  0.46277500  0.31050600  1
  N  741  1  0.93504300  0.51449500  0.26803900  1
  N  742  1  0.07349500  0.47943900  0.28264800  1
  N  753  1  0.50159000  0.46055500  0.31956900  1
  N  763  1  0.49874900  0.53683100  0.31034600  1
  N  767  1  0.43498800  0.48502600  0.35275900  1
  N  768  1  0.57340200  0.52015300  0.33818100  1
  N  817  1  0.87720600  0.98214400  0.03279410  1
  N  818  1  0.12500100  0.01259100  0.03309610  1
  N  819  1  0.97374600  0.09548800  0.86522900  1
  N  820  1  0.02707100  0.91251500  0.85480600  1
  N  862  1  0.37719000  0.01700700  0.20956200  1
  N  863  1  0.62502800  0.98674800  0.20929500  1
  N  864  1  0.47401400  0.90386300  0.37739100  1
  N  865  1  0.52668100  0.08708400  0.38723000  1
  N  907  1  0.12722100  0.58816200  0.60353100  1
  N  908  1  0.37492500  0.58790700  0.63410300  1
  N  909  1  0.22328200  0.75531500  0.71742800  1
  N  910  1  0.27698300  0.76641200  0.53430500  1
  N  952  1  0.62721200  0.41148800  0.63856500  1
  N  953  1  0.87507400  0.41163200  0.60828300  1
  N  954  1  0.72369200  0.24380300  0.52534200  1
  N  955  1  0.77670500  0.23379200  0.70871200  1
  N  959  1  0.83811900  0.15531800  0.75693200  1
  N  969  1  0.89529900  0.17003400  0.82039400  1
  N  973  1  0.89774200  0.11030100  0.76450000  1
  N  974  1  0.90285200  0.21805400  0.77906100  1
  N  985  1  0.33768100  0.84428100  0.48549700  1
  N  995  1  0.39500200  0.82940100  0.42222400  1
  N  999  1  0.39786800  0.88910500  0.47814600  1
  N  1000  1  0.40318000  0.78170700  0.46415400  1
  N  1011  1  0.08788800  0.86388600  0.77673400  1
  N  1021  1  0.14553100  0.80069100  0.79169600  1
  N  1025  1  0.14669400  0.85585200  0.73126400  1
  N  1026  1  0.15362200  0.84256800  0.83918400  1
  N  1037  1  0.58815800  0.13537100  0.46561800  1
  N  1047  1  0.64525000  0.19886700  0.45085600  1
  N  1051  1  0.64779300  0.14299800  0.51060900  1
  N  1052  1  0.65280000  0.15752600  0.40284300  1
  N  1063  1  0.75162100  0.99051400  0.08188210  1
  N  1073  1  0.74876700  0.99984200  0.15814300  1
  N  1077  1  0.68501800  0.95735400  0.10639200  1
  N  1078  1  0.82342700  0.97198500  0.14151000  1
  N  1089  1  0.25161500  0.00869000  0.16046100  1
  N  1099  1  0.24881200  0.99951000  0.08418110  1
  N  1103  1  0.18507400  0.04195600  0.13597200  1
  N  1104  1  0.32344100  0.02737400  0.10089000  1
  N  1115  1  0.00164500  0.53904300  0.61189400  1
  N  1125  1  0.99886100  0.46277500  0.62124300  1
  N  1129  1  0.93504300  0.51449500  0.57877600  1
  N  1130  1  0.07349500  0.47943900  0.59338500  1
  N  1141  1  0.50159000  0.46055500  0.63030600  1
  N  1151  1  0.49874900  0.53683100  0.62108300  1
  N  1155  1  0.43498800  0.48502600  0.66349600  1
  N  1156  1  0.57340200  0.52015300  0.64891800  1
  O  199  1  0.87695900  0.08726700  0.14670500  1
  O  200  1  0.88829400  0.23993600  0.17116100  1
  O  201  1  0.92865100  0.22727400  0.13934900  1
  O  202  1  0.93106100  0.10306200  0.13187600  1
  O  225  1  0.37734100  0.91226200  0.85297500  1
  O  226  1  0.38889100  0.75954300  0.82941000  1
  O  227  1  0.42912400  0.77291600  0.86101200  1
  O  228  1  0.43122900  0.89614300  0.86788200  1
  O  251  1  0.12549200  0.85187400  0.08701200  1
  O  252  1  0.13942100  0.82923700  0.23986500  1
  O  253  1  0.17951900  0.86093900  0.22650300  1
  O  254  1  0.17985500  0.86694500  0.10208100  1
  O  277  1  0.62701300  0.14667800  0.91217100  1
  O  278  1  0.63821600  0.17108300  0.75948500  1
  O  279  1  0.67860900  0.13929800  0.77214600  1
  O  280  1  0.68112700  0.13187100  0.89637400  1
  O  303  1  0.65538500  0.96961900  0.47259000  1
  O  304  1  0.84847500  0.99108200  0.52861400  1
  O  305  1  0.84031500  0.94702000  0.51989800  1
  O  306  1  0.67546200  0.93117900  0.49149200  1
  O  329  1  0.15541300  0.02969200  0.52679100  1
  O  330  1  0.34852200  0.00831800  0.47079400  1
  O  331  1  0.34029700  0.05235100  0.47961700  1
  O  332  1  0.17555700  0.06814800  0.50796100  1
  O  355  1  0.90541000  0.52681400  0.96958200  1
  O  356  1  0.09856300  0.47087900  0.99100300  1
  O  357  1  0.09036900  0.47957700  0.94694000  1
  O  358  1  0.92546300  0.50791600  0.93113200  1
  O  381  1  0.40536400  0.47271400  0.02972800  1
  O  382  1  0.59846500  0.52875600  0.00836700  1
  O  383  1  0.59027300  0.51998000  0.05241400  1
  O  384  1  0.42541400  0.49156500  0.06820100  1
  O  587  1  0.87695900  0.08726700  0.45744300  1
  O  588  1  0.88829400  0.23993600  0.48189900  1
  O  589  1  0.92865100  0.22727400  0.45008700  1
  O  590  1  0.93106100  0.10306200  0.44261400  1
  O  613  1  0.37734100  0.91226200  0.16371300  1
  O  614  1  0.38889100  0.75954300  0.14014800  1
  O  615  1  0.42912400  0.77291600  0.17175000  1
  O  616  1  0.43122900  0.89614300  0.17862000  1
  O  639  1  0.12549200  0.85187400  0.39775000  1
  O  640  1  0.13942100  0.82923700  0.55060300  1
  O  641  1  0.17951900  0.86093900  0.53724100  1
  O  642  1  0.17985500  0.86694500  0.41281900  1
  O  665  1  0.62701300  0.14667800  0.22290900  1
  O  666  1  0.63821600  0.17108300  0.07022250  1
  O  667  1  0.67860900  0.13929800  0.08288350  1
  O  668  1  0.68112700  0.13187100  0.20711200  1
  O  691  1  0.65538500  0.96961900  0.78332800  1
  O  692  1  0.84847500  0.99108200  0.83935200  1
  O  693  1  0.84031500  0.94702000  0.83063600  1
  O  694  1  0.67546200  0.93117900  0.80223000  1
  O  717  1  0.15541300  0.02969200  0.83752900  1
  O  718  1  0.34852200  0.00831800  0.78153200  1
  O  719  1  0.34029700  0.05235100  0.79035500  1
  O  720  1  0.17555700  0.06814800  0.81869900  1
  O  743  1  0.90541000  0.52681400  0.28032000  1
  O  744  1  0.09856300  0.47087900  0.30174100  1
  O  745  1  0.09036900  0.47957700  0.25767800  1
  O  746  1  0.92546300  0.50791600  0.24187000  1
  O  769  1  0.40536400  0.47271400  0.34046600  1
  O  770  1  0.59846500  0.52875600  0.31910500  1
  O  771  1  0.59027300  0.51998000  0.36315200  1
  O  772  1  0.42541400  0.49156500  0.37893900  1
  O  975  1  0.87695900  0.08726700  0.76818000  1
  O  976  1  0.88829400  0.23993600  0.79263600  1
  O  977  1  0.92865100  0.22727400  0.76082400  1
  O  978  1  0.93106100  0.10306200  0.75335100  1
  O  1001  1  0.37734100  0.91226200  0.47445000  1
  O  1002  1  0.38889100  0.75954300  0.45088500  1
  O  1003  1  0.42912400  0.77291600  0.48248700  1
  O  1004  1  0.43122900  0.89614300  0.48935700  1
  O  1027  1  0.12549200  0.85187400  0.70848700  1
  O  1028  1  0.13942100  0.82923700  0.86134000  1
  O  1029  1  0.17951900  0.86093900  0.84797800  1
  O  1030  1  0.17985500  0.86694500  0.72355600  1
  O  1053  1  0.62701300  0.14667800  0.53364600  1
  O  1054  1  0.63821600  0.17108300  0.38096000  1
  O  1055  1  0.67860900  0.13929800  0.39362100  1
  O  1056  1  0.68112700  0.13187100  0.51784900  1
  O  1079  1  0.65538500  0.96961900  0.09406510  1
  O  1080  1  0.84847500  0.99108200  0.15008900  1
  O  1081  1  0.84031500  0.94702000  0.14137300  1
  O  1082  1  0.67546200  0.93117900  0.11296700  1
  O  1105  1  0.15541300  0.02969200  0.14826600  1
  O  1106  1  0.34852200  0.00831800  0.09226910  1
  O  1107  1  0.34029700  0.05235100  0.10109200  1
  O  1108  1  0.17555700  0.06814800  0.12943600  1
  O  1131  1  0.90541000  0.52681400  0.59105700  1
  O  1132  1  0.09856300  0.47087900  0.61247800  1
  O  1133  1  0.09036900  0.47957700  0.56841500  1
  O  1134  1  0.92546300  0.50791600  0.55260700  1
  O  1157  1  0.40536400  0.47271400  0.65120300  1
  O  1158  1  0.59846500  0.52875600  0.62984200  1
  O  1159  1  0.59027300  0.51998000  0.67388900  1
  O  1160  1  0.42541400  0.49156500  0.68967600  1
