# generated using pymatgen
data_H13C20(NO)2
_symmetry_space_group_name_H-M   'P 1'
_cell_length_a   55.51780000
_cell_length_b   55.51730000
_cell_length_c   65.68230000
_cell_angle_alpha   90.00170000
_cell_angle_beta   90.00000000
_cell_angle_gamma   90.00000000
_symmetry_Int_Tables_number   1
_chemical_formula_structural   H13C20(NO)2
_chemical_formula_sum   'H832 C1280 N128 O128'
_cell_volume   202445.87711661
_cell_formula_units_Z   64
loop_
 _symmetry_equiv_pos_site_id
 _symmetry_equiv_pos_as_xyz
  1  'x, y, z'
loop_
 _atom_site_type_symbol
 _atom_site_label
 _atom_site_symmetry_multiplicity
 _atom_site_fract_x
 _atom_site_fract_y
 _atom_site_fract_z
 _atom_site_occupancy
  H  7  1  0.16148900  0.41761100  0.89955800  1
  H  16  1  0.19035500  0.39072100  0.85109900  1
  H  19  1  0.15504500  0.33739900  0.87159600  1
  H  20  1  0.10965200  0.38186800  0.87783200  1
  H  21  1  0.21279300  0.36269600  0.93813700  1
  H  22  1  0.13351000  0.41296200  0.80016600  1
  H  33  1  0.33620600  0.53602100  0.39947800  1
  H  42  1  0.30724500  0.56298600  0.35105400  1
  H  45  1  0.34250300  0.61625100  0.37154500  1
  H  46  1  0.38798700  0.57169400  0.37773200  1
  H  47  1  0.28478800  0.59085300  0.43806900  1
  H  48  1  0.36400900  0.54067600  0.30006600  1
  H  59  1  0.80747000  0.88967700  0.14843300  1
  H  68  1  0.83391000  0.91775800  0.09967100  1
  H  71  1  0.88786300  0.88351600  0.12102700  1
  H  72  1  0.84510900  0.83817900  0.12793200  1
  H  73  1  0.86338400  0.94265300  0.18612500  1
  H  74  1  0.82001800  0.85275700  0.05157100  1
  H  85  1  0.68998200  0.06403300  0.64844600  1
  H  94  1  0.66356200  0.03587700  0.59970100  1
  H  97  1  0.60957900  0.07009300  0.62105200  1
  H  98  1  0.65229500  0.11547300  0.62792700  1
  H  99  1  0.63415500  0.01104600  0.68618700  1
  H  100  1  0.67740900  0.10086700  0.55157000  1
  H  111  1  0.33406600  0.41785600  0.60009200  1
  H  120  1  0.30678100  0.38878800  0.64821300  1
  H  123  1  0.34331000  0.33722700  0.62692100  1
  H  124  1  0.38745200  0.38321600  0.62126300  1
  H  125  1  0.31306000  0.36077900  0.54895900  1
  H  126  1  0.36125900  0.44187500  0.68657000  1
  H  137  1  0.16334700  0.53578000  0.10012700  1
  H  146  1  0.19064000  0.56491700  0.14823600  1
  H  149  1  0.15416400  0.61643400  0.12692900  1
  H  150  1  0.10996400  0.57039600  0.12128000  1
  H  151  1  0.18444200  0.59280900  0.04897700  1
  H  152  1  0.13624500  0.51182300  0.18663200  1
  H  163  1  0.69098000  0.89338400  0.35062100  1
  H  172  1  0.66406100  0.91906400  0.40004100  1
  H  175  1  0.61055200  0.88450800  0.37791300  1
  H  176  1  0.65301200  0.84054300  0.36991900  1
  H  177  1  0.63358900  0.91611500  0.30042500  1
  H  178  1  0.70740200  0.86360400  0.44204000  1
  H  189  1  0.80650300  0.06023800  0.85063700  1
  H  198  1  0.83341000  0.03457500  0.90005100  1
  H  201  1  0.88694200  0.06913000  0.87789900  1
  H  202  1  0.84452900  0.11308200  0.86991300  1
  H  203  1  0.86388100  0.03751300  0.80042700  1
  H  204  1  0.79013200  0.09008100  0.94204700  1
  H  215  1  0.83574100  0.53508500  0.09913000  1
  H  224  1  0.80782700  0.56149100  0.14794200  1
  H  227  1  0.84166300  0.61558900  0.12629900  1
  H  228  1  0.88717300  0.57309700  0.11933400  1
  H  229  1  0.78202400  0.59055800  0.06168200  1
  H  230  1  0.87316600  0.54808600  0.19580500  1
  H  241  1  0.66173700  0.41854600  0.59915200  1
  H  250  1  0.68962500  0.39213500  0.64796900  1
  H  253  1  0.65581100  0.33804300  0.62632400  1
  H  254  1  0.61028900  0.38053500  0.61934200  1
  H  255  1  0.71548200  0.36307400  0.56173300  1
  H  256  1  0.62427000  0.40552800  0.69581800  1
  H  267  1  0.19100500  0.06012700  0.84702300  1
  H  276  1  0.16608400  0.03407000  0.89678400  1
  H  279  1  0.11248700  0.07154700  0.87701300  1
  H  280  1  0.15463900  0.11341700  0.86823000  1
  H  281  1  0.13540600  0.01663000  0.80520000  1
  H  282  1  0.18074900  0.09943600  0.94413600  1
  H  293  1  0.30648700  0.89346700  0.34702500  1
  H  302  1  0.33138400  0.91952900  0.39676000  1
  H  305  1  0.38502800  0.88205100  0.37698300  1
  H  306  1  0.34293500  0.84016900  0.36823900  1
  H  307  1  0.36205300  0.93700100  0.30520700  1
  H  308  1  0.31681000  0.85416500  0.44414300  1
  H  319  1  0.66549300  0.53471200  0.39686500  1
  H  328  1  0.69129500  0.56132500  0.34746500  1
  H  331  1  0.65669700  0.61506600  0.36940100  1
  H  332  1  0.61271500  0.57279800  0.37734500  1
  H  333  1  0.68835500  0.59219500  0.44693600  1
  H  334  1  0.63583000  0.51789800  0.30551500  1
  H  345  1  0.83200500  0.41894000  0.89682600  1
  H  354  1  0.80619700  0.39238800  0.84743500  1
  H  357  1  0.84078200  0.33858600  0.86934600  1
  H  358  1  0.88477500  0.38077700  0.87728100  1
  H  359  1  0.80910900  0.36145600  0.94688500  1
  H  360  1  0.86170700  0.43575500  0.80548400  1
  H  371  1  0.30669400  0.05881700  0.64740100  1
  H  380  1  0.33269900  0.03354300  0.59775300  1
  H  383  1  0.38599300  0.07022800  0.61871600  1
  H  384  1  0.34408900  0.11230400  0.62728800  1
  H  385  1  0.37217100  0.04483800  0.69480800  1
  H  386  1  0.28900400  0.08880400  0.55572400  1
  H  397  1  0.19078000  0.89480300  0.14739000  1
  H  406  1  0.16477300  0.92006200  0.09775500  1
  H  409  1  0.11146400  0.88339000  0.11873600  1
  H  410  1  0.15334500  0.84130600  0.12729300  1
  H  411  1  0.12533100  0.90881700  0.19482000  1
  H  412  1  0.20843000  0.86478200  0.05572100  1
  H  423  1  0.26669800  0.44914600  0.74869000  1
  H  424  1  0.29334700  0.45536100  0.72060500  1
  H  431  1  0.25848500  0.37628800  0.76661200  1
  H  432  1  0.23295000  0.36809700  0.79486100  1
  H  433  1  0.19432100  0.43233800  0.78307100  1
  H  434  1  0.27774300  0.38516700  0.69921600  1
  H  435  1  0.21992000  0.44038400  0.75474800  1
  H  436  1  0.25131900  0.37905900  0.72721100  1
  H  439  1  0.30883100  0.44086500  0.68699300  1
  H  440  1  0.19775100  0.37766000  0.81474500  1
  H  447  1  0.23082100  0.50452500  0.24861200  1
  H  448  1  0.20419700  0.49832800  0.22050500  1
  H  455  1  0.23896500  0.57737100  0.26661700  1
  H  456  1  0.26448800  0.58555000  0.29487600  1
  H  457  1  0.30316700  0.52135000  0.28303500  1
  H  458  1  0.21974400  0.56857000  0.19920600  1
  H  459  1  0.27757900  0.51331700  0.25470300  1
  H  460  1  0.24614400  0.57466100  0.22722100  1
  H  463  1  0.18880800  0.51287200  0.18684200  1
  H  464  1  0.29966000  0.57597500  0.31477900  1
  H  471  1  0.77742200  0.98728200  0.99300000  1
  H  472  1  0.77156300  0.01287400  0.96407000  1
  H  479  1  0.84821400  0.98869600  0.01949400  1
  H  480  1  0.85596600  0.96237700  0.04729600  1
  H  481  1  0.79923700  0.91698500  0.02782900  1
  H  482  1  0.84638000  0.01080300  0.95212100  1
  H  483  1  0.79168300  0.94330900  0.99988000  1
  H  484  1  0.85214800  0.98510900  0.98072900  1
  H  487  1  0.79255600  0.02461800  0.92861100  1
  H  488  1  0.84935200  0.92383100  0.06373500  1
  H  495  1  0.72007700  0.96628700  0.49305200  1
  H  496  1  0.72593800  0.94070100  0.46411600  1
  H  503  1  0.64925100  0.96494600  0.51947200  1
  H  504  1  0.64149300  0.99124800  0.54728500  1
  H  505  1  0.69830500  0.03658600  0.52790500  1
  H  506  1  0.65114200  0.94289400  0.45208800  1
  H  507  1  0.70586300  0.01027800  0.49994500  1
  H  508  1  0.64537300  0.96858100  0.48070200  1
  H  511  1  0.70499300  0.92898300  0.42864100  1
  H  512  1  0.64814300  0.02974500  0.56377600  1
  H  519  1  0.73855600  0.50517900  0.25454700  1
  H  520  1  0.71292400  0.49930800  0.28345700  1
  H  527  1  0.73740300  0.57607100  0.22832600  1
  H  528  1  0.76367900  0.58385000  0.20050200  1
  H  529  1  0.80892600  0.52688500  0.21971800  1
  H  530  1  0.71544200  0.57404700  0.29570700  1
  H  531  1  0.78264000  0.51930100  0.24769200  1
  H  532  1  0.74116700  0.57982500  0.26712100  1
  H  535  1  0.70133000  0.52033200  0.31906800  1
  H  536  1  0.80213700  0.57716000  0.18395800  1
  H  543  1  0.75882800  0.44846700  0.75459500  1
  H  544  1  0.78446900  0.45435100  0.78349900  1
  H  551  1  0.76004800  0.37758500  0.72834700  1
  H  552  1  0.73377500  0.36979600  0.70052200  1
  H  553  1  0.68848000  0.42671200  0.71976500  1
  H  554  1  0.78204400  0.37960300  0.79571700  1
  H  555  1  0.71476500  0.43430700  0.74773900  1
  H  556  1  0.75630800  0.37381300  0.76713700  1
  H  559  1  0.79602000  0.43322500  0.81914800  1
  H  560  1  0.69530300  0.37645800  0.68399000  1
  H  567  1  0.22120800  0.96656100  0.00450900  1
  H  568  1  0.22689100  0.94135100  0.03369800  1
  H  575  1  0.15031800  0.96565700  0.97822900  1
  H  576  1  0.14304400  0.99152000  0.95000800  1
  H  577  1  0.20045100  0.03640000  0.96890200  1
  H  578  1  0.15215800  0.94451600  0.04586900  1
  H  579  1  0.20753200  0.01055200  0.99724900  1
  H  580  1  0.14656500  0.96986000  0.01699300  1
  H  583  1  0.20566700  0.93046500  0.06946100  1
  H  584  1  0.15015500  0.03005900  0.93333200  1
  H  591  1  0.27623900  0.98712400  0.50444800  1
  H  592  1  0.27055300  0.01233000  0.53364000  1
  H  599  1  0.34716200  0.98795000  0.47823900  1
  H  600  1  0.35444500  0.96209200  0.45001500  1
  H  601  1  0.29696000  0.91726900  0.46883600  1
  H  602  1  0.34526400  0.00905100  0.54588500  1
  H  603  1  0.28986900  0.94311200  0.49718400  1
  H  604  1  0.35086000  0.98371300  0.51700500  1
  H  607  1  0.29172400  0.02319600  0.56941700  1
  H  608  1  0.34730500  0.92359400  0.43329900  1
  H  615  1  0.76834800  0.94942000  0.24998500  1
  H  616  1  0.79594100  0.95565700  0.22259900  1
  H  623  1  0.75739100  0.87639300  0.26663200  1
  H  624  1  0.73064800  0.86863500  0.29418300  1
  H  625  1  0.69450500  0.93424600  0.28218300  1
  H  626  1  0.77956200  0.88624200  0.19982900  1
  H  627  1  0.72131800  0.94188600  0.25458200  1
  H  628  1  0.75217300  0.88013900  0.22712200  1
  H  631  1  0.81300400  0.94173200  0.18986400  1
  H  632  1  0.69436300  0.87885400  0.31275600  1
  H  639  1  0.72916000  0.00421500  0.74992500  1
  H  640  1  0.70158900  0.99800700  0.72251600  1
  H  647  1  0.74009000  0.07722400  0.76662700  1
  H  648  1  0.76680100  0.08496800  0.79420300  1
  H  649  1  0.80297100  0.01937400  0.78219300  1
  H  650  1  0.71800400  0.06743600  0.69979900  1
  H  651  1  0.77619000  0.01174900  0.75456700  1
  H  652  1  0.74536800  0.07351300  0.72711700  1
  H  655  1  0.68463200  0.01196100  0.68972300  1
  H  656  1  0.80306300  0.07474800  0.81279900  1
  H  663  1  0.27593700  0.49206700  0.49561300  1
  H  664  1  0.27017800  0.51809100  0.46696200  1
  H  671  1  0.34813000  0.48768800  0.51728400  1
  H  672  1  0.35601000  0.46202100  0.54550300  1
  H  673  1  0.29451300  0.42051600  0.53066700  1
  H  674  1  0.34272800  0.50706500  0.44962400  1
  H  675  1  0.28678900  0.44623100  0.50235300  1
  H  676  1  0.34838400  0.48114400  0.47808300  1
  H  679  1  0.28754500  0.53058100  0.43162200  1
  H  680  1  0.34759100  0.42535500  0.56393700  1
  H  687  1  0.22164800  0.46177500  0.99543300  1
  H  688  1  0.22739500  0.43587100  0.96669900  1
  H  695  1  0.14950500  0.46578500  0.01737100  1
  H  696  1  0.14161800  0.49140100  0.04562100  1
  H  697  1  0.20289500  0.53316400  0.03065700  1
  H  698  1  0.15468900  0.44653200  0.94967200  1
  H  699  1  0.21062200  0.50750500  0.00231000  1
  H  700  1  0.14904600  0.47235000  0.97820700  1
  H  703  1  0.20973400  0.42365700  0.93121500  1
  H  704  1  0.14992800  0.52811500  0.06402800  1
  H  711  1  0.23882800  0.00410800  0.75458400  1
  H  712  1  0.21316000  0.99831000  0.78346700  1
  H  719  1  0.23748600  0.07477400  0.72772300  1
  H  720  1  0.26391500  0.08209100  0.69988600  1
  H  721  1  0.30906800  0.02546300  0.71994300  1
  H  722  1  0.21472400  0.07322700  0.79502900  1
  H  723  1  0.28265700  0.01834500  0.74791900  1
  H  724  1  0.24053400  0.07894100  0.76647300  1
  H  727  1  0.20154200  0.01971200  0.81893800  1
  H  728  1  0.30309900  0.07533500  0.68402000  1
  H  735  1  0.25863200  0.94952700  0.25462600  1
  H  736  1  0.28428700  0.95530600  0.28351900  1
  H  743  1  0.26001000  0.87888000  0.22772300  1
  H  744  1  0.23360100  0.87157100  0.19987100  1
  H  745  1  0.18841700  0.92817600  0.21993600  1
  H  746  1  0.28273400  0.88038100  0.29503400  1
  H  747  1  0.21481000  0.93528400  0.24792500  1
  H  748  1  0.25693500  0.87468400  0.26646800  1
  H  751  1  0.29586200  0.93382200  0.31900500  1
  H  752  1  0.19442000  0.87831800  0.18399900  1
  H  759  1  0.72164000  0.45761200  0.49751200  1
  H  760  1  0.72797300  0.43013500  0.52496800  1
  H  767  1  0.64860200  0.46861300  0.48106700  1
  H  768  1  0.64077400  0.49526800  0.45346500  1
  H  769  1  0.70644200  0.53141600  0.46524900  1
  H  770  1  0.65873100  0.44679300  0.54797100  1
  H  771  1  0.71415100  0.50469000  0.49289100  1
  H  772  1  0.65252600  0.47405600  0.52060000  1
  H  775  1  0.71418300  0.41328300  0.55783700  1
  H  776  1  0.65097300  0.53150700  0.43478800  1
  H  783  1  0.77584600  0.49605100  0.99748100  1
  H  784  1  0.76951900  0.52352000  0.02494400  1
  H  791  1  0.84888800  0.48500700  0.98106800  1
  H  792  1  0.85671600  0.45836600  0.95345500  1
  H  793  1  0.79101400  0.42225500  0.96518400  1
  H  794  1  0.83873100  0.50678900  0.04797500  1
  H  795  1  0.78330300  0.44896900  0.99283700  1
  H  796  1  0.84493200  0.47953600  0.02059600  1
  H  799  1  0.78330000  0.54031400  0.05784800  1
  H  800  1  0.84650500  0.42215700  0.93474800  1
  H  807  1  0.24042900  0.20974300  0.91966000  1
  H  808  1  0.24151500  0.16673300  0.91864800  1
  H  815  1  0.18462200  0.24423800  0.88499200  1
  H  816  1  0.17820400  0.28642300  0.88887600  1
  H  817  1  0.21184400  0.28409400  0.94659500  1
  H  818  1  0.16736600  0.16563900  0.90382700  1
  H  819  1  0.21799700  0.24176300  0.94276600  1
  H  820  1  0.16639400  0.20830900  0.90490800  1
  H  823  1  0.21925600  0.12824900  0.91731900  1
  H  824  1  0.18370500  0.31829900  0.93515000  1
  H  831  1  0.25709000  0.74385500  0.41963200  1
  H  832  1  0.25602800  0.78686600  0.41862700  1
  H  839  1  0.31291900  0.70934900  0.38499900  1
  H  840  1  0.31932100  0.66716200  0.38887000  1
  H  841  1  0.28561300  0.66947200  0.44656200  1
  H  842  1  0.33019500  0.78792700  0.40387600  1
  H  843  1  0.27947800  0.71180600  0.44274500  1
  H  844  1  0.33114400  0.74525500  0.40494600  1
  H  847  1  0.27831100  0.82534300  0.41732600  1
  H  848  1  0.31374800  0.63526700  0.43513700  1
  H  855  1  0.01499000  0.96877000  0.17033500  1
  H  856  1  0.05801100  0.96975200  0.16969100  1
  H  863  1  0.98081100  0.91365500  0.13470900  1
  H  864  1  0.93853600  0.90738600  0.13806300  1
  H  865  1  0.94015400  0.94006100  0.19619300  1
  H  866  1  0.05908800  0.89582800  0.15408700  1
  H  867  1  0.98257100  0.94607700  0.19288900  1
  H  868  1  0.01639700  0.89495800  0.15479800  1
  H  871  1  0.09645900  0.94745100  0.16835400  1
  H  872  1  0.90608200  0.91199700  0.18400200  1
  H  879  1  0.48247600  0.98484400  0.67034500  1
  H  880  1  0.43945500  0.98386900  0.66968600  1
  H  887  1  0.51668400  0.03994600  0.63472400  1
  H  888  1  0.55895700  0.04621100  0.63809400  1
  H  889  1  0.55730200  0.01354100  0.69622400  1
  H  890  1  0.43840000  0.05778600  0.65406400  1
  H  891  1  0.51488900  0.00753000  0.69290400  1
  H  892  1  0.48109000  0.05864800  0.65479000  1
  H  895  1  0.40101400  0.00617300  0.66832900  1
  H  896  1  0.59138800  0.04158100  0.68405500  1
  H  903  1  0.25817100  0.20950800  0.57853000  1
  H  904  1  0.25741100  0.16646700  0.57868100  1
  H  911  1  0.31493800  0.24326100  0.61223100  1
  H  912  1  0.32105500  0.28561000  0.60910000  1
  H  913  1  0.28567000  0.28480800  0.55210200  1
  H  914  1  0.33225500  0.16548500  0.59078500  1
  H  915  1  0.27975000  0.24234000  0.55518900  1
  H  916  1  0.33288800  0.20820300  0.59061000  1
  H  919  1  0.27987900  0.12810500  0.57868600  1
  H  920  1  0.31533300  0.31828400  0.56383400  1
  H  927  1  0.23935000  0.74414200  0.07845900  1
  H  928  1  0.24006000  0.78718400  0.07860300  1
  H  935  1  0.18272700  0.71031900  0.11229500  1
  H  936  1  0.17661200  0.66797200  0.10915800  1
  H  937  1  0.21181800  0.66882200  0.05208100  1
  H  938  1  0.16526000  0.78807800  0.09090700  1
  H  939  1  0.21773200  0.71128600  0.05517600  1
  H  940  1  0.16467800  0.74536100  0.09073600  1
  H  943  1  0.21757300  0.82552000  0.07870400  1
  H  944  1  0.18226000  0.63532100  0.06383400  1
  H  951  1  0.48236000  0.96806600  0.32734400  1
  H  952  1  0.43933500  0.96848700  0.32707900  1
  H  959  1  0.51628500  0.91370200  0.36376600  1
  H  960  1  0.55872700  0.90781600  0.36113400  1
  H  961  1  0.55805900  0.93972800  0.30269300  1
  H  962  1  0.43874900  0.89455100  0.34268000  1
  H  963  1  0.51552300  0.94542000  0.30528900  1
  H  964  1  0.48146700  0.89425000  0.34288700  1
  H  967  1  0.40112500  0.94617400  0.32835900  1
  H  968  1  0.59158100  0.91088000  0.31587400  1
  H  975  1  0.01511500  0.98557000  0.82735100  1
  H  976  1  0.05814100  0.98513600  0.82709800  1
  H  983  1  0.98119500  0.03995400  0.86375600  1
  H  984  1  0.93875200  0.04583700  0.86112100  1
  H  985  1  0.93942600  0.01389800  0.80269000  1
  H  986  1  0.05874000  0.05907700  0.84268800  1
  H  987  1  0.98196200  0.00821000  0.80528900  1
  H  988  1  0.01602200  0.05939100  0.84288300  1
  H  991  1  0.09635400  0.00744600  0.82837400  1
  H  992  1  0.90589500  0.04274600  0.81586400  1
  H  999  1  0.75739300  0.74334400  0.07701800  1
  H  1000  1  0.75749400  0.78639700  0.07732600  1
  H  1007  1  0.81219000  0.70835900  0.11225200  1
  H  1008  1  0.81774500  0.66596300  0.10916600  1
  H  1009  1  0.78442200  0.66750300  0.05129600  1
  H  1010  1  0.83177600  0.78579200  0.09168900  1
  H  1011  1  0.77911200  0.71004300  0.05433600  1
  H  1012  1  0.83155800  0.74308300  0.09134300  1
  H  1015  1  0.78080100  0.82431800  0.07809400  1
  H  1016  1  0.81231200  0.63332200  0.06339000  1
  H  1023  1  0.74007900  0.21026800  0.57702300  1
  H  1024  1  0.73994800  0.16721600  0.57732000  1
  H  1031  1  0.68532000  0.24527800  0.61228100  1
  H  1032  1  0.67977300  0.28767600  0.60920200  1
  H  1033  1  0.71306100  0.28613000  0.55131800  1
  H  1034  1  0.66567300  0.16786700  0.59170000  1
  H  1035  1  0.71836400  0.24358800  0.55435200  1
  H  1036  1  0.66591800  0.21057500  0.59136500  1
  H  1039  1  0.71662200  0.12930800  0.57809300  1
  H  1040  1  0.68518300  0.32031300  0.56342000  1
  H  1047  1  0.73968500  0.74374300  0.41978600  1
  H  1048  1  0.73971200  0.78677600  0.42002600  1
  H  1055  1  0.68556000  0.70934500  0.38346300  1
  H  1056  1  0.67994200  0.66687400  0.38612400  1
  H  1057  1  0.71191500  0.66779400  0.44453800  1
  H  1058  1  0.66571800  0.78666800  0.40461400  1
  H  1059  1  0.71733900  0.71036100  0.44191400  1
  H  1060  1  0.66581000  0.74394900  0.40442700  1
  H  1063  1  0.71703800  0.82477700  0.41876600  1
  H  1064  1  0.68319000  0.63415200  0.43144100  1
  H  1071  1  0.75781600  0.20989500  0.91977800  1
  H  1072  1  0.75781200  0.16686200  0.92003200  1
  H  1079  1  0.81188300  0.24430800  0.88340300  1
  H  1080  1  0.81749800  0.28678100  0.88605600  1
  H  1081  1  0.78558700  0.28586300  0.94449800  1
  H  1082  1  0.83179000  0.16700400  0.90455700  1
  H  1083  1  0.78017100  0.24329400  0.94187800  1
  H  1084  1  0.83167300  0.20972100  0.90435800  1
  H  1087  1  0.78049500  0.12887100  0.91874500  1
  H  1088  1  0.81429700  0.31950200  0.93138000  1
  H  1095  1  0.51487200  0.46791200  0.67025400  1
  H  1096  1  0.55791800  0.46799100  0.66974700  1
  H  1103  1  0.47989100  0.41251900  0.63561100  1
  H  1104  1  0.43754200  0.40687900  0.63890600  1
  H  1105  1  0.43927000  0.44104000  0.69642500  1
  H  1106  1  0.55754700  0.39357800  0.65588300  1
  H  1107  1  0.48177300  0.44641600  0.69317900  1
  H  1108  1  0.51484400  0.39361000  0.65643600  1
  H  1111  1  0.59592000  0.44482500  0.66903100  1
  H  1112  1  0.40495100  0.41333800  0.68481300  1
  H  1119  1  0.98256900  0.48569400  0.17021200  1
  H  1120  1  0.93952300  0.48561800  0.16969700  1
  H  1127  1  0.01756300  0.54114000  0.13563900  1
  H  1128  1  0.05991100  0.54677100  0.13894900  1
  H  1129  1  0.05816700  0.51251900  0.19642600  1
  H  1130  1  0.93990200  0.56005400  0.15591700  1
  H  1131  1  0.01566300  0.50715100  0.19316800  1
  H  1132  1  0.98260700  0.56001800  0.15647800  1
  H  1135  1  0.90152300  0.50879300  0.16901100  1
  H  1136  1  0.09248400  0.54026700  0.18485000  1
  H  1143  1  0.98201100  0.46718200  0.82866000  1
  H  1144  1  0.93896500  0.46763600  0.82850500  1
  H  1151  1  0.01581400  0.41109300  0.86311200  1
  H  1152  1  0.05819900  0.40505000  0.86027000  1
  H  1153  1  0.05772600  0.43963100  0.80292000  1
  H  1154  1  0.93839200  0.39293600  0.84124800  1
  H  1155  1  0.01522600  0.44547800  0.80572300  1
  H  1156  1  0.98111200  0.39261100  0.84137900  1
  H  1159  1  0.90075000  0.44500500  0.82864000  1
  H  1160  1  0.09108900  0.41018200  0.81502600  1
  H  1167  1  0.51557900  0.48631600  0.32860500  1
  H  1168  1  0.55862400  0.48591000  0.32848000  1
  H  1175  1  0.48166700  0.54232400  0.36309600  1
  H  1176  1  0.43928800  0.54835700  0.36020500  1
  H  1177  1  0.43987500  0.51384300  0.30282300  1
  H  1178  1  0.55910000  0.56058300  0.34134200  1
  H  1179  1  0.48237100  0.50801600  0.30567300  1
  H  1180  1  0.51638400  0.56086200  0.34143800  1
  H  1183  1  0.59681200  0.50857300  0.32868500  1
  H  1184  1  0.40646600  0.54321400  0.31489300  1
  H  1191  1  0.16148900  0.41761100  0.29540300  1
  H  1200  1  0.19035500  0.39072100  0.24694400  1
  H  1203  1  0.15504500  0.33739900  0.26744100  1
  H  1204  1  0.10965200  0.38186800  0.27367700  1
  H  1205  1  0.21279300  0.36269600  0.33398200  1
  H  1206  1  0.13351000  0.41296200  0.19601100  1
  H  1217  1  0.33620600  0.53602100  0.79532300  1
  H  1226  1  0.30724500  0.56298600  0.74689900  1
  H  1229  1  0.34250300  0.61625100  0.76739000  1
  H  1230  1  0.38798700  0.57169400  0.77357700  1
  H  1231  1  0.28478800  0.59085300  0.83391400  1
  H  1232  1  0.36400900  0.54067600  0.69591100  1
  H  1243  1  0.80747000  0.88967700  0.54427800  1
  H  1252  1  0.83391000  0.91775800  0.49551600  1
  H  1255  1  0.88786300  0.88351600  0.51687200  1
  H  1256  1  0.84510900  0.83817900  0.52377700  1
  H  1257  1  0.86338400  0.94265300  0.58197000  1
  H  1258  1  0.82001800  0.85275700  0.44741600  1
  H  1269  1  0.68998200  0.06403300  0.04429080  1
  H  1278  1  0.66356200  0.03587700  0.99554600  1
  H  1281  1  0.60957900  0.07009300  0.01689680  1
  H  1282  1  0.65229500  0.11547300  0.02377180  1
  H  1283  1  0.63415500  0.01104600  0.08203180  1
  H  1284  1  0.67740900  0.10086700  0.94741500  1
  H  1295  1  0.33406600  0.41785600  0.99593700  1
  H  1304  1  0.30678100  0.38878800  0.04405780  1
  H  1307  1  0.34331000  0.33722700  0.02276580  1
  H  1308  1  0.38745200  0.38321600  0.01710780  1
  H  1309  1  0.31306000  0.36077900  0.94480400  1
  H  1310  1  0.36125900  0.44187500  0.08241480  1
  H  1321  1  0.16334700  0.53578000  0.49597200  1
  H  1330  1  0.19064000  0.56491700  0.54408100  1
  H  1333  1  0.15416400  0.61643400  0.52277400  1
  H  1334  1  0.10996400  0.57039600  0.51712500  1
  H  1335  1  0.18444200  0.59280900  0.44482200  1
  H  1336  1  0.13624500  0.51182300  0.58247700  1
  H  1347  1  0.69098000  0.89338400  0.74646600  1
  H  1356  1  0.66406100  0.91906400  0.79588600  1
  H  1359  1  0.61055200  0.88450800  0.77375800  1
  H  1360  1  0.65301200  0.84054300  0.76576400  1
  H  1361  1  0.63358900  0.91611500  0.69627000  1
  H  1362  1  0.70740200  0.86360400  0.83788500  1
  H  1373  1  0.80650300  0.06023800  0.24648200  1
  H  1382  1  0.83341000  0.03457500  0.29589600  1
  H  1385  1  0.88694200  0.06913000  0.27374400  1
  H  1386  1  0.84452900  0.11308200  0.26575800  1
  H  1387  1  0.86388100  0.03751300  0.19627200  1
  H  1388  1  0.79013200  0.09008100  0.33789200  1
  H  1399  1  0.83574100  0.53508500  0.49497500  1
  H  1408  1  0.80782700  0.56149100  0.54378700  1
  H  1411  1  0.84166300  0.61558900  0.52214400  1
  H  1412  1  0.88717300  0.57309700  0.51517900  1
  H  1413  1  0.78202400  0.59055800  0.45752700  1
  H  1414  1  0.87316600  0.54808600  0.59165000  1
  H  1425  1  0.66173700  0.41854600  0.99499700  1
  H  1434  1  0.68962500  0.39213500  0.04381380  1
  H  1437  1  0.65581100  0.33804300  0.02216880  1
  H  1438  1  0.61028900  0.38053500  0.01518680  1
  H  1439  1  0.71548200  0.36307400  0.95757800  1
  H  1440  1  0.62427000  0.40552800  0.09166280  1
  H  1451  1  0.19100500  0.06012700  0.24286800  1
  H  1460  1  0.16608400  0.03407000  0.29262900  1
  H  1463  1  0.11248700  0.07154700  0.27285800  1
  H  1464  1  0.15463900  0.11341700  0.26407500  1
  H  1465  1  0.13540600  0.01663000  0.20104500  1
  H  1466  1  0.18074900  0.09943600  0.33998100  1
  H  1477  1  0.30648700  0.89346700  0.74287000  1
  H  1486  1  0.33138400  0.91952900  0.79260500  1
  H  1489  1  0.38502800  0.88205100  0.77282800  1
  H  1490  1  0.34293500  0.84016900  0.76408400  1
  H  1491  1  0.36205300  0.93700100  0.70105200  1
  H  1492  1  0.31681000  0.85416500  0.83998800  1
  H  1503  1  0.66549300  0.53471200  0.79271000  1
  H  1512  1  0.69129500  0.56132500  0.74331000  1
  H  1515  1  0.65669700  0.61506600  0.76524600  1
  H  1516  1  0.61271500  0.57279800  0.77319000  1
  H  1517  1  0.68835500  0.59219500  0.84278100  1
  H  1518  1  0.63583000  0.51789800  0.70136000  1
  H  1529  1  0.83200500  0.41894000  0.29267100  1
  H  1538  1  0.80619700  0.39238800  0.24328000  1
  H  1541  1  0.84078200  0.33858600  0.26519100  1
  H  1542  1  0.88477500  0.38077700  0.27312600  1
  H  1543  1  0.80910900  0.36145600  0.34273000  1
  H  1544  1  0.86170700  0.43575500  0.20132900  1
  H  1555  1  0.30669400  0.05881700  0.04324580  1
  H  1564  1  0.33269900  0.03354300  0.99359800  1
  H  1567  1  0.38599300  0.07022800  0.01456080  1
  H  1568  1  0.34408900  0.11230400  0.02313280  1
  H  1569  1  0.37217100  0.04483800  0.09065280  1
  H  1570  1  0.28900400  0.08880400  0.95156900  1
  H  1581  1  0.19078000  0.89480300  0.54323500  1
  H  1590  1  0.16477300  0.92006200  0.49360000  1
  H  1593  1  0.11146400  0.88339000  0.51458100  1
  H  1594  1  0.15334500  0.84130600  0.52313800  1
  H  1595  1  0.12533100  0.90881700  0.59066500  1
  H  1596  1  0.20843000  0.86478200  0.45156600  1
  H  1607  1  0.26669800  0.44914600  0.14453500  1
  H  1608  1  0.29334700  0.45536100  0.11645000  1
  H  1615  1  0.25848500  0.37628800  0.16245700  1
  H  1616  1  0.23295000  0.36809700  0.19070600  1
  H  1617  1  0.19432100  0.43233800  0.17891600  1
  H  1618  1  0.27774300  0.38516700  0.09506080  1
  H  1619  1  0.21992000  0.44038400  0.15059300  1
  H  1620  1  0.25131900  0.37905900  0.12305600  1
  H  1623  1  0.30883100  0.44086500  0.08283780  1
  H  1624  1  0.19775100  0.37766000  0.21059000  1
  H  1631  1  0.23082100  0.50452500  0.64445700  1
  H  1632  1  0.20419700  0.49832800  0.61635000  1
  H  1639  1  0.23896500  0.57737100  0.66246200  1
  H  1640  1  0.26448800  0.58555000  0.69072100  1
  H  1641  1  0.30316700  0.52135000  0.67888000  1
  H  1642  1  0.21974400  0.56857000  0.59505100  1
  H  1643  1  0.27757900  0.51331700  0.65054800  1
  H  1644  1  0.24614400  0.57466100  0.62306600  1
  H  1647  1  0.18880800  0.51287200  0.58268700  1
  H  1648  1  0.29966000  0.57597500  0.71062400  1
  H  1655  1  0.77742200  0.98728200  0.38884500  1
  H  1656  1  0.77156300  0.01287400  0.35991500  1
  H  1663  1  0.84821400  0.98869600  0.41533900  1
  H  1664  1  0.85596600  0.96237700  0.44314100  1
  H  1665  1  0.79923700  0.91698500  0.42367400  1
  H  1666  1  0.84638000  0.01080300  0.34796600  1
  H  1667  1  0.79168300  0.94330900  0.39572500  1
  H  1668  1  0.85214800  0.98510900  0.37657400  1
  H  1671  1  0.79255600  0.02461800  0.32445600  1
  H  1672  1  0.84935200  0.92383100  0.45958000  1
  H  1679  1  0.72007700  0.96628700  0.88889700  1
  H  1680  1  0.72593800  0.94070100  0.85996100  1
  H  1687  1  0.64925100  0.96494600  0.91531700  1
  H  1688  1  0.64149300  0.99124800  0.94313000  1
  H  1689  1  0.69830500  0.03658600  0.92375000  1
  H  1690  1  0.65114200  0.94289400  0.84793300  1
  H  1691  1  0.70586300  0.01027800  0.89579000  1
  H  1692  1  0.64537300  0.96858100  0.87654700  1
  H  1695  1  0.70499300  0.92898300  0.82448600  1
  H  1696  1  0.64814300  0.02974500  0.95962100  1
  H  1703  1  0.73855600  0.50517900  0.65039200  1
  H  1704  1  0.71292400  0.49930800  0.67930200  1
  H  1711  1  0.73740300  0.57607100  0.62417100  1
  H  1712  1  0.76367900  0.58385000  0.59634700  1
  H  1713  1  0.80892600  0.52688500  0.61556300  1
  H  1714  1  0.71544200  0.57404700  0.69155200  1
  H  1715  1  0.78264000  0.51930100  0.64353700  1
  H  1716  1  0.74116700  0.57982500  0.66296600  1
  H  1719  1  0.70133000  0.52033200  0.71491300  1
  H  1720  1  0.80213700  0.57716000  0.57980300  1
  H  1727  1  0.75882800  0.44846700  0.15044000  1
  H  1728  1  0.78446900  0.45435100  0.17934400  1
  H  1735  1  0.76004800  0.37758500  0.12419200  1
  H  1736  1  0.73377500  0.36979600  0.09636680  1
  H  1737  1  0.68848000  0.42671200  0.11561000  1
  H  1738  1  0.78204400  0.37960300  0.19156200  1
  H  1739  1  0.71476500  0.43430700  0.14358400  1
  H  1740  1  0.75630800  0.37381300  0.16298200  1
  H  1743  1  0.79602000  0.43322500  0.21499300  1
  H  1744  1  0.69530300  0.37645800  0.07983480  1
  H  1751  1  0.22120800  0.96656100  0.40035400  1
  H  1752  1  0.22689100  0.94135100  0.42954300  1
  H  1759  1  0.15031800  0.96565700  0.37407400  1
  H  1760  1  0.14304400  0.99152000  0.34585300  1
  H  1761  1  0.20045100  0.03640000  0.36474700  1
  H  1762  1  0.15215800  0.94451600  0.44171400  1
  H  1763  1  0.20753200  0.01055200  0.39309400  1
  H  1764  1  0.14656500  0.96986000  0.41283800  1
  H  1767  1  0.20566700  0.93046500  0.46530600  1
  H  1768  1  0.15015500  0.03005900  0.32917700  1
  H  1775  1  0.27623900  0.98712400  0.90029300  1
  H  1776  1  0.27055300  0.01233000  0.92948500  1
  H  1783  1  0.34716200  0.98795000  0.87408400  1
  H  1784  1  0.35444500  0.96209200  0.84586000  1
  H  1785  1  0.29696000  0.91726900  0.86468100  1
  H  1786  1  0.34526400  0.00905100  0.94173000  1
  H  1787  1  0.28986900  0.94311200  0.89302900  1
  H  1788  1  0.35086000  0.98371300  0.91285000  1
  H  1791  1  0.29172400  0.02319600  0.96526200  1
  H  1792  1  0.34730500  0.92359400  0.82914400  1
  H  1799  1  0.76834800  0.94942000  0.64583000  1
  H  1800  1  0.79594100  0.95565700  0.61844400  1
  H  1807  1  0.75739100  0.87639300  0.66247700  1
  H  1808  1  0.73064800  0.86863500  0.69002800  1
  H  1809  1  0.69450500  0.93424600  0.67802800  1
  H  1810  1  0.77956200  0.88624200  0.59567400  1
  H  1811  1  0.72131800  0.94188600  0.65042700  1
  H  1812  1  0.75217300  0.88013900  0.62296700  1
  H  1815  1  0.81300400  0.94173200  0.58570900  1
  H  1816  1  0.69436300  0.87885400  0.70860100  1
  H  1823  1  0.72916000  0.00421500  0.14577000  1
  H  1824  1  0.70158900  0.99800700  0.11836100  1
  H  1831  1  0.74009000  0.07722400  0.16247200  1
  H  1832  1  0.76680100  0.08496800  0.19004800  1
  H  1833  1  0.80297100  0.01937400  0.17803800  1
  H  1834  1  0.71800400  0.06743600  0.09564380  1
  H  1835  1  0.77619000  0.01174900  0.15041200  1
  H  1836  1  0.74536800  0.07351300  0.12296200  1
  H  1839  1  0.68463200  0.01196100  0.08556780  1
  H  1840  1  0.80306300  0.07474800  0.20864400  1
  H  1847  1  0.27593700  0.49206700  0.89145800  1
  H  1848  1  0.27017800  0.51809100  0.86280700  1
  H  1855  1  0.34813000  0.48768800  0.91312900  1
  H  1856  1  0.35601000  0.46202100  0.94134800  1
  H  1857  1  0.29451300  0.42051600  0.92651200  1
  H  1858  1  0.34272800  0.50706500  0.84546900  1
  H  1859  1  0.28678900  0.44623100  0.89819800  1
  H  1860  1  0.34838400  0.48114400  0.87392800  1
  H  1863  1  0.28754500  0.53058100  0.82746700  1
  H  1864  1  0.34759100  0.42535500  0.95978200  1
  H  1871  1  0.22164800  0.46177500  0.39127800  1
  H  1872  1  0.22739500  0.43587100  0.36254400  1
  H  1879  1  0.14950500  0.46578500  0.41321600  1
  H  1880  1  0.14161800  0.49140100  0.44146600  1
  H  1881  1  0.20289500  0.53316400  0.42650200  1
  H  1882  1  0.15468900  0.44653200  0.34551700  1
  H  1883  1  0.21062200  0.50750500  0.39815500  1
  H  1884  1  0.14904600  0.47235000  0.37405200  1
  H  1887  1  0.20973400  0.42365700  0.32706000  1
  H  1888  1  0.14992800  0.52811500  0.45987300  1
  H  1895  1  0.23882800  0.00410800  0.15042900  1
  H  1896  1  0.21316000  0.99831000  0.17931200  1
  H  1903  1  0.23748600  0.07477400  0.12356800  1
  H  1904  1  0.26391500  0.08209100  0.09573080  1
  H  1905  1  0.30906800  0.02546300  0.11578800  1
  H  1906  1  0.21472400  0.07322700  0.19087400  1
  H  1907  1  0.28265700  0.01834500  0.14376400  1
  H  1908  1  0.24053400  0.07894100  0.16231800  1
  H  1911  1  0.20154200  0.01971200  0.21478300  1
  H  1912  1  0.30309900  0.07533500  0.07986480  1
  H  1919  1  0.25863200  0.94952700  0.65047100  1
  H  1920  1  0.28428700  0.95530600  0.67936400  1
  H  1927  1  0.26001000  0.87888000  0.62356800  1
  H  1928  1  0.23360100  0.87157100  0.59571600  1
  H  1929  1  0.18841700  0.92817600  0.61578100  1
  H  1930  1  0.28273400  0.88038100  0.69087900  1
  H  1931  1  0.21481000  0.93528400  0.64377000  1
  H  1932  1  0.25693500  0.87468400  0.66231300  1
  H  1935  1  0.29586200  0.93382200  0.71485000  1
  H  1936  1  0.19442000  0.87831800  0.57984400  1
  H  1943  1  0.72164000  0.45761200  0.89335700  1
  H  1944  1  0.72797300  0.43013500  0.92081300  1
  H  1951  1  0.64860200  0.46861300  0.87691200  1
  H  1952  1  0.64077400  0.49526800  0.84931000  1
  H  1953  1  0.70644200  0.53141600  0.86109400  1
  H  1954  1  0.65873100  0.44679300  0.94381600  1
  H  1955  1  0.71415100  0.50469000  0.88873600  1
  H  1956  1  0.65252600  0.47405600  0.91644500  1
  H  1959  1  0.71418300  0.41328300  0.95368200  1
  H  1960  1  0.65097300  0.53150700  0.83063300  1
  H  1967  1  0.77584600  0.49605100  0.39332600  1
  H  1968  1  0.76951900  0.52352000  0.42078900  1
  H  1975  1  0.84888800  0.48500700  0.37691300  1
  H  1976  1  0.85671600  0.45836600  0.34930000  1
  H  1977  1  0.79101400  0.42225500  0.36102900  1
  H  1978  1  0.83873100  0.50678900  0.44382000  1
  H  1979  1  0.78330300  0.44896900  0.38868200  1
  H  1980  1  0.84493200  0.47953600  0.41644100  1
  H  1983  1  0.78330000  0.54031400  0.45369300  1
  H  1984  1  0.84650500  0.42215700  0.33059300  1
  H  1991  1  0.24042900  0.20974300  0.31550500  1
  H  1992  1  0.24151500  0.16673300  0.31449300  1
  H  1999  1  0.18462200  0.24423800  0.28083700  1
  H  2000  1  0.17820400  0.28642300  0.28472100  1
  H  2001  1  0.21184400  0.28409400  0.34244000  1
  H  2002  1  0.16736600  0.16563900  0.29967200  1
  H  2003  1  0.21799700  0.24176300  0.33861100  1
  H  2004  1  0.16639400  0.20830900  0.30075300  1
  H  2007  1  0.21925600  0.12824900  0.31316400  1
  H  2008  1  0.18370500  0.31829900  0.33099500  1
  H  2015  1  0.25709000  0.74385500  0.81547700  1
  H  2016  1  0.25602800  0.78686600  0.81447200  1
  H  2023  1  0.31291900  0.70934900  0.78084400  1
  H  2024  1  0.31932100  0.66716200  0.78471500  1
  H  2025  1  0.28561300  0.66947200  0.84240700  1
  H  2026  1  0.33019500  0.78792700  0.79972100  1
  H  2027  1  0.27947800  0.71180600  0.83859000  1
  H  2028  1  0.33114400  0.74525500  0.80079100  1
  H  2031  1  0.27831100  0.82534300  0.81317100  1
  H  2032  1  0.31374800  0.63526700  0.83098200  1
  H  2039  1  0.01499000  0.96877000  0.56618000  1
  H  2040  1  0.05801100  0.96975200  0.56553600  1
  H  2047  1  0.98081100  0.91365500  0.53055400  1
  H  2048  1  0.93853600  0.90738600  0.53390800  1
  H  2049  1  0.94015400  0.94006100  0.59203800  1
  H  2050  1  0.05908800  0.89582800  0.54993200  1
  H  2051  1  0.98257100  0.94607700  0.58873400  1
  H  2052  1  0.01639700  0.89495800  0.55064300  1
  H  2055  1  0.09645900  0.94745100  0.56419900  1
  H  2056  1  0.90608200  0.91199700  0.57984700  1
  H  2063  1  0.48247600  0.98484400  0.06618980  1
  H  2064  1  0.43945500  0.98386900  0.06553080  1
  H  2071  1  0.51668400  0.03994600  0.03056880  1
  H  2072  1  0.55895700  0.04621100  0.03393880  1
  H  2073  1  0.55730200  0.01354100  0.09206880  1
  H  2074  1  0.43840000  0.05778600  0.04990880  1
  H  2075  1  0.51488900  0.00753000  0.08874880  1
  H  2076  1  0.48109000  0.05864800  0.05063480  1
  H  2079  1  0.40101400  0.00617300  0.06417380  1
  H  2080  1  0.59138800  0.04158100  0.07989980  1
  H  2087  1  0.25817100  0.20950800  0.97437500  1
  H  2088  1  0.25741100  0.16646700  0.97452600  1
  H  2095  1  0.31493800  0.24326100  0.00807585  1
  H  2096  1  0.32105500  0.28561000  0.00494485  1
  H  2097  1  0.28567000  0.28480800  0.94794700  1
  H  2098  1  0.33225500  0.16548500  0.98663000  1
  H  2099  1  0.27975000  0.24234000  0.95103400  1
  H  2100  1  0.33288800  0.20820300  0.98645500  1
  H  2103  1  0.27987900  0.12810500  0.97453100  1
  H  2104  1  0.31533300  0.31828400  0.95967900  1
  H  2111  1  0.23935000  0.74414200  0.47430400  1
  H  2112  1  0.24006000  0.78718400  0.47444800  1
  H  2119  1  0.18272700  0.71031900  0.50814000  1
  H  2120  1  0.17661200  0.66797200  0.50500300  1
  H  2121  1  0.21181800  0.66882200  0.44792600  1
  H  2122  1  0.16526000  0.78807800  0.48675200  1
  H  2123  1  0.21773200  0.71128600  0.45102100  1
  H  2124  1  0.16467800  0.74536100  0.48658100  1
  H  2127  1  0.21757300  0.82552000  0.47454900  1
  H  2128  1  0.18226000  0.63532100  0.45967900  1
  H  2135  1  0.48236000  0.96806600  0.72318900  1
  H  2136  1  0.43933500  0.96848700  0.72292400  1
  H  2143  1  0.51628500  0.91370200  0.75961100  1
  H  2144  1  0.55872700  0.90781600  0.75697900  1
  H  2145  1  0.55805900  0.93972800  0.69853800  1
  H  2146  1  0.43874900  0.89455100  0.73852500  1
  H  2147  1  0.51552300  0.94542000  0.70113400  1
  H  2148  1  0.48146700  0.89425000  0.73873200  1
  H  2151  1  0.40112500  0.94617400  0.72420400  1
  H  2152  1  0.59158100  0.91088000  0.71171900  1
  H  2159  1  0.01511500  0.98557000  0.22319600  1
  H  2160  1  0.05814100  0.98513600  0.22294300  1
  H  2167  1  0.98119500  0.03995400  0.25960100  1
  H  2168  1  0.93875200  0.04583700  0.25696600  1
  H  2169  1  0.93942600  0.01389800  0.19853500  1
  H  2170  1  0.05874000  0.05907700  0.23853300  1
  H  2171  1  0.98196200  0.00821000  0.20113400  1
  H  2172  1  0.01602200  0.05939100  0.23872800  1
  H  2175  1  0.09635400  0.00744600  0.22421900  1
  H  2176  1  0.90589500  0.04274600  0.21170900  1
  H  2183  1  0.75739300  0.74334400  0.47286300  1
  H  2184  1  0.75749400  0.78639700  0.47317100  1
  H  2191  1  0.81219000  0.70835900  0.50809700  1
  H  2192  1  0.81774500  0.66596300  0.50501100  1
  H  2193  1  0.78442200  0.66750300  0.44714100  1
  H  2194  1  0.83177600  0.78579200  0.48753400  1
  H  2195  1  0.77911200  0.71004300  0.45018100  1
  H  2196  1  0.83155800  0.74308300  0.48718800  1
  H  2199  1  0.78080100  0.82431800  0.47393900  1
  H  2200  1  0.81231200  0.63332200  0.45923500  1
  H  2207  1  0.74007900  0.21026800  0.97286800  1
  H  2208  1  0.73994800  0.16721600  0.97316500  1
  H  2215  1  0.68532000  0.24527800  0.00812585  1
  H  2216  1  0.67977300  0.28767600  0.00504685  1
  H  2217  1  0.71306100  0.28613000  0.94716300  1
  H  2218  1  0.66567300  0.16786700  0.98754500  1
  H  2219  1  0.71836400  0.24358800  0.95019700  1
  H  2220  1  0.66591800  0.21057500  0.98721000  1
  H  2223  1  0.71662200  0.12930800  0.97393800  1
  H  2224  1  0.68518300  0.32031300  0.95926500  1
  H  2231  1  0.73968500  0.74374300  0.81563100  1
  H  2232  1  0.73971200  0.78677600  0.81587100  1
  H  2239  1  0.68556000  0.70934500  0.77930800  1
  H  2240  1  0.67994200  0.66687400  0.78196900  1
  H  2241  1  0.71191500  0.66779400  0.84038300  1
  H  2242  1  0.66571800  0.78666800  0.80045900  1
  H  2243  1  0.71733900  0.71036100  0.83775900  1
  H  2244  1  0.66581000  0.74394900  0.80027200  1
  H  2247  1  0.71703800  0.82477700  0.81461100  1
  H  2248  1  0.68319000  0.63415200  0.82728600  1
  H  2255  1  0.75781600  0.20989500  0.31562300  1
  H  2256  1  0.75781200  0.16686200  0.31587700  1
  H  2263  1  0.81188300  0.24430800  0.27924800  1
  H  2264  1  0.81749800  0.28678100  0.28190100  1
  H  2265  1  0.78558700  0.28586300  0.34034300  1
  H  2266  1  0.83179000  0.16700400  0.30040200  1
  H  2267  1  0.78017100  0.24329400  0.33772300  1
  H  2268  1  0.83167300  0.20972100  0.30020300  1
  H  2271  1  0.78049500  0.12887100  0.31459000  1
  H  2272  1  0.81429700  0.31950200  0.32722500  1
  H  2279  1  0.51487200  0.46791200  0.06609880  1
  H  2280  1  0.55791800  0.46799100  0.06559180  1
  H  2287  1  0.47989100  0.41251900  0.03145580  1
  H  2288  1  0.43754200  0.40687900  0.03475080  1
  H  2289  1  0.43927000  0.44104000  0.09226980  1
  H  2290  1  0.55754700  0.39357800  0.05172780  1
  H  2291  1  0.48177300  0.44641600  0.08902380  1
  H  2292  1  0.51484400  0.39361000  0.05228080  1
  H  2295  1  0.59592000  0.44482500  0.06487580  1
  H  2296  1  0.40495100  0.41333800  0.08065780  1
  H  2303  1  0.98256900  0.48569400  0.56605700  1
  H  2304  1  0.93952300  0.48561800  0.56554200  1
  H  2311  1  0.01756300  0.54114000  0.53148400  1
  H  2312  1  0.05991100  0.54677100  0.53479400  1
  H  2313  1  0.05816700  0.51251900  0.59227100  1
  H  2314  1  0.93990200  0.56005400  0.55176200  1
  H  2315  1  0.01566300  0.50715100  0.58901300  1
  H  2316  1  0.98260700  0.56001800  0.55232300  1
  H  2319  1  0.90152300  0.50879300  0.56485600  1
  H  2320  1  0.09248400  0.54026700  0.58069500  1
  H  2327  1  0.98201100  0.46718200  0.22450500  1
  H  2328  1  0.93896500  0.46763600  0.22435000  1
  H  2335  1  0.01581400  0.41109300  0.25895700  1
  H  2336  1  0.05819900  0.40505000  0.25611500  1
  H  2337  1  0.05772600  0.43963100  0.19876500  1
  H  2338  1  0.93839200  0.39293600  0.23709300  1
  H  2339  1  0.01522600  0.44547800  0.20156800  1
  H  2340  1  0.98111200  0.39261100  0.23722400  1
  H  2343  1  0.90075000  0.44500500  0.22448500  1
  H  2344  1  0.09108900  0.41018200  0.21087100  1
  H  2351  1  0.51557900  0.48631600  0.72445000  1
  H  2352  1  0.55862400  0.48591000  0.72432500  1
  H  2359  1  0.48166700  0.54232400  0.75894100  1
  H  2360  1  0.43928800  0.54835700  0.75605000  1
  H  2361  1  0.43987500  0.51384300  0.69866800  1
  H  2362  1  0.55910000  0.56058300  0.73718700  1
  H  2363  1  0.48237100  0.50801600  0.70151800  1
  H  2364  1  0.51638400  0.56086200  0.73728300  1
  H  2367  1  0.59681200  0.50857300  0.72453000  1
  H  2368  1  0.40646600  0.54321400  0.71073800  1
  C  1  1  0.16529200  0.38414900  0.88445500  1
  C  2  1  0.16714400  0.40011600  0.90105100  1
  C  3  1  0.17741300  0.39253300  0.91954200  1
  C  4  1  0.18532600  0.36852600  0.92188800  1
  C  5  1  0.18277400  0.35194000  0.90556700  1
  C  6  1  0.17316300  0.36002300  0.88677800  1
  C  9  1  0.15649400  0.39300500  0.86562000  1
  C  10  1  0.13229100  0.40052900  0.86316400  1
  C  11  1  0.12442100  0.41067100  0.84452800  1
  C  12  1  0.14112100  0.41361700  0.82835600  1
  C  13  1  0.16517700  0.40569200  0.83060400  1
  C  14  1  0.17267900  0.39555300  0.84924600  1
  C  27  1  0.33235100  0.56949000  0.38439600  1
  C  28  1  0.33055100  0.55351500  0.40098900  1
  C  29  1  0.32023600  0.56105400  0.41947400  1
  C  30  1  0.31226900  0.58504500  0.42183200  1
  C  31  1  0.31480300  0.60165000  0.40552500  1
  C  32  1  0.32442900  0.59359800  0.38673100  1
  C  35  1  0.34111700  0.56064300  0.36554600  1
  C  36  1  0.36530600  0.55308200  0.36306700  1
  C  37  1  0.37313800  0.54293100  0.34442200  1
  C  38  1  0.35641900  0.54003000  0.32825700  1
  C  39  1  0.33237800  0.54799900  0.33052700  1
  C  40  1  0.32491400  0.55813500  0.34918100  1
  C  53  1  0.84095100  0.89362100  0.13345000  1
  C  54  1  0.82487700  0.89560000  0.14995900  1
  C  55  1  0.83207000  0.90668500  0.16822200  1
  C  56  1  0.85599300  0.91502100  0.17048700  1
  C  57  1  0.87277400  0.91203400  0.15435700  1
  C  58  1  0.86495500  0.90185100  0.13571900  1
  C  61  1  0.83240600  0.88419800  0.11474100  1
  C  62  1  0.82591700  0.85967200  0.11256200  1
  C  63  1  0.81614500  0.85118300  0.09399800  1
  C  64  1  0.81403000  0.86708900  0.07719400  1
  C  65  1  0.82091600  0.89147800  0.07917400  1
  C  66  1  0.82965400  0.89990100  0.09805200  1
  C  79  1  0.65650400  0.06003300  0.63347100  1
  C  80  1  0.67258600  0.05808400  0.64997600  1
  C  81  1  0.66539300  0.04705100  0.66826100  1
  C  82  1  0.64148200  0.03867900  0.67053100  1
  C  83  1  0.62469800  0.04162300  0.65439900  1
  C  84  1  0.63250700  0.05179200  0.63575100  1
  C  87  1  0.66503000  0.06945100  0.61475500  1
  C  88  1  0.67149600  0.09398100  0.61256500  1
  C  89  1  0.68123700  0.10247000  0.59399000  1
  C  90  1  0.68339700  0.08654900  0.57719800  1
  C  91  1  0.67653200  0.06215400  0.57919100  1
  C  92  1  0.66779800  0.05373800  0.59807300  1
  C  105  1  0.33195100  0.38396800  0.61458300  1
  C  106  1  0.32942200  0.40013400  0.59819300  1
  C  107  1  0.31962500  0.39254300  0.57945000  1
  C  108  1  0.31195600  0.36841300  0.57712700  1
  C  109  1  0.31482300  0.35174700  0.59333800  1
  C  110  1  0.32466700  0.35970600  0.61206500  1
  C  113  1  0.34042400  0.39291000  0.63349500  1
  C  114  1  0.36435900  0.40126800  0.63599300  1
  C  115  1  0.37194000  0.41139000  0.65473500  1
  C  116  1  0.35497800  0.41413200  0.67075800  1
  C  117  1  0.33114900  0.40565500  0.66826500  1
  C  118  1  0.32417200  0.39469800  0.64989500  1
  C  131  1  0.16546500  0.56967800  0.11459800  1
  C  132  1  0.16797200  0.55350400  0.09821200  1
  C  133  1  0.17780400  0.56106700  0.07947300  1
  C  134  1  0.18550600  0.58518800  0.07714700  1
  C  135  1  0.18264600  0.60186800  0.09335000  1
  C  136  1  0.17278400  0.59393000  0.11207600  1
  C  139  1  0.15700100  0.56074500  0.13351600  1
  C  140  1  0.13307100  0.55237800  0.13602300  1
  C  141  1  0.12549700  0.54226900  0.15477200  1
  C  142  1  0.14246100  0.53956400  0.17079800  1
  C  143  1  0.16627700  0.54807100  0.16830300  1
  C  144  1  0.17325200  0.55899800  0.14992100  1
  C  157  1  0.65736400  0.89586800  0.36555800  1
  C  158  1  0.67334400  0.89851400  0.34905900  1
  C  159  1  0.66558400  0.90881400  0.33056600  1
  C  160  1  0.64151300  0.91676900  0.32856000  1
  C  161  1  0.62502600  0.91367300  0.34486600  1
  C  162  1  0.63312800  0.90339700  0.36338000  1
  C  165  1  0.66614100  0.88607000  0.38404000  1
  C  166  1  0.67238900  0.86142000  0.38574500  1
  C  167  1  0.68165300  0.85222400  0.40425800  1
  C  168  1  0.68398600  0.86763600  0.42135300  1
  C  169  1  0.67788500  0.89225700  0.41960200  1
  C  170  1  0.66887500  0.90127500  0.40105600  1
  C  183  1  0.84012500  0.05775300  0.86556500  1
  C  184  1  0.82413500  0.05509800  0.84907200  1
  C  185  1  0.83189100  0.04480300  0.83057600  1
  C  186  1  0.85596500  0.03685100  0.82856400  1
  C  187  1  0.87245700  0.03995400  0.84486400  1
  C  188  1  0.86436200  0.05023100  0.86337900  1
  C  191  1  0.83136000  0.06756600  0.88404500  1
  C  192  1  0.82514200  0.09222400  0.88574700  1
  C  193  1  0.81591400  0.10143800  0.90426800  1
  C  194  1  0.81354400  0.08602900  0.92136000  1
  C  195  1  0.81961400  0.06139900  0.91961000  1
  C  196  1  0.82861300  0.05236800  0.90106300  1
  C  209  1  0.83171100  0.56859200  0.11406000  1
  C  210  1  0.82966100  0.55244000  0.09761200  1
  C  211  1  0.81838800  0.55950900  0.07939900  1
  C  212  1  0.80985000  0.58336300  0.07713800  1
  C  213  1  0.81288700  0.60022300  0.09320100  1
  C  214  1  0.82331000  0.59253600  0.11178500  1
  C  217  1  0.84131400  0.56016100  0.13273900  1
  C  218  1  0.86588900  0.55381600  0.13482900  1
  C  219  1  0.87454200  0.54414500  0.15337800  1
  C  220  1  0.85873500  0.54196100  0.17024400  1
  C  221  1  0.83429800  0.54869800  0.16834700  1
  C  222  1  0.82571900  0.55734700  0.14949200  1
  C  235  1  0.66575000  0.38503800  0.61407900  1
  C  236  1  0.66778900  0.40118400  0.59762700  1
  C  237  1  0.67910600  0.39412800  0.57942900  1
  C  238  1  0.68764200  0.37027200  0.57716900  1
  C  239  1  0.68459100  0.35341000  0.59322800  1
  C  240  1  0.67416200  0.36109800  0.61181000  1
  C  243  1  0.65614400  0.39347400  0.63275700  1
  C  244  1  0.63156800  0.39981600  0.63484400  1
  C  245  1  0.62290800  0.40948100  0.65339200  1
  C  246  1  0.63870800  0.41166100  0.67026300  1
  C  247  1  0.66314700  0.40492000  0.66837200  1
  C  248  1  0.67173200  0.39627900  0.64951600  1
  C  261  1  0.15804100  0.05810700  0.86305000  1
  C  262  1  0.17323600  0.05523000  0.84605500  1
  C  263  1  0.16418600  0.04611600  0.82755200  1
  C  264  1  0.13953900  0.04009500  0.82583300  1
  C  265  1  0.12413600  0.04259800  0.84291500  1
  C  266  1  0.13336900  0.05194600  0.86138400  1
  C  269  1  0.16773600  0.06741200  0.88137000  1
  C  270  1  0.17423400  0.09196700  0.88328700  1
  C  271  1  0.18430300  0.10065600  0.90166900  1
  C  272  1  0.18666100  0.08492400  0.91856600  1
  C  273  1  0.17971700  0.06052500  0.91683500  1
  C  274  1  0.17068300  0.05187500  0.89813400  1
  C  287  1  0.33946000  0.89547900  0.36303900  1
  C  288  1  0.32425600  0.89835700  0.34604900  1
  C  289  1  0.33329500  0.90747800  0.32754600  1
  C  290  1  0.35793900  0.91351200  0.32582000  1
  C  291  1  0.37335200  0.91100700  0.34289600  1
  C  292  1  0.36413000  0.90164600  0.36136500  1
  C  295  1  0.32977900  0.88617500  0.38136200  1
  C  296  1  0.32332100  0.86160900  0.38328900  1
  C  297  1  0.31329800  0.85291500  0.40168500  1
  C  298  1  0.31088600  0.86866100  0.41856800  1
  C  299  1  0.31779200  0.89306900  0.41682500  1
  C  300  1  0.32681400  0.90171800  0.39812000  1
  C  313  1  0.66801200  0.56828300  0.38185600  1
  C  314  1  0.67065700  0.55234400  0.39838300  1
  C  315  1  0.68096900  0.56015100  0.41685500  1
  C  316  1  0.68895700  0.58421800  0.41881000  1
  C  317  1  0.68586600  0.60066300  0.40247400  1
  C  318  1  0.67556700  0.59251900  0.38398200  1
  C  321  1  0.65823900  0.55944200  0.36339000  1
  C  322  1  0.63357800  0.55325600  0.36165300  1
  C  323  1  0.62441600  0.54391400  0.34315500  1
  C  324  1  0.63988300  0.54141900  0.32611400  1
  C  325  1  0.66451600  0.54744800  0.32790100  1
  C  326  1  0.67349700  0.55654700  0.34643000  1
  C  339  1  0.82948500  0.38537200  0.88181500  1
  C  340  1  0.82685500  0.40130400  0.89834700  1
  C  341  1  0.81652300  0.39350000  0.91681000  1
  C  342  1  0.80852600  0.36943600  0.91875900  1
  C  343  1  0.81162400  0.35299200  0.90242400  1
  C  344  1  0.82192200  0.36113800  0.88393200  1
  C  347  1  0.83926200  0.39421400  0.86335000  1
  C  348  1  0.86393000  0.40036300  0.86160800  1
  C  349  1  0.87309800  0.40970200  0.84311200  1
  C  350  1  0.85762700  0.41223700  0.82607700  1
  C  351  1  0.83298300  0.40624300  0.82786900  1
  C  352  1  0.82399800  0.39714400  0.84639600  1
  C  365  1  0.34002600  0.05711500  0.63197300  1
  C  366  1  0.32451600  0.05428800  0.64876900  1
  C  367  1  0.33321400  0.04548100  0.66752900  1
  C  368  1  0.35763600  0.03863600  0.66929900  1
  C  369  1  0.37334900  0.04089400  0.65237800  1
  C  370  1  0.36460400  0.05072600  0.63392100  1
  C  373  1  0.33066700  0.06663400  0.61360800  1
  C  374  1  0.32446000  0.09128400  0.61181600  1
  C  375  1  0.31502900  0.10035400  0.59332100  1
  C  376  1  0.31252500  0.08481900  0.57632700  1
  C  377  1  0.31860900  0.06020300  0.57817100  1
  C  378  1  0.32777800  0.05129900  0.59670100  1
  C  391  1  0.15744100  0.89649900  0.13197500  1
  C  392  1  0.17296000  0.89933300  0.14876400  1
  C  393  1  0.16427200  0.90815100  0.16752500  1
  C  394  1  0.13985100  0.91499800  0.16930100  1
  C  395  1  0.12413000  0.91273500  0.15238700  1
  C  396  1  0.13286400  0.90289200  0.13393000  1
  C  399  1  0.16678800  0.88697200  0.11360800  1
  C  400  1  0.17297600  0.86231700  0.11181700  1
  C  401  1  0.18237000  0.85323600  0.09331300  1
  C  402  1  0.18490800  0.86877100  0.07632300  1
  C  403  1  0.17884200  0.89339200  0.07816800  1
  C  404  1  0.16968100  0.90230400  0.09670000  1
  C  417  1  0.28841200  0.42082100  0.70722100  1
  C  418  1  0.27563000  0.39889700  0.70946200  1
  C  419  1  0.26006800  0.39523000  0.72601600  1
  C  420  1  0.25656300  0.41345400  0.74074000  1
  C  421  1  0.26862700  0.43567900  0.73817500  1
  C  422  1  0.28437500  0.43929200  0.72166000  1
  C  425  1  0.24165600  0.40911900  0.75791700  1
  C  426  1  0.24496300  0.38821400  0.76988300  1
  C  427  1  0.22994100  0.38346100  0.78661200  1
  C  428  1  0.21103700  0.39938600  0.79187400  1
  C  429  1  0.20786500  0.42040600  0.77992400  1
  C  430  1  0.22302600  0.42526200  0.76326500  1
  C  437  1  0.19623800  0.39382800  0.80826800  1
  C  438  1  0.30482500  0.42422500  0.69155600  1
  C  441  1  0.20910600  0.53289300  0.20716800  1
  C  442  1  0.22186400  0.55482700  0.20944000  1
  C  443  1  0.23741200  0.55848200  0.22600500  1
  C  444  1  0.24092600  0.54024000  0.24070900  1
  C  445  1  0.22888500  0.51800700  0.23811100  1
  C  446  1  0.21315100  0.51440200  0.22158600  1
  C  449  1  0.25582100  0.54456300  0.25789600  1
  C  450  1  0.25249400  0.56545100  0.26988100  1
  C  451  1  0.26751000  0.57019600  0.28661500  1
  C  452  1  0.28642700  0.55428200  0.29186400  1
  C  453  1  0.28961300  0.53327800  0.27989900  1
  C  454  1  0.27446100  0.52842800  0.26323200  1
  C  461  1  0.30122200  0.55983600  0.30826100  1
  C  462  1  0.19271300  0.52950300  0.19149000  1
  C  465  1  0.80846300  0.01465000  0.95561400  1
  C  466  1  0.83170800  0.00621800  0.96074300  1
  C  467  1  0.83510300  0.99111900  0.97764300  1
  C  468  1  0.81538500  0.98388600  0.98983500  1
  C  469  1  0.79207900  0.99203100  0.98445000  1
  C  470  1  0.78862800  0.00718200  0.96750900  1
  C  473  1  0.81915800  0.96862800  0.00694300  1
  C  474  1  0.83778000  0.97360300  0.02102100  1
  C  475  1  0.84230100  0.95808100  0.03746900  1
  C  476  1  0.82837400  0.93702200  0.04039200  1
  C  477  1  0.80959200  0.93213900  0.02639500  1
  C  478  1  0.80501500  0.94774600  0.00996600  1
  C  485  1  0.83354800  0.92198600  0.05669800  1
  C  486  1  0.80516800  0.02904100  0.93873300  1
  C  489  1  0.68905100  0.93898900  0.45561900  1
  C  490  1  0.66581000  0.94745400  0.46072700  1
  C  491  1  0.66241200  0.96254700  0.47763100  1
  C  492  1  0.68212300  0.96974300  0.48984700  1
  C  493  1  0.70542600  0.96156700  0.48448200  1
  C  494  1  0.70887900  0.94642000  0.46753900  1
  C  497  1  0.67834800  0.98499000  0.50696300  1
  C  498  1  0.65970200  0.98002200  0.52102000  1
  C  499  1  0.65517900  0.99553500  0.53747500  1
  C  500  1  0.66912600  0.01657500  0.54042600  1
  C  501  1  0.68793200  0.02144600  0.52644900  1
  C  502  1  0.69251300  0.00584900  0.51001600  1
  C  509  1  0.66394200  0.03160500  0.55673500  1
  C  510  1  0.69234700  0.92459200  0.43874100  1
  C  513  1  0.71137900  0.53617100  0.29205900  1
  C  514  1  0.71995300  0.55939400  0.28703300  1
  C  515  1  0.73506700  0.56279600  0.27014600  1
  C  516  1  0.74217200  0.54310400  0.25787000  1
  C  517  1  0.73390300  0.51981300  0.26316400  1
  C  518  1  0.71873100  0.51635500  0.28009100  1
  C  521  1  0.75740500  0.54689500  0.24075300  1
  C  522  1  0.75245700  0.56559400  0.22674100  1
  C  523  1  0.76795500  0.57013000  0.21028200  1
  C  524  1  0.78895900  0.55614500  0.20728300  1
  C  525  1  0.79381300  0.53728900  0.22121300  1
  C  526  1  0.77822900  0.53269200  0.23765500  1
  C  533  1  0.80395800  0.56132700  0.19095700  1
  C  534  1  0.69691800  0.53288800  0.30889500  1
  C  537  1  0.78606100  0.41748700  0.79208100  1
  C  538  1  0.77751100  0.39425600  0.78705100  1
  C  539  1  0.76238900  0.39084600  0.77016800  1
  C  540  1  0.75525600  0.41053600  0.75790300  1
  C  541  1  0.76350200  0.43383500  0.76320400  1
  C  542  1  0.77868000  0.43730000  0.78012700  1
  C  545  1  0.74002200  0.40673700  0.74078700  1
  C  546  1  0.74498400  0.38804900  0.72676800  1
  C  547  1  0.72948800  0.38350700  0.71030900  1
  C  548  1  0.70847300  0.39747600  0.70731600  1
  C  549  1  0.70360300  0.41632100  0.72125500  1
  C  550  1  0.71918300  0.42092300  0.73769700  1
  C  557  1  0.69347600  0.39228900  0.69099000  1
  C  558  1  0.80052500  0.42077500  0.80891200  1
  C  561  1  0.19001500  0.94021200  0.04230100  1
  C  562  1  0.16684300  0.94882900  0.03716200  1
  C  563  1  0.16354900  0.96370200  0.02010500  1
  C  564  1  0.18330500  0.97049900  0.00777800  1
  C  565  1  0.20653700  0.96214900  0.01317000  1
  C  566  1  0.20988800  0.94723000  0.03026500  1
  C  569  1  0.17967700  0.98552200  0.99050900  1
  C  570  1  0.16098100  0.98055700  0.97649600  1
  C  571  1  0.15674700  0.99579700  0.95980500  1
  C  572  1  0.17105800  0.01652600  0.95657900  1
  C  573  1  0.18985600  0.02144100  0.97054800  1
  C  574  1  0.19414100  0.00612300  0.98721600  1
  C  581  1  0.16621300  0.03129800  0.94005100  1
  C  582  1  0.19319900  0.92593500  0.05924600  1
  C  585  1  0.30741700  0.01341000  0.54228200  1
  C  586  1  0.33058400  0.00476200  0.53716300  1
  C  587  1  0.33388000  0.98989300  0.52010400  1
  C  588  1  0.31413200  0.98313100  0.50775300  1
  C  589  1  0.29090500  0.99151200  0.51312600  1
  C  590  1  0.28755100  0.00642700  0.53022200  1
  C  593  1  0.31776300  0.96811300  0.49048100  1
  C  594  1  0.33648300  0.97306400  0.47648900  1
  C  595  1  0.34072300  0.95782700  0.45979700  1
  C  596  1  0.32639400  0.93711300  0.45654800  1
  C  597  1  0.30757000  0.93221600  0.47049700  1
  C  598  1  0.30327900  0.94753200  0.48716500  1
  C  605  1  0.33125000  0.92234000  0.44002100  1
  C  606  1  0.30422800  0.02769300  0.55922400  1
  C  609  1  0.79071700  0.92153000  0.20853700  1
  C  610  1  0.77747100  0.89980200  0.21023500  1
  C  611  1  0.76133000  0.89612100  0.22639000  1
  C  612  1  0.75768800  0.91413400  0.24126900  1
  C  613  1  0.77035300  0.93611100  0.23933500  1
  C  614  1  0.78667500  0.93972500  0.22323200  1
  C  617  1  0.74195100  0.90989800  0.25793000  1
  C  618  1  0.74413000  0.88868300  0.26969200  1
  C  619  1  0.72839100  0.88417400  0.28599500  1
  C  620  1  0.70990300  0.90067900  0.29101600  1
  C  621  1  0.70776200  0.92193100  0.27921100  1
  C  622  1  0.72363100  0.92652900  0.26298000  1
  C  629  1  0.69454600  0.89552900  0.30711300  1
  C  630  1  0.80748700  0.92510200  0.19313400  1
  C  633  1  0.70683200  0.03214500  0.70848300  1
  C  634  1  0.72008400  0.05386700  0.71020100  1
  C  635  1  0.73621000  0.05753300  0.72636800  1
  C  636  1  0.73983300  0.03950700  0.74123900  1
  C  637  1  0.72716800  0.01753200  0.73928300  1
  C  638  1  0.71086000  0.01393400  0.72316500  1
  C  641  1  0.75554800  0.04372900  0.75791700  1
  C  642  1  0.75334900  0.06493400  0.76969200  1
  C  643  1  0.76907000  0.06943600  0.78600900  1
  C  644  1  0.78755800  0.05293200  0.79103400  1
  C  645  1  0.78971600  0.03168800  0.77921800  1
  C  646  1  0.77386500  0.02709900  0.76297300  1
  C  653  1  0.80290100  0.05807900  0.80714200  1
  C  654  1  0.69007400  0.02859500  0.69307100  1
  C  657  1  0.30597000  0.51535600  0.45570700  1
  C  658  1  0.32847300  0.50413100  0.45920000  1
  C  659  1  0.33183400  0.48890200  0.47601400  1
  C  660  1  0.31276800  0.48426400  0.48973200  1
  C  661  1  0.29005300  0.49488100  0.48587800  1
  C  662  1  0.28668300  0.51024300  0.46906700  1
  C  665  1  0.31668700  0.46946000  0.50705800  1
  C  666  1  0.33669200  0.47356800  0.51992300  1
  C  667  1  0.34126700  0.45845400  0.53662600  1
  C  668  1  0.32604700  0.43867500  0.54098500  1
  C  669  1  0.30586900  0.43473900  0.52819900  1
  C  670  1  0.30120100  0.44996800  0.51154300  1
  C  677  1  0.33151900  0.42375200  0.55730900  1
  C  678  1  0.30284700  0.53097900  0.43954000  1
  C  681  1  0.19152400  0.43844300  0.95560000  1
  C  682  1  0.16897800  0.44952200  0.95920200  1
  C  683  1  0.16562400  0.46468600  0.97606100  1
  C  684  1  0.18474100  0.46939100  0.98971400  1
  C  685  1  0.20749400  0.45891100  0.98575100  1
  C  686  1  0.21085800  0.44361800  0.96889100  1
  C  689  1  0.18083700  0.48414600  0.00707500  1
  C  690  1  0.16089900  0.47994600  0.01999000  1
  C  691  1  0.15631900  0.49503100  0.03671300  1
  C  692  1  0.17147100  0.51487100  0.04104300  1
  C  693  1  0.19159300  0.51889500  0.02821300  1
  C  694  1  0.19626300  0.50369700  0.01153700  1
  C  701  1  0.16597900  0.52977700  0.05737300  1
  C  702  1  0.19462900  0.42290800  0.93938000  1
  C  705  1  0.21113800  0.03526200  0.79171100  1
  C  706  1  0.21942300  0.05852700  0.78648300  1
  C  707  1  0.23458400  0.06189000  0.76961700  1
  C  708  1  0.24201600  0.04211600  0.75757400  1
  C  709  1  0.23394600  0.01880500  0.76303400  1
  C  710  1  0.21874800  0.01538500  0.77994100  1
  C  713  1  0.25742500  0.04579600  0.74055300  1
  C  714  1  0.25256600  0.06429700  0.72633000  1
  C  715  1  0.26814400  0.06856200  0.70986900  1
  C  716  1  0.28911100  0.05446900  0.70708700  1
  C  717  1  0.29394700  0.03588900  0.72127700  1
  C  718  1  0.27829600  0.03158100  0.73771900  1
  C  725  1  0.30413500  0.05925100  0.69071900  1
  C  726  1  0.19681100  0.03198200  0.80861700  1
  C  729  1  0.28631200  0.91834900  0.29174100  1
  C  730  1  0.27803100  0.89508600  0.28649700  1
  C  731  1  0.26288000  0.89173300  0.26962500  1
  C  732  1  0.25545100  0.91151500  0.25759000  1
  C  733  1  0.26351200  0.93482400  0.26306800  1
  C  734  1  0.27870300  0.93823400  0.27998100  1
  C  737  1  0.24005400  0.90784400  0.24056000  1
  C  738  1  0.24492900  0.88935400  0.22632700  1
  C  739  1  0.22936200  0.88509500  0.20985700  1
  C  740  1  0.20839300  0.89918200  0.20707600  1
  C  741  1  0.20354200  0.91775400  0.22127000  1
  C  742  1  0.21918200  0.92205600  0.23772200  1
  C  749  1  0.19337400  0.89440000  0.19070100  1
  C  750  1  0.30063900  0.92161500  0.30864800  1
  C  753  1  0.69394500  0.43552300  0.53915400  1
  C  754  1  0.67223600  0.44880700  0.53750100  1
  C  755  1  0.66849200  0.46486800  0.52130300  1
  C  756  1  0.68642800  0.46838900  0.50633900  1
  C  757  1  0.70839000  0.45568800  0.50822400  1
  C  758  1  0.71206500  0.43944200  0.52437100  1
  C  761  1  0.68214300  0.48406400  0.48965300  1
  C  762  1  0.66088900  0.48185600  0.47794600  1
  C  763  1  0.65633700  0.49754400  0.46161600  1
  C  764  1  0.67284200  0.51600300  0.45651900  1
  C  765  1  0.69412800  0.51817700  0.46827500  1
  C  766  1  0.69876700  0.50235900  0.48453100  1
  C  773  1  0.66766700  0.53130500  0.44039600  1
  C  774  1  0.69754900  0.41879100  0.55457400  1
  C  777  1  0.80353300  0.51809500  0.03914500  1
  C  778  1  0.82523000  0.50479300  0.03749900  1
  C  779  1  0.82897200  0.48873600  0.02129500  1
  C  780  1  0.81104400  0.48524000  0.00632000  1
  C  781  1  0.78909100  0.49795700  0.00820000  1
  C  782  1  0.78542000  0.51419900  0.02435200  1
  C  785  1  0.81532900  0.46957500  0.98962600  1
  C  786  1  0.83659400  0.47177500  0.97793200  1
  C  787  1  0.84114600  0.45609700  0.96159600  1
  C  788  1  0.82463200  0.43765200  0.95648200  1
  C  789  1  0.80333700  0.43548500  0.96822500  1
  C  790  1  0.79869500  0.45129400  0.98448600  1
  C  797  1  0.82981300  0.42235300  0.94035400  1
  C  798  1  0.79993600  0.53482400  0.05456800  1
  C  801  1  0.20465300  0.16175100  0.91087600  1
  C  802  1  0.18309100  0.17456100  0.90687800  1
  C  803  1  0.18250500  0.19984300  0.90740400  1
  C  804  1  0.20340500  0.21329700  0.91209100  1
  C  805  1  0.22494400  0.20060600  0.91622900  1
  C  806  1  0.22557400  0.17525100  0.91554500  1
  C  809  1  0.20216400  0.23886700  0.91340300  1
  C  810  1  0.19085800  0.25247500  0.89790000  1
  C  811  1  0.18727900  0.27740600  0.90010300  1
  C  812  1  0.19479700  0.28948200  0.91797400  1
  C  813  1  0.20654600  0.27601500  0.93331300  1
  C  814  1  0.21035800  0.25110000  0.93098500  1
  C  821  1  0.18908900  0.31343500  0.92132100  1
  C  822  1  0.20533600  0.13668300  0.91097000  1
  C  825  1  0.29290200  0.79183200  0.41089000  1
  C  826  1  0.31446300  0.77901200  0.40691000  1
  C  827  1  0.31503200  0.75373000  0.40743300  1
  C  828  1  0.29412200  0.74028400  0.41209400  1
  C  829  1  0.27258300  0.75298500  0.41621700  1
  C  830  1  0.27196700  0.77834100  0.41554000  1
  C  833  1  0.29534700  0.71471200  0.41339600  1
  C  834  1  0.30666500  0.70110700  0.39789700  1
  C  835  1  0.31023400  0.67617400  0.40009300  1
  C  836  1  0.30269200  0.66409000  0.41795300  1
  C  837  1  0.29092600  0.67755500  0.43328600  1
  C  838  1  0.28712800  0.70247300  0.43096400  1
  C  845  1  0.30839800  0.64013600  0.42129900  1
  C  846  1  0.29223000  0.81690000  0.41098400  1
  C  849  1  0.06298800  0.93299400  0.16157300  1
  C  850  1  0.05017000  0.91152500  0.15724500  1
  C  851  1  0.02488000  0.91100400  0.15755400  1
  C  852  1  0.01142600  0.93187100  0.16234200  1
  C  853  1  0.02412600  0.95330800  0.16682600  1
  C  854  1  0.04948900  0.95387900  0.16636100  1
  C  857  1  0.98583500  0.93070800  0.16337900  1
  C  858  1  0.97240800  0.91972200  0.14759800  1
  C  859  1  0.94742900  0.91624000  0.14948600  1
  C  860  1  0.93512100  0.92353600  0.16731000  1
  C  861  1  0.94840900  0.93495400  0.18293400  1
  C  862  1  0.97337700  0.93867500  0.18091900  1
  C  869  1  0.91111600  0.91782900  0.17034100  1
  C  870  1  0.08805700  0.93363100  0.16182300  1
  C  873  1  0.43448900  0.02062500  0.66155700  1
  C  874  1  0.44731200  0.04208900  0.65722900  1
  C  875  1  0.47260300  0.04260500  0.65754600  1
  C  876  1  0.48605100  0.02173800  0.66234400  1
  C  877  1  0.47334300  0.00030400  0.66682800  1
  C  878  1  0.44798200  0.99973900  0.66635500  1
  C  881  1  0.51164300  0.02289700  0.66339000  1
  C  882  1  0.52508000  0.03387900  0.64761600  1
  C  883  1  0.55005900  0.03735800  0.64951500  1
  C  884  1  0.56235600  0.03006400  0.66734300  1
  C  885  1  0.54905800  0.01864700  0.68296200  1
  C  886  1  0.52408900  0.01492800  0.68093700  1
  C  893  1  0.58636100  0.03577000  0.67038600  1
  C  894  1  0.40942000  0.01999300  0.66180200  1
  C  897  1  0.29467800  0.16154700  0.58497800  1
  C  898  1  0.31634700  0.17438500  0.58845500  1
  C  899  1  0.31673200  0.19967700  0.58847200  1
  C  900  1  0.29551400  0.21309100  0.58486100  1
  C  901  1  0.27387400  0.20037900  0.58118900  1
  C  902  1  0.27344900  0.17501300  0.58134200  1
  C  905  1  0.29649900  0.23868500  0.58412600  1
  C  906  1  0.30822500  0.25186700  0.59967000  1
  C  907  1  0.31162600  0.27687100  0.59792400  1
  C  908  1  0.30351500  0.28939500  0.58047300  1
  C  909  1  0.29134200  0.27636200  0.56510800  1
  C  910  1  0.28768800  0.25137600  0.56699900  1
  C  917  1  0.30925900  0.31335800  0.57744200  1
  C  918  1  0.29408600  0.13649100  0.58461600  1
  C  921  1  0.20281100  0.79206200  0.08499800  1
  C  922  1  0.18117100  0.77919800  0.08853700  1
  C  923  1  0.18081600  0.75390600  0.08855600  1
  C  924  1  0.20203400  0.74051600  0.08489000  1
  C  925  1  0.22364700  0.75325100  0.08115900  1
  C  926  1  0.22404300  0.77861900  0.08131000  1
  C  929  1  0.20107200  0.71492000  0.08415200  1
  C  930  1  0.18940600  0.70172300  0.09971700  1
  C  931  1  0.18600700  0.67671800  0.09796600  1
  C  932  1  0.19406400  0.66420600  0.08048900  1
  C  933  1  0.20618600  0.67725600  0.06510600  1
  C  934  1  0.20983700  0.70224300  0.06700100  1
  C  941  1  0.18830700  0.64024600  0.07745100  1
  C  942  1  0.20337100  0.81711900  0.08462800  1
  C  945  1  0.43458800  0.93164700  0.33504600  1
  C  946  1  0.44755400  0.91035100  0.33967100  1
  C  947  1  0.47285000  0.91017100  0.33992700  1
  C  948  1  0.48615600  0.93122200  0.33543000  1
  C  949  1  0.47332200  0.95248700  0.33065800  1
  C  950  1  0.44795300  0.95271600  0.33057000  1
  C  953  1  0.51176900  0.93039700  0.33488800  1
  C  954  1  0.52493400  0.91974100  0.35098500  1
  C  955  1  0.54998900  0.91649400  0.34953000  1
  C  956  1  0.56257800  0.92368200  0.33182800  1
  C  957  1  0.54956000  0.93477900  0.31588600  1
  C  958  1  0.52452700  0.93829500  0.31748000  1
  C  965  1  0.58658600  0.91791100  0.32913900  1
  C  966  1  0.40952200  0.93204700  0.33441600  1
  C  969  1  0.06289400  0.02197900  0.83506100  1
  C  970  1  0.04993400  0.04327800  0.83967800  1
  C  971  1  0.02463700  0.04346600  0.83992800  1
  C  972  1  0.01132700  0.02241900  0.83542900  1
  C  973  1  0.02415500  0.00114800  0.83066500  1
  C  974  1  0.04952400  0.00091100  0.83058500  1
  C  977  1  0.98571400  0.02324700  0.83488300  1
  C  978  1  0.97254700  0.03391000  0.85097500  1
  C  979  1  0.94749200  0.03715600  0.84951800  1
  C  980  1  0.93490500  0.02995700  0.83181800  1
  C  981  1  0.94792300  0.01885700  0.81588100  1
  C  982  1  0.97295800  0.01534300  0.81747500  1
  C  989  1  0.91089500  0.03572000  0.82913100  1
  C  990  1  0.08796000  0.02157000  0.83443800  1
  C  993  1  0.79455200  0.79052900  0.08478800  1
  C  994  1  0.81579700  0.77723300  0.08884700  1
  C  995  1  0.81567500  0.75193800  0.08875800  1
  C  996  1  0.79436100  0.73896500  0.08446100  1
  C  997  1  0.77315300  0.75213700  0.08018400  1
  C  998  1  0.77322900  0.77751100  0.08043800  1
  C  1001  1  0.79487300  0.71334600  0.08369300  1
  C  1002  1  0.80578600  0.69991100  0.09950100  1
  C  1003  1  0.80884600  0.67486100  0.09777100  1
  C  1004  1  0.80118900  0.66249900  0.08008400  1
  C  1005  1  0.78976100  0.67580000  0.06447100  1
  C  1006  1  0.78645900  0.70084500  0.06632700  1
  C  1013  1  0.80669900  0.63843800  0.07709400  1
  C  1014  1  0.79450900  0.81560100  0.08449800  1
  C  1017  1  0.70289100  0.16310500  0.58478800  1
  C  1018  1  0.68165500  0.17641600  0.58885700  1
  C  1019  1  0.68179500  0.20170900  0.58877500  1
  C  1020  1  0.70311600  0.21467100  0.58447700  1
  C  1021  1  0.72431300  0.20148500  0.58019100  1
  C  1022  1  0.72422000  0.17611000  0.58043800  1
  C  1025  1  0.70261900  0.24028800  0.58371600  1
  C  1026  1  0.69172000  0.25372600  0.59953000  1
  C  1027  1  0.68866500  0.27877500  0.59780300  1
  C  1028  1  0.69631300  0.29113800  0.58011400  1
  C  1029  1  0.70773100  0.27783400  0.56449500  1
  C  1030  1  0.71102700  0.25279000  0.56634800  1
  C  1037  1  0.69079600  0.31519800  0.57712400  1
  C  1038  1  0.70291700  0.13803400  0.58449400  1
  C  1041  1  0.70280100  0.79117500  0.41214800  1
  C  1042  1  0.68160800  0.77801300  0.40758900  1
  C  1043  1  0.68166000  0.75271600  0.40734600  1
  C  1044  1  0.70285000  0.73960900  0.41178800  1
  C  1045  1  0.72401200  0.75263700  0.41650800  1
  C  1046  1  0.72400700  0.77800800  0.41658300  1
  C  1049  1  0.70226100  0.71399000  0.41232400  1
  C  1050  1  0.69168400  0.70074300  0.39623800  1
  C  1051  1  0.68859300  0.67567100  0.39771000  1
  C  1052  1  0.69586800  0.66314400  0.41541800  1
  C  1053  1  0.70691300  0.67624400  0.43134000  1
  C  1054  1  0.71026900  0.70129900  0.42972900  1
  C  1061  1  0.69018200  0.63912300  0.41815400  1
  C  1062  1  0.70297600  0.81624400  0.41273800  1
  C  1065  1  0.79471900  0.16247900  0.91212400  1
  C  1066  1  0.81589800  0.17565100  0.90754300  1
  C  1067  1  0.81583000  0.20094700  0.90729200  1
  C  1068  1  0.79463800  0.21404400  0.91174700  1
  C  1069  1  0.77349000  0.20100700  0.91648900  1
  C  1070  1  0.77350800  0.17563700  0.91657100  1
  C  1073  1  0.79521700  0.23966500  0.91227800  1
  C  1074  1  0.80577000  0.25291100  0.89618100  1
  C  1075  1  0.80885700  0.27798400  0.89765000  1
  C  1076  1  0.80160000  0.29051300  0.91536400  1
  C  1077  1  0.79057500  0.27741300  0.93129400  1
  C  1078  1  0.78722300  0.25235700  0.92968700  1
  C  1085  1  0.80729600  0.31453200  0.91809700  1
  C  1086  1  0.79455900  0.13740900  0.91272600  1
  C  1089  1  0.56216900  0.43088500  0.66250900  1
  C  1090  1  0.54893700  0.40954600  0.65865200  1
  C  1091  1  0.52364300  0.40955800  0.65886700  1
  C  1092  1  0.51059800  0.43085300  0.66308700  1
  C  1093  1  0.52371100  0.45215800  0.66715200  1
  C  1094  1  0.54908300  0.45218900  0.66677600  1
  C  1097  1  0.48498300  0.43024000  0.66397800  1
  C  1098  1  0.47149500  0.41906500  0.64833500  1
  C  1099  1  0.44646600  0.41595200  0.65018900  1
  C  1100  1  0.43415400  0.42382400  0.66783800  1
  C  1101  1  0.44751200  0.43551700  0.68328000  1
  C  1102  1  0.47254000  0.43886200  0.68130100  1
  C  1109  1  0.41009300  0.41834200  0.67095400  1
  C  1110  1  0.58724000  0.43102900  0.66272400  1
  C  1113  1  0.93527800  0.52273600  0.16250000  1
  C  1114  1  0.94851200  0.54408100  0.15867000  1
  C  1115  1  0.97380600  0.54406600  0.15888900  1
  C  1116  1  0.98684700  0.52276300  0.16308800  1
  C  1117  1  0.97373400  0.50145300  0.16712600  1
  C  1118  1  0.94836000  0.50142400  0.16674700  1
  C  1121  1  0.01246200  0.52337400  0.16398300  1
  C  1122  1  0.02595600  0.53457300  0.14835600  1
  C  1123  1  0.05098600  0.53768100  0.15021900  1
  C  1124  1  0.06329200  0.52978100  0.16786100  1
  C  1125  1  0.04992800  0.51806300  0.18328700  1
  C  1126  1  0.02490100  0.51472500  0.18130000  1
  C  1133  1  0.08735200  0.53525300  0.17099100  1
  C  1134  1  0.91020700  0.52259200  0.16271200  1
  C  1137  1  0.93424200  0.43041000  0.83508400  1
  C  1138  1  0.94720000  0.40887800  0.83883700  1
  C  1139  1  0.97249300  0.40867700  0.83903700  1
  C  1140  1  0.98579300  0.42994700  0.83534700  1
  C  1141  1  0.97296700  0.45144900  0.83138900  1
  C  1142  1  0.94759600  0.45169200  0.83136000  1
  C  1145  1  0.01140000  0.42912800  0.83480300  1
  C  1146  1  0.02450100  0.41768000  0.85054300  1
  C  1147  1  0.04952700  0.41432700  0.84896600  1
  C  1148  1  0.06215700  0.42220900  0.83149400  1
  C  1149  1  0.04920700  0.43414700  0.81594900  1
  C  1150  1  0.02419600  0.43775500  0.81766800  1
  C  1157  1  0.08612000  0.41636000  0.82859200  1
  C  1158  1  0.90918200  0.43083000  0.83457800  1
  C  1161  1  0.56330000  0.52312600  0.33512100  1
  C  1162  1  0.55031300  0.54463600  0.33889800  1
  C  1163  1  0.52502100  0.54480900  0.33908100  1
  C  1164  1  0.51174700  0.52353300  0.33534600  1
  C  1165  1  0.52460100  0.50205300  0.33136600  1
  C  1166  1  0.54997300  0.50183900  0.33135600  1
  C  1169  1  0.48613900  0.52432900  0.33477700  1
  C  1170  1  0.47300500  0.53575000  0.35051000  1
  C  1171  1  0.44798000  0.53909400  0.34890400  1
  C  1172  1  0.43538300  0.53123300  0.33140700  1
  C  1173  1  0.44836800  0.51931600  0.31586900  1
  C  1174  1  0.47337800  0.51571700  0.31761700  1
  C  1181  1  0.41142300  0.53707600  0.32847400  1
  C  1182  1  0.58836100  0.52273900  0.33462300  1
  C  1185  1  0.16529200  0.38414900  0.28030000  1
  C  1186  1  0.16714400  0.40011600  0.29689600  1
  C  1187  1  0.17741300  0.39253300  0.31538700  1
  C  1188  1  0.18532600  0.36852600  0.31773300  1
  C  1189  1  0.18277400  0.35194000  0.30141200  1
  C  1190  1  0.17316300  0.36002300  0.28262300  1
  C  1193  1  0.15649400  0.39300500  0.26146500  1
  C  1194  1  0.13229100  0.40052900  0.25900900  1
  C  1195  1  0.12442100  0.41067100  0.24037300  1
  C  1196  1  0.14112100  0.41361700  0.22420100  1
  C  1197  1  0.16517700  0.40569200  0.22644900  1
  C  1198  1  0.17267900  0.39555300  0.24509100  1
  C  1211  1  0.33235100  0.56949000  0.78024100  1
  C  1212  1  0.33055100  0.55351500  0.79683400  1
  C  1213  1  0.32023600  0.56105400  0.81531900  1
  C  1214  1  0.31226900  0.58504500  0.81767700  1
  C  1215  1  0.31480300  0.60165000  0.80137000  1
  C  1216  1  0.32442900  0.59359800  0.78257600  1
  C  1219  1  0.34111700  0.56064300  0.76139100  1
  C  1220  1  0.36530600  0.55308200  0.75891200  1
  C  1221  1  0.37313800  0.54293100  0.74026700  1
  C  1222  1  0.35641900  0.54003000  0.72410200  1
  C  1223  1  0.33237800  0.54799900  0.72637200  1
  C  1224  1  0.32491400  0.55813500  0.74502600  1
  C  1237  1  0.84095100  0.89362100  0.52929500  1
  C  1238  1  0.82487700  0.89560000  0.54580400  1
  C  1239  1  0.83207000  0.90668500  0.56406700  1
  C  1240  1  0.85599300  0.91502100  0.56633200  1
  C  1241  1  0.87277400  0.91203400  0.55020200  1
  C  1242  1  0.86495500  0.90185100  0.53156400  1
  C  1245  1  0.83240600  0.88419800  0.51058600  1
  C  1246  1  0.82591700  0.85967200  0.50840700  1
  C  1247  1  0.81614500  0.85118300  0.48984300  1
  C  1248  1  0.81403000  0.86708900  0.47303900  1
  C  1249  1  0.82091600  0.89147800  0.47501900  1
  C  1250  1  0.82965400  0.89990100  0.49389700  1
  C  1263  1  0.65650400  0.06003300  0.02931580  1
  C  1264  1  0.67258600  0.05808400  0.04582080  1
  C  1265  1  0.66539300  0.04705100  0.06410580  1
  C  1266  1  0.64148200  0.03867900  0.06637580  1
  C  1267  1  0.62469800  0.04162300  0.05024380  1
  C  1268  1  0.63250700  0.05179200  0.03159580  1
  C  1271  1  0.66503000  0.06945100  0.01059980  1
  C  1272  1  0.67149600  0.09398100  0.00840985  1
  C  1273  1  0.68123700  0.10247000  0.98983500  1
  C  1274  1  0.68339700  0.08654900  0.97304300  1
  C  1275  1  0.67653200  0.06215400  0.97503600  1
  C  1276  1  0.66779800  0.05373800  0.99391800  1
  C  1289  1  0.33195100  0.38396800  0.01042780  1
  C  1290  1  0.32942200  0.40013400  0.99403800  1
  C  1291  1  0.31962500  0.39254300  0.97529500  1
  C  1292  1  0.31195600  0.36841300  0.97297200  1
  C  1293  1  0.31482300  0.35174700  0.98918300  1
  C  1294  1  0.32466700  0.35970600  0.00790985  1
  C  1297  1  0.34042400  0.39291000  0.02933980  1
  C  1298  1  0.36435900  0.40126800  0.03183780  1
  C  1299  1  0.37194000  0.41139000  0.05057980  1
  C  1300  1  0.35497800  0.41413200  0.06660280  1
  C  1301  1  0.33114900  0.40565500  0.06410980  1
  C  1302  1  0.32417200  0.39469800  0.04573980  1
  C  1315  1  0.16546500  0.56967800  0.51044300  1
  C  1316  1  0.16797200  0.55350400  0.49405700  1
  C  1317  1  0.17780400  0.56106700  0.47531800  1
  C  1318  1  0.18550600  0.58518800  0.47299200  1
  C  1319  1  0.18264600  0.60186800  0.48919500  1
  C  1320  1  0.17278400  0.59393000  0.50792100  1
  C  1323  1  0.15700100  0.56074500  0.52936100  1
  C  1324  1  0.13307100  0.55237800  0.53186800  1
  C  1325  1  0.12549700  0.54226900  0.55061700  1
  C  1326  1  0.14246100  0.53956400  0.56664300  1
  C  1327  1  0.16627700  0.54807100  0.56414800  1
  C  1328  1  0.17325200  0.55899800  0.54576600  1
  C  1341  1  0.65736400  0.89586800  0.76140300  1
  C  1342  1  0.67334400  0.89851400  0.74490400  1
  C  1343  1  0.66558400  0.90881400  0.72641100  1
  C  1344  1  0.64151300  0.91676900  0.72440500  1
  C  1345  1  0.62502600  0.91367300  0.74071100  1
  C  1346  1  0.63312800  0.90339700  0.75922500  1
  C  1349  1  0.66614100  0.88607000  0.77988500  1
  C  1350  1  0.67238900  0.86142000  0.78159000  1
  C  1351  1  0.68165300  0.85222400  0.80010300  1
  C  1352  1  0.68398600  0.86763600  0.81719800  1
  C  1353  1  0.67788500  0.89225700  0.81544700  1
  C  1354  1  0.66887500  0.90127500  0.79690100  1
  C  1367  1  0.84012500  0.05775300  0.26141000  1
  C  1368  1  0.82413500  0.05509800  0.24491700  1
  C  1369  1  0.83189100  0.04480300  0.22642100  1
  C  1370  1  0.85596500  0.03685100  0.22440900  1
  C  1371  1  0.87245700  0.03995400  0.24070900  1
  C  1372  1  0.86436200  0.05023100  0.25922400  1
  C  1375  1  0.83136000  0.06756600  0.27989000  1
  C  1376  1  0.82514200  0.09222400  0.28159200  1
  C  1377  1  0.81591400  0.10143800  0.30011300  1
  C  1378  1  0.81354400  0.08602900  0.31720500  1
  C  1379  1  0.81961400  0.06139900  0.31545500  1
  C  1380  1  0.82861300  0.05236800  0.29690800  1
  C  1393  1  0.83171100  0.56859200  0.50990500  1
  C  1394  1  0.82966100  0.55244000  0.49345700  1
  C  1395  1  0.81838800  0.55950900  0.47524400  1
  C  1396  1  0.80985000  0.58336300  0.47298300  1
  C  1397  1  0.81288700  0.60022300  0.48904600  1
  C  1398  1  0.82331000  0.59253600  0.50763000  1
  C  1401  1  0.84131400  0.56016100  0.52858400  1
  C  1402  1  0.86588900  0.55381600  0.53067400  1
  C  1403  1  0.87454200  0.54414500  0.54922300  1
  C  1404  1  0.85873500  0.54196100  0.56608900  1
  C  1405  1  0.83429800  0.54869800  0.56419200  1
  C  1406  1  0.82571900  0.55734700  0.54533700  1
  C  1419  1  0.66575000  0.38503800  0.00992385  1
  C  1420  1  0.66778900  0.40118400  0.99347200  1
  C  1421  1  0.67910600  0.39412800  0.97527400  1
  C  1422  1  0.68764200  0.37027200  0.97301400  1
  C  1423  1  0.68459100  0.35341000  0.98907300  1
  C  1424  1  0.67416200  0.36109800  0.00765485  1
  C  1427  1  0.65614400  0.39347400  0.02860180  1
  C  1428  1  0.63156800  0.39981600  0.03068880  1
  C  1429  1  0.62290800  0.40948100  0.04923680  1
  C  1430  1  0.63870800  0.41166100  0.06610780  1
  C  1431  1  0.66314700  0.40492000  0.06421680  1
  C  1432  1  0.67173200  0.39627900  0.04536080  1
  C  1445  1  0.15804100  0.05810700  0.25889500  1
  C  1446  1  0.17323600  0.05523000  0.24190000  1
  C  1447  1  0.16418600  0.04611600  0.22339700  1
  C  1448  1  0.13953900  0.04009500  0.22167800  1
  C  1449  1  0.12413600  0.04259800  0.23876000  1
  C  1450  1  0.13336900  0.05194600  0.25722900  1
  C  1453  1  0.16773600  0.06741200  0.27721500  1
  C  1454  1  0.17423400  0.09196700  0.27913200  1
  C  1455  1  0.18430300  0.10065600  0.29751400  1
  C  1456  1  0.18666100  0.08492400  0.31441100  1
  C  1457  1  0.17971700  0.06052500  0.31268000  1
  C  1458  1  0.17068300  0.05187500  0.29397900  1
  C  1471  1  0.33946000  0.89547900  0.75888400  1
  C  1472  1  0.32425600  0.89835700  0.74189400  1
  C  1473  1  0.33329500  0.90747800  0.72339100  1
  C  1474  1  0.35793900  0.91351200  0.72166500  1
  C  1475  1  0.37335200  0.91100700  0.73874100  1
  C  1476  1  0.36413000  0.90164600  0.75721000  1
  C  1479  1  0.32977900  0.88617500  0.77720700  1
  C  1480  1  0.32332100  0.86160900  0.77913400  1
  C  1481  1  0.31329800  0.85291500  0.79753000  1
  C  1482  1  0.31088600  0.86866100  0.81441300  1
  C  1483  1  0.31779200  0.89306900  0.81267000  1
  C  1484  1  0.32681400  0.90171800  0.79396500  1
  C  1497  1  0.66801200  0.56828300  0.77770100  1
  C  1498  1  0.67065700  0.55234400  0.79422800  1
  C  1499  1  0.68096900  0.56015100  0.81270000  1
  C  1500  1  0.68895700  0.58421800  0.81465500  1
  C  1501  1  0.68586600  0.60066300  0.79831900  1
  C  1502  1  0.67556700  0.59251900  0.77982700  1
  C  1505  1  0.65823900  0.55944200  0.75923500  1
  C  1506  1  0.63357800  0.55325600  0.75749800  1
  C  1507  1  0.62441600  0.54391400  0.73900000  1
  C  1508  1  0.63988300  0.54141900  0.72195900  1
  C  1509  1  0.66451600  0.54744800  0.72374600  1
  C  1510  1  0.67349700  0.55654700  0.74227500  1
  C  1523  1  0.82948500  0.38537200  0.27766000  1
  C  1524  1  0.82685500  0.40130400  0.29419200  1
  C  1525  1  0.81652300  0.39350000  0.31265500  1
  C  1526  1  0.80852600  0.36943600  0.31460400  1
  C  1527  1  0.81162400  0.35299200  0.29826900  1
  C  1528  1  0.82192200  0.36113800  0.27977700  1
  C  1531  1  0.83926200  0.39421400  0.25919500  1
  C  1532  1  0.86393000  0.40036300  0.25745300  1
  C  1533  1  0.87309800  0.40970200  0.23895700  1
  C  1534  1  0.85762700  0.41223700  0.22192200  1
  C  1535  1  0.83298300  0.40624300  0.22371400  1
  C  1536  1  0.82399800  0.39714400  0.24224100  1
  C  1549  1  0.34002600  0.05711500  0.02781780  1
  C  1550  1  0.32451600  0.05428800  0.04461380  1
  C  1551  1  0.33321400  0.04548100  0.06337380  1
  C  1552  1  0.35763600  0.03863600  0.06514380  1
  C  1553  1  0.37334900  0.04089400  0.04822280  1
  C  1554  1  0.36460400  0.05072600  0.02976580  1
  C  1557  1  0.33066700  0.06663400  0.00945285  1
  C  1558  1  0.32446000  0.09128400  0.00766085  1
  C  1559  1  0.31502900  0.10035400  0.98916600  1
  C  1560  1  0.31252500  0.08481900  0.97217200  1
  C  1561  1  0.31860900  0.06020300  0.97401600  1
  C  1562  1  0.32777800  0.05129900  0.99254600  1
  C  1575  1  0.15744100  0.89649900  0.52782000  1
  C  1576  1  0.17296000  0.89933300  0.54460900  1
  C  1577  1  0.16427200  0.90815100  0.56337000  1
  C  1578  1  0.13985100  0.91499800  0.56514600  1
  C  1579  1  0.12413000  0.91273500  0.54823200  1
  C  1580  1  0.13286400  0.90289200  0.52977500  1
  C  1583  1  0.16678800  0.88697200  0.50945300  1
  C  1584  1  0.17297600  0.86231700  0.50766200  1
  C  1585  1  0.18237000  0.85323600  0.48915800  1
  C  1586  1  0.18490800  0.86877100  0.47216800  1
  C  1587  1  0.17884200  0.89339200  0.47401300  1
  C  1588  1  0.16968100  0.90230400  0.49254500  1
  C  1601  1  0.28841200  0.42082100  0.10306600  1
  C  1602  1  0.27563000  0.39889700  0.10530700  1
  C  1603  1  0.26006800  0.39523000  0.12186100  1
  C  1604  1  0.25656300  0.41345400  0.13658500  1
  C  1605  1  0.26862700  0.43567900  0.13402000  1
  C  1606  1  0.28437500  0.43929200  0.11750500  1
  C  1609  1  0.24165600  0.40911900  0.15376200  1
  C  1610  1  0.24496300  0.38821400  0.16572800  1
  C  1611  1  0.22994100  0.38346100  0.18245700  1
  C  1612  1  0.21103700  0.39938600  0.18771900  1
  C  1613  1  0.20786500  0.42040600  0.17576900  1
  C  1614  1  0.22302600  0.42526200  0.15911000  1
  C  1621  1  0.19623800  0.39382800  0.20411300  1
  C  1622  1  0.30482500  0.42422500  0.08740080  1
  C  1625  1  0.20910600  0.53289300  0.60301300  1
  C  1626  1  0.22186400  0.55482700  0.60528500  1
  C  1627  1  0.23741200  0.55848200  0.62185000  1
  C  1628  1  0.24092600  0.54024000  0.63655400  1
  C  1629  1  0.22888500  0.51800700  0.63395600  1
  C  1630  1  0.21315100  0.51440200  0.61743100  1
  C  1633  1  0.25582100  0.54456300  0.65374100  1
  C  1634  1  0.25249400  0.56545100  0.66572600  1
  C  1635  1  0.26751000  0.57019600  0.68246000  1
  C  1636  1  0.28642700  0.55428200  0.68770900  1
  C  1637  1  0.28961300  0.53327800  0.67574400  1
  C  1638  1  0.27446100  0.52842800  0.65907700  1
  C  1645  1  0.30122200  0.55983600  0.70410600  1
  C  1646  1  0.19271300  0.52950300  0.58733500  1
  C  1649  1  0.80846300  0.01465000  0.35145900  1
  C  1650  1  0.83170800  0.00621800  0.35658800  1
  C  1651  1  0.83510300  0.99111900  0.37348800  1
  C  1652  1  0.81538500  0.98388600  0.38568000  1
  C  1653  1  0.79207900  0.99203100  0.38029500  1
  C  1654  1  0.78862800  0.00718200  0.36335400  1
  C  1657  1  0.81915800  0.96862800  0.40278800  1
  C  1658  1  0.83778000  0.97360300  0.41686600  1
  C  1659  1  0.84230100  0.95808100  0.43331400  1
  C  1660  1  0.82837400  0.93702200  0.43623700  1
  C  1661  1  0.80959200  0.93213900  0.42224000  1
  C  1662  1  0.80501500  0.94774600  0.40581100  1
  C  1669  1  0.83354800  0.92198600  0.45254300  1
  C  1670  1  0.80516800  0.02904100  0.33457800  1
  C  1673  1  0.68905100  0.93898900  0.85146400  1
  C  1674  1  0.66581000  0.94745400  0.85657200  1
  C  1675  1  0.66241200  0.96254700  0.87347600  1
  C  1676  1  0.68212300  0.96974300  0.88569200  1
  C  1677  1  0.70542600  0.96156700  0.88032700  1
  C  1678  1  0.70887900  0.94642000  0.86338400  1
  C  1681  1  0.67834800  0.98499000  0.90280800  1
  C  1682  1  0.65970200  0.98002200  0.91686500  1
  C  1683  1  0.65517900  0.99553500  0.93332000  1
  C  1684  1  0.66912600  0.01657500  0.93627100  1
  C  1685  1  0.68793200  0.02144600  0.92229400  1
  C  1686  1  0.69251300  0.00584900  0.90586100  1
  C  1693  1  0.66394200  0.03160500  0.95258000  1
  C  1694  1  0.69234700  0.92459200  0.83458600  1
  C  1697  1  0.71137900  0.53617100  0.68790400  1
  C  1698  1  0.71995300  0.55939400  0.68287800  1
  C  1699  1  0.73506700  0.56279600  0.66599100  1
  C  1700  1  0.74217200  0.54310400  0.65371500  1
  C  1701  1  0.73390300  0.51981300  0.65900900  1
  C  1702  1  0.71873100  0.51635500  0.67593600  1
  C  1705  1  0.75740500  0.54689500  0.63659800  1
  C  1706  1  0.75245700  0.56559400  0.62258600  1
  C  1707  1  0.76795500  0.57013000  0.60612700  1
  C  1708  1  0.78895900  0.55614500  0.60312800  1
  C  1709  1  0.79381300  0.53728900  0.61705800  1
  C  1710  1  0.77822900  0.53269200  0.63350000  1
  C  1717  1  0.80395800  0.56132700  0.58680200  1
  C  1718  1  0.69691800  0.53288800  0.70474000  1
  C  1721  1  0.78606100  0.41748700  0.18792600  1
  C  1722  1  0.77751100  0.39425600  0.18289600  1
  C  1723  1  0.76238900  0.39084600  0.16601300  1
  C  1724  1  0.75525600  0.41053600  0.15374800  1
  C  1725  1  0.76350200  0.43383500  0.15904900  1
  C  1726  1  0.77868000  0.43730000  0.17597200  1
  C  1729  1  0.74002200  0.40673700  0.13663200  1
  C  1730  1  0.74498400  0.38804900  0.12261300  1
  C  1731  1  0.72948800  0.38350700  0.10615400  1
  C  1732  1  0.70847300  0.39747600  0.10316100  1
  C  1733  1  0.70360300  0.41632100  0.11710000  1
  C  1734  1  0.71918300  0.42092300  0.13354200  1
  C  1741  1  0.69347600  0.39228900  0.08683480  1
  C  1742  1  0.80052500  0.42077500  0.20475700  1
  C  1745  1  0.19001500  0.94021200  0.43814600  1
  C  1746  1  0.16684300  0.94882900  0.43300700  1
  C  1747  1  0.16354900  0.96370200  0.41595000  1
  C  1748  1  0.18330500  0.97049900  0.40362300  1
  C  1749  1  0.20653700  0.96214900  0.40901500  1
  C  1750  1  0.20988800  0.94723000  0.42611000  1
  C  1753  1  0.17967700  0.98552200  0.38635400  1
  C  1754  1  0.16098100  0.98055700  0.37234100  1
  C  1755  1  0.15674700  0.99579700  0.35565000  1
  C  1756  1  0.17105800  0.01652600  0.35242400  1
  C  1757  1  0.18985600  0.02144100  0.36639300  1
  C  1758  1  0.19414100  0.00612300  0.38306100  1
  C  1765  1  0.16621300  0.03129800  0.33589600  1
  C  1766  1  0.19319900  0.92593500  0.45509100  1
  C  1769  1  0.30741700  0.01341000  0.93812700  1
  C  1770  1  0.33058400  0.00476200  0.93300800  1
  C  1771  1  0.33388000  0.98989300  0.91594900  1
  C  1772  1  0.31413200  0.98313100  0.90359800  1
  C  1773  1  0.29090500  0.99151200  0.90897100  1
  C  1774  1  0.28755100  0.00642700  0.92606700  1
  C  1777  1  0.31776300  0.96811300  0.88632600  1
  C  1778  1  0.33648300  0.97306400  0.87233400  1
  C  1779  1  0.34072300  0.95782700  0.85564200  1
  C  1780  1  0.32639400  0.93711300  0.85239300  1
  C  1781  1  0.30757000  0.93221600  0.86634200  1
  C  1782  1  0.30327900  0.94753200  0.88301000  1
  C  1789  1  0.33125000  0.92234000  0.83586600  1
  C  1790  1  0.30422800  0.02769300  0.95506900  1
  C  1793  1  0.79071700  0.92153000  0.60438200  1
  C  1794  1  0.77747100  0.89980200  0.60608000  1
  C  1795  1  0.76133000  0.89612100  0.62223500  1
  C  1796  1  0.75768800  0.91413400  0.63711400  1
  C  1797  1  0.77035300  0.93611100  0.63518000  1
  C  1798  1  0.78667500  0.93972500  0.61907700  1
  C  1801  1  0.74195100  0.90989800  0.65377500  1
  C  1802  1  0.74413000  0.88868300  0.66553700  1
  C  1803  1  0.72839100  0.88417400  0.68184000  1
  C  1804  1  0.70990300  0.90067900  0.68686100  1
  C  1805  1  0.70776200  0.92193100  0.67505600  1
  C  1806  1  0.72363100  0.92652900  0.65882500  1
  C  1813  1  0.69454600  0.89552900  0.70295800  1
  C  1814  1  0.80748700  0.92510200  0.58897900  1
  C  1817  1  0.70683200  0.03214500  0.10432800  1
  C  1818  1  0.72008400  0.05386700  0.10604600  1
  C  1819  1  0.73621000  0.05753300  0.12221300  1
  C  1820  1  0.73983300  0.03950700  0.13708400  1
  C  1821  1  0.72716800  0.01753200  0.13512800  1
  C  1822  1  0.71086000  0.01393400  0.11901000  1
  C  1825  1  0.75554800  0.04372900  0.15376200  1
  C  1826  1  0.75334900  0.06493400  0.16553700  1
  C  1827  1  0.76907000  0.06943600  0.18185400  1
  C  1828  1  0.78755800  0.05293200  0.18687900  1
  C  1829  1  0.78971600  0.03168800  0.17506300  1
  C  1830  1  0.77386500  0.02709900  0.15881800  1
  C  1837  1  0.80290100  0.05807900  0.20298700  1
  C  1838  1  0.69007400  0.02859500  0.08891580  1
  C  1841  1  0.30597000  0.51535600  0.85155200  1
  C  1842  1  0.32847300  0.50413100  0.85504500  1
  C  1843  1  0.33183400  0.48890200  0.87185900  1
  C  1844  1  0.31276800  0.48426400  0.88557700  1
  C  1845  1  0.29005300  0.49488100  0.88172300  1
  C  1846  1  0.28668300  0.51024300  0.86491200  1
  C  1849  1  0.31668700  0.46946000  0.90290300  1
  C  1850  1  0.33669200  0.47356800  0.91576800  1
  C  1851  1  0.34126700  0.45845400  0.93247100  1
  C  1852  1  0.32604700  0.43867500  0.93683000  1
  C  1853  1  0.30586900  0.43473900  0.92404400  1
  C  1854  1  0.30120100  0.44996800  0.90738800  1
  C  1861  1  0.33151900  0.42375200  0.95315400  1
  C  1862  1  0.30284700  0.53097900  0.83538500  1
  C  1865  1  0.19152400  0.43844300  0.35144500  1
  C  1866  1  0.16897800  0.44952200  0.35504700  1
  C  1867  1  0.16562400  0.46468600  0.37190600  1
  C  1868  1  0.18474100  0.46939100  0.38555900  1
  C  1869  1  0.20749400  0.45891100  0.38159600  1
  C  1870  1  0.21085800  0.44361800  0.36473600  1
  C  1873  1  0.18083700  0.48414600  0.40292000  1
  C  1874  1  0.16089900  0.47994600  0.41583500  1
  C  1875  1  0.15631900  0.49503100  0.43255800  1
  C  1876  1  0.17147100  0.51487100  0.43688800  1
  C  1877  1  0.19159300  0.51889500  0.42405800  1
  C  1878  1  0.19626300  0.50369700  0.40738200  1
  C  1885  1  0.16597900  0.52977700  0.45321800  1
  C  1886  1  0.19462900  0.42290800  0.33522500  1
  C  1889  1  0.21113800  0.03526200  0.18755600  1
  C  1890  1  0.21942300  0.05852700  0.18232800  1
  C  1891  1  0.23458400  0.06189000  0.16546200  1
  C  1892  1  0.24201600  0.04211600  0.15341900  1
  C  1893  1  0.23394600  0.01880500  0.15887900  1
  C  1894  1  0.21874800  0.01538500  0.17578600  1
  C  1897  1  0.25742500  0.04579600  0.13639800  1
  C  1898  1  0.25256600  0.06429700  0.12217500  1
  C  1899  1  0.26814400  0.06856200  0.10571400  1
  C  1900  1  0.28911100  0.05446900  0.10293200  1
  C  1901  1  0.29394700  0.03588900  0.11712200  1
  C  1902  1  0.27829600  0.03158100  0.13356400  1
  C  1909  1  0.30413500  0.05925100  0.08656380  1
  C  1910  1  0.19681100  0.03198200  0.20446200  1
  C  1913  1  0.28631200  0.91834900  0.68758600  1
  C  1914  1  0.27803100  0.89508600  0.68234200  1
  C  1915  1  0.26288000  0.89173300  0.66547000  1
  C  1916  1  0.25545100  0.91151500  0.65343500  1
  C  1917  1  0.26351200  0.93482400  0.65891300  1
  C  1918  1  0.27870300  0.93823400  0.67582600  1
  C  1921  1  0.24005400  0.90784400  0.63640500  1
  C  1922  1  0.24492900  0.88935400  0.62217200  1
  C  1923  1  0.22936200  0.88509500  0.60570200  1
  C  1924  1  0.20839300  0.89918200  0.60292100  1
  C  1925  1  0.20354200  0.91775400  0.61711500  1
  C  1926  1  0.21918200  0.92205600  0.63356700  1
  C  1933  1  0.19337400  0.89440000  0.58654600  1
  C  1934  1  0.30063900  0.92161500  0.70449300  1
  C  1937  1  0.69394500  0.43552300  0.93499900  1
  C  1938  1  0.67223600  0.44880700  0.93334600  1
  C  1939  1  0.66849200  0.46486800  0.91714800  1
  C  1940  1  0.68642800  0.46838900  0.90218400  1
  C  1941  1  0.70839000  0.45568800  0.90406900  1
  C  1942  1  0.71206500  0.43944200  0.92021600  1
  C  1945  1  0.68214300  0.48406400  0.88549800  1
  C  1946  1  0.66088900  0.48185600  0.87379100  1
  C  1947  1  0.65633700  0.49754400  0.85746100  1
  C  1948  1  0.67284200  0.51600300  0.85236400  1
  C  1949  1  0.69412800  0.51817700  0.86412000  1
  C  1950  1  0.69876700  0.50235900  0.88037600  1
  C  1957  1  0.66766700  0.53130500  0.83624100  1
  C  1958  1  0.69754900  0.41879100  0.95041900  1
  C  1961  1  0.80353300  0.51809500  0.43499000  1
  C  1962  1  0.82523000  0.50479300  0.43334400  1
  C  1963  1  0.82897200  0.48873600  0.41714000  1
  C  1964  1  0.81104400  0.48524000  0.40216500  1
  C  1965  1  0.78909100  0.49795700  0.40404500  1
  C  1966  1  0.78542000  0.51419900  0.42019700  1
  C  1969  1  0.81532900  0.46957500  0.38547100  1
  C  1970  1  0.83659400  0.47177500  0.37377700  1
  C  1971  1  0.84114600  0.45609700  0.35744100  1
  C  1972  1  0.82463200  0.43765200  0.35232700  1
  C  1973  1  0.80333700  0.43548500  0.36407000  1
  C  1974  1  0.79869500  0.45129400  0.38033100  1
  C  1981  1  0.82981300  0.42235300  0.33619900  1
  C  1982  1  0.79993600  0.53482400  0.45041300  1
  C  1985  1  0.20465300  0.16175100  0.30672100  1
  C  1986  1  0.18309100  0.17456100  0.30272300  1
  C  1987  1  0.18250500  0.19984300  0.30324900  1
  C  1988  1  0.20340500  0.21329700  0.30793600  1
  C  1989  1  0.22494400  0.20060600  0.31207400  1
  C  1990  1  0.22557400  0.17525100  0.31139000  1
  C  1993  1  0.20216400  0.23886700  0.30924800  1
  C  1994  1  0.19085800  0.25247500  0.29374500  1
  C  1995  1  0.18727900  0.27740600  0.29594800  1
  C  1996  1  0.19479700  0.28948200  0.31381900  1
  C  1997  1  0.20654600  0.27601500  0.32915800  1
  C  1998  1  0.21035800  0.25110000  0.32683000  1
  C  2005  1  0.18908900  0.31343500  0.31716600  1
  C  2006  1  0.20533600  0.13668300  0.30681500  1
  C  2009  1  0.29290200  0.79183200  0.80673500  1
  C  2010  1  0.31446300  0.77901200  0.80275500  1
  C  2011  1  0.31503200  0.75373000  0.80327800  1
  C  2012  1  0.29412200  0.74028400  0.80793900  1
  C  2013  1  0.27258300  0.75298500  0.81206200  1
  C  2014  1  0.27196700  0.77834100  0.81138500  1
  C  2017  1  0.29534700  0.71471200  0.80924100  1
  C  2018  1  0.30666500  0.70110700  0.79374200  1
  C  2019  1  0.31023400  0.67617400  0.79593800  1
  C  2020  1  0.30269200  0.66409000  0.81379800  1
  C  2021  1  0.29092600  0.67755500  0.82913100  1
  C  2022  1  0.28712800  0.70247300  0.82680900  1
  C  2029  1  0.30839800  0.64013600  0.81714400  1
  C  2030  1  0.29223000  0.81690000  0.80682900  1
  C  2033  1  0.06298800  0.93299400  0.55741800  1
  C  2034  1  0.05017000  0.91152500  0.55309000  1
  C  2035  1  0.02488000  0.91100400  0.55339900  1
  C  2036  1  0.01142600  0.93187100  0.55818700  1
  C  2037  1  0.02412600  0.95330800  0.56267100  1
  C  2038  1  0.04948900  0.95387900  0.56220600  1
  C  2041  1  0.98583500  0.93070800  0.55922400  1
  C  2042  1  0.97240800  0.91972200  0.54344300  1
  C  2043  1  0.94742900  0.91624000  0.54533100  1
  C  2044  1  0.93512100  0.92353600  0.56315500  1
  C  2045  1  0.94840900  0.93495400  0.57877900  1
  C  2046  1  0.97337700  0.93867500  0.57676400  1
  C  2053  1  0.91111600  0.91782900  0.56618600  1
  C  2054  1  0.08805700  0.93363100  0.55766800  1
  C  2057  1  0.43448900  0.02062500  0.05740180  1
  C  2058  1  0.44731200  0.04208900  0.05307380  1
  C  2059  1  0.47260300  0.04260500  0.05339080  1
  C  2060  1  0.48605100  0.02173800  0.05818880  1
  C  2061  1  0.47334300  0.00030400  0.06267280  1
  C  2062  1  0.44798200  0.99973900  0.06219980  1
  C  2065  1  0.51164300  0.02289700  0.05923480  1
  C  2066  1  0.52508000  0.03387900  0.04346080  1
  C  2067  1  0.55005900  0.03735800  0.04535980  1
  C  2068  1  0.56235600  0.03006400  0.06318780  1
  C  2069  1  0.54905800  0.01864700  0.07880680  1
  C  2070  1  0.52408900  0.01492800  0.07678180  1
  C  2077  1  0.58636100  0.03577000  0.06623080  1
  C  2078  1  0.40942000  0.01999300  0.05764680  1
  C  2081  1  0.29467800  0.16154700  0.98082300  1
  C  2082  1  0.31634700  0.17438500  0.98430000  1
  C  2083  1  0.31673200  0.19967700  0.98431700  1
  C  2084  1  0.29551400  0.21309100  0.98070600  1
  C  2085  1  0.27387400  0.20037900  0.97703400  1
  C  2086  1  0.27344900  0.17501300  0.97718700  1
  C  2089  1  0.29649900  0.23868500  0.97997100  1
  C  2090  1  0.30822500  0.25186700  0.99551500  1
  C  2091  1  0.31162600  0.27687100  0.99376900  1
  C  2092  1  0.30351500  0.28939500  0.97631800  1
  C  2093  1  0.29134200  0.27636200  0.96095300  1
  C  2094  1  0.28768800  0.25137600  0.96284400  1
  C  2101  1  0.30925900  0.31335800  0.97328700  1
  C  2102  1  0.29408600  0.13649100  0.98046100  1
  C  2105  1  0.20281100  0.79206200  0.48084300  1
  C  2106  1  0.18117100  0.77919800  0.48438200  1
  C  2107  1  0.18081600  0.75390600  0.48440100  1
  C  2108  1  0.20203400  0.74051600  0.48073500  1
  C  2109  1  0.22364700  0.75325100  0.47700400  1
  C  2110  1  0.22404300  0.77861900  0.47715500  1
  C  2113  1  0.20107200  0.71492000  0.47999700  1
  C  2114  1  0.18940600  0.70172300  0.49556200  1
  C  2115  1  0.18600700  0.67671800  0.49381100  1
  C  2116  1  0.19406400  0.66420600  0.47633400  1
  C  2117  1  0.20618600  0.67725600  0.46095100  1
  C  2118  1  0.20983700  0.70224300  0.46284600  1
  C  2125  1  0.18830700  0.64024600  0.47329600  1
  C  2126  1  0.20337100  0.81711900  0.48047300  1
  C  2129  1  0.43458800  0.93164700  0.73089100  1
  C  2130  1  0.44755400  0.91035100  0.73551600  1
  C  2131  1  0.47285000  0.91017100  0.73577200  1
  C  2132  1  0.48615600  0.93122200  0.73127500  1
  C  2133  1  0.47332200  0.95248700  0.72650300  1
  C  2134  1  0.44795300  0.95271600  0.72641500  1
  C  2137  1  0.51176900  0.93039700  0.73073300  1
  C  2138  1  0.52493400  0.91974100  0.74683000  1
  C  2139  1  0.54998900  0.91649400  0.74537500  1
  C  2140  1  0.56257800  0.92368200  0.72767300  1
  C  2141  1  0.54956000  0.93477900  0.71173100  1
  C  2142  1  0.52452700  0.93829500  0.71332500  1
  C  2149  1  0.58658600  0.91791100  0.72498400  1
  C  2150  1  0.40952200  0.93204700  0.73026100  1
  C  2153  1  0.06289400  0.02197900  0.23090600  1
  C  2154  1  0.04993400  0.04327800  0.23552300  1
  C  2155  1  0.02463700  0.04346600  0.23577300  1
  C  2156  1  0.01132700  0.02241900  0.23127400  1
  C  2157  1  0.02415500  0.00114800  0.22651000  1
  C  2158  1  0.04952400  0.00091100  0.22643000  1
  C  2161  1  0.98571400  0.02324700  0.23072800  1
  C  2162  1  0.97254700  0.03391000  0.24682000  1
  C  2163  1  0.94749200  0.03715600  0.24536300  1
  C  2164  1  0.93490500  0.02995700  0.22766300  1
  C  2165  1  0.94792300  0.01885700  0.21172600  1
  C  2166  1  0.97295800  0.01534300  0.21332000  1
  C  2173  1  0.91089500  0.03572000  0.22497600  1
  C  2174  1  0.08796000  0.02157000  0.23028300  1
  C  2177  1  0.79455200  0.79052900  0.48063300  1
  C  2178  1  0.81579700  0.77723300  0.48469200  1
  C  2179  1  0.81567500  0.75193800  0.48460300  1
  C  2180  1  0.79436100  0.73896500  0.48030600  1
  C  2181  1  0.77315300  0.75213700  0.47602900  1
  C  2182  1  0.77322900  0.77751100  0.47628300  1
  C  2185  1  0.79487300  0.71334600  0.47953800  1
  C  2186  1  0.80578600  0.69991100  0.49534600  1
  C  2187  1  0.80884600  0.67486100  0.49361600  1
  C  2188  1  0.80118900  0.66249900  0.47592900  1
  C  2189  1  0.78976100  0.67580000  0.46031600  1
  C  2190  1  0.78645900  0.70084500  0.46217200  1
  C  2197  1  0.80669900  0.63843800  0.47293900  1
  C  2198  1  0.79450900  0.81560100  0.48034300  1
  C  2201  1  0.70289100  0.16310500  0.98063300  1
  C  2202  1  0.68165500  0.17641600  0.98470200  1
  C  2203  1  0.68179500  0.20170900  0.98462000  1
  C  2204  1  0.70311600  0.21467100  0.98032200  1
  C  2205  1  0.72431300  0.20148500  0.97603600  1
  C  2206  1  0.72422000  0.17611000  0.97628300  1
  C  2209  1  0.70261900  0.24028800  0.97956100  1
  C  2210  1  0.69172000  0.25372600  0.99537500  1
  C  2211  1  0.68866500  0.27877500  0.99364800  1
  C  2212  1  0.69631300  0.29113800  0.97595900  1
  C  2213  1  0.70773100  0.27783400  0.96034000  1
  C  2214  1  0.71102700  0.25279000  0.96219300  1
  C  2221  1  0.69079600  0.31519800  0.97296900  1
  C  2222  1  0.70291700  0.13803400  0.98033900  1
  C  2225  1  0.70280100  0.79117500  0.80799300  1
  C  2226  1  0.68160800  0.77801300  0.80343400  1
  C  2227  1  0.68166000  0.75271600  0.80319100  1
  C  2228  1  0.70285000  0.73960900  0.80763300  1
  C  2229  1  0.72401200  0.75263700  0.81235300  1
  C  2230  1  0.72400700  0.77800800  0.81242800  1
  C  2233  1  0.70226100  0.71399000  0.80816900  1
  C  2234  1  0.69168400  0.70074300  0.79208300  1
  C  2235  1  0.68859300  0.67567100  0.79355500  1
  C  2236  1  0.69586800  0.66314400  0.81126300  1
  C  2237  1  0.70691300  0.67624400  0.82718500  1
  C  2238  1  0.71026900  0.70129900  0.82557400  1
  C  2245  1  0.69018200  0.63912300  0.81399900  1
  C  2246  1  0.70297600  0.81624400  0.80858300  1
  C  2249  1  0.79471900  0.16247900  0.30796900  1
  C  2250  1  0.81589800  0.17565100  0.30338800  1
  C  2251  1  0.81583000  0.20094700  0.30313700  1
  C  2252  1  0.79463800  0.21404400  0.30759200  1
  C  2253  1  0.77349000  0.20100700  0.31233400  1
  C  2254  1  0.77350800  0.17563700  0.31241600  1
  C  2257  1  0.79521700  0.23966500  0.30812300  1
  C  2258  1  0.80577000  0.25291100  0.29202600  1
  C  2259  1  0.80885700  0.27798400  0.29349500  1
  C  2260  1  0.80160000  0.29051300  0.31120900  1
  C  2261  1  0.79057500  0.27741300  0.32713900  1
  C  2262  1  0.78722300  0.25235700  0.32553200  1
  C  2269  1  0.80729600  0.31453200  0.31394200  1
  C  2270  1  0.79455900  0.13740900  0.30857100  1
  C  2273  1  0.56216900  0.43088500  0.05835380  1
  C  2274  1  0.54893700  0.40954600  0.05449680  1
  C  2275  1  0.52364300  0.40955800  0.05471180  1
  C  2276  1  0.51059800  0.43085300  0.05893180  1
  C  2277  1  0.52371100  0.45215800  0.06299680  1
  C  2278  1  0.54908300  0.45218900  0.06262080  1
  C  2281  1  0.48498300  0.43024000  0.05982280  1
  C  2282  1  0.47149500  0.41906500  0.04417980  1
  C  2283  1  0.44646600  0.41595200  0.04603380  1
  C  2284  1  0.43415400  0.42382400  0.06368280  1
  C  2285  1  0.44751200  0.43551700  0.07912480  1
  C  2286  1  0.47254000  0.43886200  0.07714580  1
  C  2293  1  0.41009300  0.41834200  0.06679880  1
  C  2294  1  0.58724000  0.43102900  0.05856880  1
  C  2297  1  0.93527800  0.52273600  0.55834500  1
  C  2298  1  0.94851200  0.54408100  0.55451500  1
  C  2299  1  0.97380600  0.54406600  0.55473400  1
  C  2300  1  0.98684700  0.52276300  0.55893300  1
  C  2301  1  0.97373400  0.50145300  0.56297100  1
  C  2302  1  0.94836000  0.50142400  0.56259200  1
  C  2305  1  0.01246200  0.52337400  0.55982800  1
  C  2306  1  0.02595600  0.53457300  0.54420100  1
  C  2307  1  0.05098600  0.53768100  0.54606400  1
  C  2308  1  0.06329200  0.52978100  0.56370600  1
  C  2309  1  0.04992800  0.51806300  0.57913200  1
  C  2310  1  0.02490100  0.51472500  0.57714500  1
  C  2317  1  0.08735200  0.53525300  0.56683600  1
  C  2318  1  0.91020700  0.52259200  0.55855700  1
  C  2321  1  0.93424200  0.43041000  0.23092900  1
  C  2322  1  0.94720000  0.40887800  0.23468200  1
  C  2323  1  0.97249300  0.40867700  0.23488200  1
  C  2324  1  0.98579300  0.42994700  0.23119200  1
  C  2325  1  0.97296700  0.45144900  0.22723400  1
  C  2326  1  0.94759600  0.45169200  0.22720500  1
  C  2329  1  0.01140000  0.42912800  0.23064800  1
  C  2330  1  0.02450100  0.41768000  0.24638800  1
  C  2331  1  0.04952700  0.41432700  0.24481100  1
  C  2332  1  0.06215700  0.42220900  0.22733900  1
  C  2333  1  0.04920700  0.43414700  0.21179400  1
  C  2334  1  0.02419600  0.43775500  0.21351300  1
  C  2341  1  0.08612000  0.41636000  0.22443700  1
  C  2342  1  0.90918200  0.43083000  0.23042300  1
  C  2345  1  0.56330000  0.52312600  0.73096600  1
  C  2346  1  0.55031300  0.54463600  0.73474300  1
  C  2347  1  0.52502100  0.54480900  0.73492600  1
  C  2348  1  0.51174700  0.52353300  0.73119100  1
  C  2349  1  0.52460100  0.50205300  0.72721100  1
  C  2350  1  0.54997300  0.50183900  0.72720100  1
  C  2353  1  0.48613900  0.52432900  0.73062200  1
  C  2354  1  0.47300500  0.53575000  0.74635500  1
  C  2355  1  0.44798000  0.53909400  0.74474900  1
  C  2356  1  0.43538300  0.53123300  0.72725200  1
  C  2357  1  0.44836800  0.51931600  0.71171400  1
  C  2358  1  0.47337800  0.51571700  0.71346200  1
  C  2365  1  0.41142300  0.53707600  0.72431900  1
  C  2366  1  0.58836100  0.52273900  0.73046800  1
  N  23  1  0.18038300  0.40858800  0.81520500  1
  N  24  1  0.10127600  0.41678800  0.84337800  1
  N  25  1  0.18875200  0.32876200  0.90665800  1
  N  26  1  0.17786800  0.40790700  0.93483300  1
  N  49  1  0.31715000  0.54511800  0.31514000  1
  N  50  1  0.39626900  0.53676500  0.34326500  1
  N  51  1  0.30879800  0.62482100  0.40662900  1
  N  52  1  0.31980700  0.54563800  0.43473400  1
  N  75  1  0.81851900  0.90622000  0.06337500  1
  N  76  1  0.81174800  0.82776100  0.09255600  1
  N  77  1  0.89594500  0.91801600  0.15555900  1
  N  78  1  0.81611300  0.90720200  0.18312500  1
  N  101  1  0.67894800  0.04740400  0.56340000  1
  N  102  1  0.68566400  0.12588500  0.59254500  1
  N  103  1  0.60153300  0.03562500  0.65560600  1
  N  104  1  0.68135600  0.04652400  0.68315800  1
  N  127  1  0.31515800  0.40609500  0.68312200  1
  N  128  1  0.39507100  0.41749400  0.65608100  1
  N  129  1  0.30884900  0.32856900  0.59218700  1
  N  130  1  0.31676700  0.40777700  0.56405800  1
  N  153  1  0.18226600  0.54763500  0.18316000  1
  N  154  1  0.10237300  0.53613900  0.15612000  1
  N  155  1  0.18865300  0.62503700  0.09219800  1
  N  156  1  0.18067700  0.54582300  0.06408900  1
  N  179  1  0.67830600  0.90655900  0.43567100  1
  N  180  1  0.68553800  0.82868500  0.40531300  1
  N  181  1  0.60181600  0.91955400  0.34381600  1
  N  182  1  0.68065900  0.91150100  0.31507100  1
  N  205  1  0.81917800  0.04710100  0.93568300  1
  N  206  1  0.81200900  0.12497400  0.90531600  1
  N  207  1  0.89566700  0.03407800  0.84380700  1
  N  208  1  0.81681700  0.04211800  0.81508000  1
  N  231  1  0.81964100  0.54626100  0.18419600  1
  N  232  1  0.89799400  0.53987700  0.15477400  1
  N  233  1  0.80684500  0.62337600  0.09195600  1
  N  234  1  0.81784200  0.54351200  0.06452800  1
  N  257  1  0.67779700  0.40735800  0.68422400  1
  N  258  1  0.59945600  0.41375000  0.65478400  1
  N  259  1  0.69064300  0.33025800  0.59198600  1
  N  260  1  0.67965000  0.41012200  0.56455700  1
  N  283  1  0.18187100  0.04608700  0.93283400  1
  N  284  1  0.18827100  0.12415900  0.90304700  1
  N  285  1  0.10057100  0.03887700  0.84187200  1
  N  286  1  0.17844600  0.04565100  0.81145600  1
  N  309  1  0.31561600  0.90751700  0.43281700  1
  N  310  1  0.30930600  0.82941500  0.40306900  1
  N  311  1  0.39691400  0.91473700  0.34185000  1
  N  312  1  0.31903400  0.90797600  0.31145100  1
  N  335  1  0.67886100  0.54692500  0.31186500  1
  N  336  1  0.60086800  0.54013700  0.34203000  1
  N  337  1  0.69174900  0.62387700  0.40348500  1
  N  338  1  0.68365200  0.54512400  0.43237400  1
  N  361  1  0.81864500  0.40680200  0.81182800  1
  N  362  1  0.89664900  0.41345000  0.84198500  1
  N  363  1  0.80572700  0.32978100  0.90342900  1
  N  364  1  0.81383200  0.40852700  0.93233200  1
  N  387  1  0.31813400  0.04585800  0.56213800  1
  N  388  1  0.31138600  0.12391400  0.59209900  1
  N  389  1  0.39685800  0.03693100  0.65373000  1
  N  390  1  0.31873000  0.04340700  0.68350500  1
  N  413  1  0.17932900  0.90773700  0.06213500  1
  N  414  1  0.18605000  0.82968100  0.09209500  1
  N  415  1  0.10062200  0.91669900  0.15374300  1
  N  416  1  0.17876100  0.91023200  0.18349800  1
  N  1207  1  0.18038300  0.40858800  0.21105000  1
  N  1208  1  0.10127600  0.41678800  0.23922300  1
  N  1209  1  0.18875200  0.32876200  0.30250300  1
  N  1210  1  0.17786800  0.40790700  0.33067800  1
  N  1233  1  0.31715000  0.54511800  0.71098500  1
  N  1234  1  0.39626900  0.53676500  0.73911000  1
  N  1235  1  0.30879800  0.62482100  0.80247400  1
  N  1236  1  0.31980700  0.54563800  0.83057900  1
  N  1259  1  0.81851900  0.90622000  0.45922000  1
  N  1260  1  0.81174800  0.82776100  0.48840100  1
  N  1261  1  0.89594500  0.91801600  0.55140400  1
  N  1262  1  0.81611300  0.90720200  0.57897000  1
  N  1285  1  0.67894800  0.04740400  0.95924500  1
  N  1286  1  0.68566400  0.12588500  0.98839000  1
  N  1287  1  0.60153300  0.03562500  0.05145080  1
  N  1288  1  0.68135600  0.04652400  0.07900280  1
  N  1311  1  0.31515800  0.40609500  0.07896680  1
  N  1312  1  0.39507100  0.41749400  0.05192580  1
  N  1313  1  0.30884900  0.32856900  0.98803200  1
  N  1314  1  0.31676700  0.40777700  0.95990300  1
  N  1337  1  0.18226600  0.54763500  0.57900500  1
  N  1338  1  0.10237300  0.53613900  0.55196500  1
  N  1339  1  0.18865300  0.62503700  0.48804300  1
  N  1340  1  0.18067700  0.54582300  0.45993400  1
  N  1363  1  0.67830600  0.90655900  0.83151600  1
  N  1364  1  0.68553800  0.82868500  0.80115800  1
  N  1365  1  0.60181600  0.91955400  0.73966100  1
  N  1366  1  0.68065900  0.91150100  0.71091600  1
  N  1389  1  0.81917800  0.04710100  0.33152800  1
  N  1390  1  0.81200900  0.12497400  0.30116100  1
  N  1391  1  0.89566700  0.03407800  0.23965200  1
  N  1392  1  0.81681700  0.04211800  0.21092500  1
  N  1415  1  0.81964100  0.54626100  0.58004100  1
  N  1416  1  0.89799400  0.53987700  0.55061900  1
  N  1417  1  0.80684500  0.62337600  0.48780100  1
  N  1418  1  0.81784200  0.54351200  0.46037300  1
  N  1441  1  0.67779700  0.40735800  0.08006880  1
  N  1442  1  0.59945600  0.41375000  0.05062880  1
  N  1443  1  0.69064300  0.33025800  0.98783100  1
  N  1444  1  0.67965000  0.41012200  0.96040200  1
  N  1467  1  0.18187100  0.04608700  0.32867900  1
  N  1468  1  0.18827100  0.12415900  0.29889200  1
  N  1469  1  0.10057100  0.03887700  0.23771700  1
  N  1470  1  0.17844600  0.04565100  0.20730100  1
  N  1493  1  0.31561600  0.90751700  0.82866200  1
  N  1494  1  0.30930600  0.82941500  0.79891400  1
  N  1495  1  0.39691400  0.91473700  0.73769500  1
  N  1496  1  0.31903400  0.90797600  0.70729600  1
  N  1519  1  0.67886100  0.54692500  0.70771000  1
  N  1520  1  0.60086800  0.54013700  0.73787500  1
  N  1521  1  0.69174900  0.62387700  0.79933000  1
  N  1522  1  0.68365200  0.54512400  0.82821900  1
  N  1545  1  0.81864500  0.40680200  0.20767300  1
  N  1546  1  0.89664900  0.41345000  0.23783000  1
  N  1547  1  0.80572700  0.32978100  0.29927400  1
  N  1548  1  0.81383200  0.40852700  0.32817700  1
  N  1571  1  0.31813400  0.04585800  0.95798300  1
  N  1572  1  0.31138600  0.12391400  0.98794400  1
  N  1573  1  0.39685800  0.03693100  0.04957480  1
  N  1574  1  0.31873000  0.04340700  0.07934980  1
  N  1597  1  0.17932900  0.90773700  0.45798000  1
  N  1598  1  0.18605000  0.82968100  0.48794000  1
  N  1599  1  0.10062200  0.91669900  0.54958800  1
  N  1600  1  0.17876100  0.91023200  0.57934300  1
  O  8  1  0.19524000  0.36191100  0.94000800  1
  O  15  1  0.13444300  0.42523400  0.81094300  1
  O  17  1  0.17129500  0.34438400  0.87081200  1
  O  18  1  0.11646500  0.39816200  0.87894600  1
  O  34  1  0.30233900  0.59162500  0.43995600  1
  O  41  1  0.36305300  0.52840300  0.31083900  1
  O  43  1  0.32626100  0.60924800  0.37077100  1
  O  44  1  0.38115100  0.55540900  0.37884000  1
  O  60  1  0.86257500  0.92519000  0.18852000  1
  O  67  1  0.80586000  0.85898800  0.05886200  1
  O  69  1  0.88075500  0.89968200  0.11989200  1
  O  70  1  0.82848700  0.84423600  0.12858700  1
  O  86  1  0.63492000  0.02851400  0.68857100  1
  O  93  1  0.69156700  0.09464100  0.55886600  1
  O  95  1  0.61670100  0.05393100  0.61992500  1
  O  96  1  0.66892000  0.10942500  0.62858300  1
  O  112  1  0.30062600  0.36164700  0.55960600  1
  O  119  1  0.36117200  0.42437500  0.68885500  1
  O  121  1  0.32695300  0.34392000  0.62788500  1
  O  122  1  0.38029900  0.39937300  0.62024300  1
  O  138  1  0.19686100  0.59192900  0.05963300  1
  O  145  1  0.13628000  0.52932800  0.18890000  1
  O  147  1  0.17051500  0.60972600  0.12789200  1
  O  148  1  0.11712900  0.55424200  0.12027200  1
  O  164  1  0.63453700  0.92836300  0.31121900  1
  O  171  1  0.69064700  0.85851900  0.43977900  1
  O  173  1  0.61746300  0.90073900  0.37924200  1
  O  174  1  0.66969800  0.84644800  0.36941800  1
  O  190  1  0.86294100  0.02526300  0.81122000  1
  O  197  1  0.80688900  0.09515400  0.93978600  1
  O  199  1  0.88003300  0.05289900  0.87923700  1
  O  200  1  0.82783900  0.10718800  0.86941700  1
  O  216  1  0.79946400  0.58980400  0.05915700  1
  O  223  1  0.86697900  0.53387800  0.18855800  1
  O  225  1  0.82554000  0.60840900  0.12755300  1
  O  226  1  0.88122000  0.55643200  0.11874000  1
  O  242  1  0.69804400  0.36383200  0.55919500  1
  O  249  1  0.63045900  0.41974000  0.68857700  1
  O  251  1  0.67193200  0.34522600  0.62757900  1
  O  252  1  0.61624200  0.39720000  0.61875100  1
  O  268  1  0.13038800  0.03341200  0.80742300  1
  O  275  1  0.19490100  0.09325700  0.93680200  1
  O  277  1  0.11840300  0.05487200  0.87768700  1
  O  278  1  0.17120800  0.10727700  0.86723100  1
  O  294  1  0.36708200  0.92021900  0.30741500  1
  O  301  1  0.30265400  0.86033200  0.43680900  1
  O  303  1  0.37910500  0.89872400  0.37766300  1
  O  304  1  0.32636000  0.84629500  0.36723900  1
  O  320  1  0.70058200  0.59122200  0.43612800  1
  O  327  1  0.63081400  0.53469100  0.30768600  1
  O  329  1  0.67292100  0.60813500  0.36808400  1
  O  330  1  0.61855800  0.55609500  0.37793000  1
  O  346  1  0.79689000  0.36243300  0.93607300  1
  O  353  1  0.86670200  0.41895700  0.80765000  1
  O  355  1  0.82456000  0.34552400  0.86803200  1
  O  356  1  0.87895400  0.39748900  0.87787900  1
  O  372  1  0.36599400  0.03060200  0.68759200  1
  O  379  1  0.30579700  0.09382300  0.55787600  1
  O  381  1  0.37988300  0.05363800  0.61783000  1
  O  382  1  0.32741700  0.10639300  0.62802200  1
  O  398  1  0.13150200  0.92304600  0.18759200  1
  O  405  1  0.19163600  0.85976800  0.05787300  1
  O  407  1  0.11757800  0.89997700  0.11784300  1
  O  408  1  0.17001900  0.84721200  0.12802400  1
  O  1192  1  0.19524000  0.36191100  0.33585300  1
  O  1199  1  0.13444300  0.42523400  0.20678800  1
  O  1201  1  0.17129500  0.34438400  0.26665700  1
  O  1202  1  0.11646500  0.39816200  0.27479100  1
  O  1218  1  0.30233900  0.59162500  0.83580100  1
  O  1225  1  0.36305300  0.52840300  0.70668400  1
  O  1227  1  0.32626100  0.60924800  0.76661600  1
  O  1228  1  0.38115100  0.55540900  0.77468500  1
  O  1244  1  0.86257500  0.92519000  0.58436500  1
  O  1251  1  0.80586000  0.85898800  0.45470700  1
  O  1253  1  0.88075500  0.89968200  0.51573700  1
  O  1254  1  0.82848700  0.84423600  0.52443200  1
  O  1270  1  0.63492000  0.02851400  0.08441580  1
  O  1277  1  0.69156700  0.09464100  0.95471100  1
  O  1279  1  0.61670100  0.05393100  0.01576980  1
  O  1280  1  0.66892000  0.10942500  0.02442780  1
  O  1296  1  0.30062600  0.36164700  0.95545100  1
  O  1303  1  0.36117200  0.42437500  0.08469980  1
  O  1305  1  0.32695300  0.34392000  0.02372980  1
  O  1306  1  0.38029900  0.39937300  0.01608780  1
  O  1322  1  0.19686100  0.59192900  0.45547800  1
  O  1329  1  0.13628000  0.52932800  0.58474500  1
  O  1331  1  0.17051500  0.60972600  0.52373700  1
  O  1332  1  0.11712900  0.55424200  0.51611700  1
  O  1348  1  0.63453700  0.92836300  0.70706400  1
  O  1355  1  0.69064700  0.85851900  0.83562400  1
  O  1357  1  0.61746300  0.90073900  0.77508700  1
  O  1358  1  0.66969800  0.84644800  0.76526300  1
  O  1374  1  0.86294100  0.02526300  0.20706500  1
  O  1381  1  0.80688900  0.09515400  0.33563100  1
  O  1383  1  0.88003300  0.05289900  0.27508200  1
  O  1384  1  0.82783900  0.10718800  0.26526200  1
  O  1400  1  0.79946400  0.58980400  0.45500200  1
  O  1407  1  0.86697900  0.53387800  0.58440300  1
  O  1409  1  0.82554000  0.60840900  0.52339800  1
  O  1410  1  0.88122000  0.55643200  0.51458500  1
  O  1426  1  0.69804400  0.36383200  0.95504000  1
  O  1433  1  0.63045900  0.41974000  0.08442180  1
  O  1435  1  0.67193200  0.34522600  0.02342380  1
  O  1436  1  0.61624200  0.39720000  0.01459580  1
  O  1452  1  0.13038800  0.03341200  0.20326800  1
  O  1459  1  0.19490100  0.09325700  0.33264700  1
  O  1461  1  0.11840300  0.05487200  0.27353200  1
  O  1462  1  0.17120800  0.10727700  0.26307600  1
  O  1478  1  0.36708200  0.92021900  0.70326000  1
  O  1485  1  0.30265400  0.86033200  0.83265400  1
  O  1487  1  0.37910500  0.89872400  0.77350800  1
  O  1488  1  0.32636000  0.84629500  0.76308400  1
  O  1504  1  0.70058200  0.59122200  0.83197300  1
  O  1511  1  0.63081400  0.53469100  0.70353100  1
  O  1513  1  0.67292100  0.60813500  0.76392900  1
  O  1514  1  0.61855800  0.55609500  0.77377500  1
  O  1530  1  0.79689000  0.36243300  0.33191800  1
  O  1537  1  0.86670200  0.41895700  0.20349500  1
  O  1539  1  0.82456000  0.34552400  0.26387700  1
  O  1540  1  0.87895400  0.39748900  0.27372400  1
  O  1556  1  0.36599400  0.03060200  0.08343680  1
  O  1563  1  0.30579700  0.09382300  0.95372100  1
  O  1565  1  0.37988300  0.05363800  0.01367480  1
  O  1566  1  0.32741700  0.10639300  0.02386680  1
  O  1582  1  0.13150200  0.92304600  0.58343700  1
  O  1589  1  0.19163600  0.85976800  0.45371800  1
  O  1591  1  0.11757800  0.89997700  0.51368800  1
  O  1592  1  0.17001900  0.84721200  0.52386900  1
