# generated using pymatgen
data_H9C20(N2O)2
_symmetry_space_group_name_H-M   'P 1'
_cell_length_a   50.45910000
_cell_length_b   50.45910000
_cell_length_c   69.65490000
_cell_angle_alpha   90.00000000
_cell_angle_beta   90.00000000
_cell_angle_gamma   90.00000000
_symmetry_Int_Tables_number   1
_chemical_formula_structural   H9C20(N2O)2
_chemical_formula_sum   'H288 C640 N128 O64'
_cell_volume   177349.78781800
_cell_formula_units_Z   32
loop_
 _symmetry_equiv_pos_site_id
 _symmetry_equiv_pos_as_xyz
  1  'x, y, z'
loop_
 _atom_site_type_symbol
 _atom_site_label
 _atom_site_symmetry_multiplicity
 _atom_site_fract_x
 _atom_site_fract_y
 _atom_site_fract_z
 _atom_site_occupancy
  H  7  1  0.13808000  0.43743700  0.87729800  1
  H  8  1  0.20502700  0.41713000  0.84442900  1
  H  9  1  0.13984000  0.45422500  0.81818700  1
  H  16  1  0.17770600  0.44705500  0.89854700  1
  H  17  1  0.21591300  0.38317400  0.92561800  1
  H  18  1  0.19690300  0.37843900  0.86703500  1
  H  29  1  0.36105300  0.55546400  0.37730200  1
  H  30  1  0.29275400  0.57287800  0.34485300  1
  H  31  1  0.35955200  0.53949200  0.31807200  1
  H  38  1  0.32103400  0.54404800  0.39869900  1
  H  39  1  0.28143200  0.60708900  0.42581400  1
  H  40  1  0.30068300  0.61242300  0.36730400  1
  H  51  1  0.80839100  0.88132100  0.12753400  1
  H  52  1  0.82908700  0.95056600  0.09729600  1
  H  53  1  0.78966700  0.88865000  0.06892200  1
  H  60  1  0.79950500  0.92017900  0.15027500  1
  H  61  1  0.86371100  0.95694700  0.17801800  1
  H  62  1  0.86823800  0.93990000  0.11909600  1
  H  73  1  0.68994100  0.10882700  0.62766600  1
  H  74  1  0.66922300  0.03960100  0.59741400  1
  H  75  1  0.70869800  0.10149500  0.56905800  1
  H  82  1  0.69880100  0.06992800  0.65040100  1
  H  83  1  0.63452400  0.03325200  0.67812500  1
  H  84  1  0.63005100  0.05032800  0.61920400  1
  H  95  1  0.36709300  0.44324000  0.61729200  1
  H  96  1  0.29971400  0.42427200  0.65022600  1
  H  97  1  0.36475100  0.46233100  0.67595800  1
  H  104  1  0.32686100  0.45209500  0.59578600  1
  H  105  1  0.28880000  0.38719100  0.57002200  1
  H  106  1  0.30908800  0.38422800  0.62855000  1
  H  117  1  0.13140000  0.54678700  0.11742700  1
  H  118  1  0.19883200  0.56555900  0.15036100  1
  H  119  1  0.13377700  0.52747300  0.17605100  1
  H  126  1  0.17164100  0.53793100  0.09589200  1
  H  127  1  0.20968100  0.60291400  0.07021900  1
  H  128  1  0.18944600  0.60569800  0.12876200  1
  H  139  1  0.69029000  0.87821200  0.36678700  1
  H  140  1  0.67379500  0.94687100  0.39915200  1
  H  141  1  0.70931900  0.88094900  0.42544800  1
  H  148  1  0.70034900  0.91668700  0.34477800  1
  H  149  1  0.63823400  0.95882600  0.31864100  1
  H  150  1  0.63436300  0.94040500  0.37744100  1
  H  161  1  0.80799300  0.11232300  0.86685500  1
  H  162  1  0.82471300  0.04366500  0.89916300  1
  H  163  1  0.78898300  0.10942300  0.92551700  1
  H  170  1  0.79807600  0.07388000  0.84480900  1
  H  171  1  0.86022100  0.03179300  0.81866500  1
  H  172  1  0.86408800  0.05021600  0.87746000  1
  H  183  1  0.86385400  0.55381300  0.12120000  1
  H  184  1  0.79478000  0.57490700  0.15148400  1
  H  185  1  0.85629300  0.53470000  0.17974000  1
  H  192  1  0.82484400  0.54549900  0.09840000  1
  H  193  1  0.78876300  0.61036700  0.07098800  1
  H  194  1  0.80598700  0.61418200  0.12990900  1
  H  205  1  0.63453500  0.43628200  0.62117800  1
  H  206  1  0.70353600  0.41513200  0.65152800  1
  H  207  1  0.64201300  0.45540000  0.67972400  1
  H  214  1  0.67354500  0.44456600  0.59841700  1
  H  215  1  0.70972700  0.37973700  0.57102700  1
  H  216  1  0.69240800  0.37588600  0.62993100  1
  H  227  1  0.19190400  0.11332000  0.87120400  1
  H  228  1  0.17117400  0.04320200  0.90026700  1
  H  229  1  0.21264300  0.10317800  0.92927900  1
  H  236  1  0.19881400  0.07452400  0.84731900  1
  H  237  1  0.13281300  0.03877200  0.82114400  1
  H  238  1  0.13101800  0.05614200  0.88007900  1
  H  249  1  0.30651500  0.87677300  0.37107700  1
  H  250  1  0.32758200  0.94685200  0.40006400  1
  H  251  1  0.28599400  0.88706500  0.42918000  1
  H  258  1  0.29967000  0.91552500  0.34718600  1
  H  259  1  0.36557900  0.95128100  0.32089100  1
  H  260  1  0.36759300  0.93387500  0.37981500  1
  H  271  1  0.63281900  0.55505900  0.38199000  1
  H  272  1  0.70198800  0.56984900  0.34978300  1
  H  273  1  0.63520900  0.53621200  0.32328700  1
  H  280  1  0.67186900  0.54358700  0.40392900  1
  H  281  1  0.71332600  0.60598000  0.43033200  1
  H  282  1  0.69496700  0.60998900  0.37151700  1
  H  293  1  0.86558600  0.43494600  0.88189800  1
  H  294  1  0.79647600  0.42022300  0.84962000  1
  H  295  1  0.86338600  0.45366600  0.82316500  1
  H  302  1  0.82656200  0.44655200  0.90376700  1
  H  303  1  0.78488700  0.38435300  0.93022600  1
  H  304  1  0.80330400  0.38013100  0.87142900  1
  H  315  1  0.30979300  0.11314900  0.62918200  1
  H  316  1  0.32710800  0.04534700  0.59609500  1
  H  317  1  0.29656100  0.11389000  0.56971300  1
  H  324  1  0.29505500  0.07277400  0.64888300  1
  H  325  1  0.35400700  0.03060400  0.67850700  1
  H  326  1  0.36557300  0.05135300  0.62060100  1
  H  337  1  0.18712000  0.87698100  0.12943000  1
  H  338  1  0.17141000  0.94504000  0.09619100  1
  H  339  1  0.20135500  0.87599400  0.07008400  1
  H  346  1  0.20276200  0.91744600  0.14898700  1
  H  347  1  0.14403200  0.95995100  0.17859200  1
  H  348  1  0.13240200  0.93927300  0.12066900  1
  H  359  1  0.19200500  0.45057700  0.77557400  1
  H  364  1  0.23918800  0.38634000  0.79391100  1
  H  369  1  0.28117800  0.46910500  0.70465500  1
  H  370  1  0.32353500  0.40433100  0.72754700  1
  H  375  1  0.19632800  0.39673700  0.80984700  1
  H  376  1  0.34340900  0.43778200  0.70266300  1
  H  383  1  0.30603400  0.53996400  0.27609700  1
  H  388  1  0.25881500  0.60449100  0.29385300  1
  H  393  1  0.21719200  0.52063300  0.20505200  1
  H  394  1  0.17483000  0.58575700  0.22742000  1
  H  399  1  0.30147800  0.59430300  0.31001400  1
  H  400  1  0.15502800  0.55197800  0.20273100  1
  H  407  1  0.79230500  0.94366300  0.02933200  1
  H  412  1  0.86177900  0.98504700  0.04478200  1
  H  417  1  0.78001600  0.02943200  0.95563300  1
  H  418  1  0.84992000  0.06611600  0.97554700  1
  H  423  1  0.84810200  0.94499900  0.06246800  1
  H  424  1  0.81828600  0.08774700  0.95074700  1
  H  431  1  0.70597900  0.04665600  0.52940600  1
  H  436  1  0.63669600  0.00499700  0.54491700  1
  H  441  1  0.71834600  0.96107900  0.45559200  1
  H  442  1  0.64863000  0.92411400  0.47558200  1
  H  447  1  0.65026700  0.04510900  0.56259800  1
  H  448  1  0.68019600  0.90264800  0.45071600  1
  H  455  1  0.80138700  0.53778000  0.21943300  1
  H  460  1  0.75994600  0.60715700  0.20383400  1
  H  465  1  0.71578100  0.52590700  0.29328500  1
  H  466  1  0.67905300  0.59569200  0.27318800  1
  H  471  1  0.80009300  0.59351200  0.18625400  1
  H  472  1  0.65755600  0.56454400  0.29817900  1
  H  479  1  0.69691500  0.45227700  0.71946600  1
  H  484  1  0.73822700  0.38282700  0.70385700  1
  H  489  1  0.78277800  0.46417800  0.79315900  1
  H  490  1  0.81936600  0.39432300  0.77305700  1
  H  495  1  0.69803600  0.39650300  0.68632900  1
  H  496  1  0.84097800  0.42552500  0.79799100  1
  H  503  1  0.20583400  0.04878400  0.96996200  1
  H  508  1  0.14124700  0.00410200  0.94917100  1
  H  513  1  0.21441300  0.96011000  0.04224200  1
  H  514  1  0.14984200  0.92021000  0.01687800  1
  H  519  1  0.15303700  0.04763500  0.93487200  1
  H  520  1  0.17955600  0.89944900  0.04344600  1
  H  527  1  0.29315600  0.94121500  0.46983800  1
  H  532  1  0.35741400  0.98624000  0.44889500  1
  H  537  1  0.28444600  0.02980700  0.54214300  1
  H  538  1  0.34871200  0.07004400  0.51665000  1
  H  543  1  0.34573700  0.94262600  0.43460600  1
  H  544  1  0.31891800  0.09066600  0.54324000  1
  H  551  1  0.68862300  0.95038300  0.27507900  1
  H  556  1  0.73469200  0.88644400  0.29532300  1
  H  561  1  0.77882500  0.96402200  0.20419000  1
  H  562  1  0.82007000  0.89997800  0.22912700  1
  H  567  1  0.69090200  0.89771500  0.31005700  1
  H  568  1  0.84091600  0.93191700  0.20391200  1
  H  575  1  0.80974700  0.04008800  0.77515000  1
  H  580  1  0.76364200  0.10404700  0.79531800  1
  H  585  1  0.71948300  0.02616200  0.70433000  1
  H  586  1  0.67820400  0.09023800  0.72919200  1
  H  591  1  0.80741600  0.09282700  0.81008800  1
  H  592  1  0.65735400  0.05821900  0.70402800  1
  H  599  1  0.29228800  0.43760200  0.52680100  1
  H  604  1  0.35765200  0.48387300  0.54425200  1
  H  609  1  0.27631900  0.52431200  0.45394500  1
  H  610  1  0.34205500  0.56588400  0.47615800  1
  H  615  1  0.34648800  0.44095500  0.56043900  1
  H  616  1  0.30927600  0.58593000  0.45135700  1
  H  623  1  0.20628200  0.55241600  0.02699100  1
  H  628  1  0.14039800  0.50670500  0.04418200  1
  H  633  1  0.22169800  0.46592600  0.95394200  1
  H  634  1  0.15544200  0.42490800  0.97588100  1
  H  639  1  0.15193300  0.54934400  0.06055200  1
  H  640  1  0.18790700  0.40465800  0.95106200  1
  H  647  1  0.30092500  0.03835000  0.71878700  1
  H  652  1  0.25459600  0.10196500  0.69831000  1
  H  657  1  0.21545800  0.03008300  0.79303800  1
  H  658  1  0.17377400  0.09375200  0.76797800  1
  H  663  1  0.29775400  0.09043900  0.68323000  1
  H  664  1  0.15436900  0.06448300  0.79501500  1
  H  671  1  0.19686400  0.95164800  0.21900300  1
  H  676  1  0.24338100  0.88837300  0.19820000  1
  H  681  1  0.28263300  0.95983600  0.29307100  1
  H  682  1  0.32449400  0.89651800  0.26770100  1
  H  687  1  0.20002500  0.89982700  0.18329200  1
  H  688  1  0.34390000  0.92565800  0.29478200  1
  H  695  1  0.70564800  0.55442500  0.47350700  1
  H  700  1  0.64091300  0.50934900  0.45342000  1
  H  705  1  0.71807400  0.46415200  0.54446600  1
  H  706  1  0.65328500  0.42388600  0.51970400  1
  H  711  1  0.65274200  0.55275200  0.43857700  1
  H  712  1  0.68495600  0.40262700  0.54497100  1
  H  719  1  0.79259400  0.43590900  0.97331100  1
  H  724  1  0.85753400  0.48080100  0.95335600  1
  H  729  1  0.78031300  0.52607300  0.04435800  1
  H  730  1  0.84530400  0.56616100  0.01972300  1
  H  735  1  0.84559500  0.43748100  0.93844400  1
  H  736  1  0.81361300  0.58748400  0.04496800  1
  H  743  1  0.24785800  0.18557800  0.93338200  1
  H  748  1  0.22580900  0.17534800  0.87542700  1
  H  753  1  0.24751700  0.31702100  0.91632200  1
  H  754  1  0.22508300  0.29887600  0.85949000  1
  H  759  1  0.24064800  0.14043400  0.92004600  1
  H  760  1  0.23371600  0.34635800  0.87059200  1
  H  767  1  0.25040300  0.80499200  0.43347700  1
  H  772  1  0.27202200  0.81490700  0.37541100  1
  H  777  1  0.24979200  0.67350200  0.41664400  1
  H  778  1  0.27181800  0.69133000  0.35967800  1
  H  783  1  0.25771000  0.85005300  0.42000100  1
  H  784  1  0.26332000  0.64394900  0.37090700  1
  H  791  1  0.06149200  0.99338600  0.18411500  1
  H  796  1  0.07080400  0.97420100  0.12555100  1
  H  801  1  0.92968900  0.98952200  0.16891700  1
  H  802  1  0.94691700  0.97016600  0.11134800  1
  H  807  1  0.10653900  0.98805700  0.16990300  1
  H  808  1  0.89954000  0.97716700  0.12330800  1
  H  815  1  0.43655700  0.99706100  0.68400800  1
  H  820  1  0.42739700  0.01683200  0.62553400  1
  H  825  1  0.56841300  0.00064800  0.66892500  1
  H  826  1  0.55132400  0.02055900  0.61143600  1
  H  831  1  0.39157200  0.00264900  0.66982200  1
  H  832  1  0.59866500  0.01314300  0.62339600  1
  H  839  1  0.23619300  0.17748100  0.58932000  1
  H  844  1  0.30131300  0.18808500  0.62650200  1
  H  849  1  0.23525800  0.31052500  0.57841900  1
  H  850  1  0.30000500  0.31245100  0.61678400  1
  H  855  1  0.25972700  0.13979200  0.61537700  1
  H  856  1  0.25981400  0.35169900  0.58282100  1
  H  863  1  0.26271800  0.81204700  0.08769400  1
  H  868  1  0.19727100  0.80246900  0.12472000  1
  H  873  1  0.26382000  0.67885600  0.07867000  1
  H  874  1  0.19873500  0.67782000  0.11674700  1
  H  879  1  0.24092800  0.85089300  0.10953700  1
  H  880  1  0.23927900  0.63782900  0.08343000  1
  H  887  1  0.43979200  0.99992200  0.32250900  1
  H  892  1  0.43646200  0.95775400  0.37477300  1
  H  897  1  0.57247900  0.00314600  0.33395500  1
  H  898  1  0.56077500  0.96145800  0.38574800  1
  H  903  1  0.39694500  0.98447400  0.33504600  1
  H  904  1  0.60707000  0.98120600  0.37420300  1
  H  911  1  0.05870100  0.99023100  0.82278400  1
  H  916  1  0.06200900  0.03232300  0.87508100  1
  H  921  1  0.92596500  0.98745100  0.83399300  1
  H  922  1  0.93763400  0.02903500  0.88583400  1
  H  927  1  0.10156200  0.00550300  0.83541300  1
  H  928  1  0.89133700  0.00938300  0.87421900  1
  H  935  1  0.75370100  0.80817100  0.06531200  1
  H  940  1  0.77577700  0.81738400  0.12334600  1
  H  945  1  0.75596800  0.67637500  0.08070300  1
  H  946  1  0.77807700  0.69344500  0.13777300  1
  H  951  1  0.75992200  0.85312800  0.07939500  1
  H  952  1  0.76937300  0.64609500  0.12599000  1
  H  959  1  0.74474300  0.18191500  0.56544200  1
  H  964  1  0.72261500  0.17276800  0.62347100  1
  H  969  1  0.74255800  0.31372300  0.58077000  1
  H  970  1  0.72037500  0.29671700  0.63783600  1
  H  975  1  0.73846500  0.13698300  0.57953600  1
  H  976  1  0.72910900  0.34404700  0.62603800  1
  H  983  1  0.75517400  0.80578500  0.42494600  1
  H  988  1  0.71356600  0.80858900  0.37243600  1
  H  993  1  0.75636700  0.67273900  0.41519700  1
  H  994  1  0.71543300  0.68384100  0.36302300  1
  H  999  1  0.74124800  0.84857400  0.41157200  1
  H  1000  1  0.73510000  0.63785500  0.37480200  1
  H  1007  1  0.74391100  0.18460700  0.92552400  1
  H  1012  1  0.78336100  0.18153900  0.87215800  1
  H  1017  1  0.74272600  0.31761200  0.91565100  1
  H  1018  1  0.78152200  0.30629700  0.86265200  1
  H  1023  1  0.75692200  0.14167600  0.91170300  1
  H  1024  1  0.76311700  0.35231300  0.87472800  1
  H  1031  1  0.56138300  0.49264600  0.68269600  1
  H  1036  1  0.57142500  0.46959600  0.62493100  1
  H  1041  1  0.43001700  0.49357600  0.66563000  1
  H  1042  1  0.44783800  0.47003000  0.60898200  1
  H  1047  1  0.60644900  0.48499300  0.66934700  1
  H  1048  1  0.40041300  0.47883100  0.62009700  1
  H  1055  1  0.93699800  0.49761300  0.18280600  1
  H  1060  1  0.92699000  0.52056200  0.12501700  1
  H  1065  1  0.06837900  0.49662200  0.16577200  1
  H  1066  1  0.05058500  0.52006900  0.10909700  1
  H  1071  1  0.89194000  0.50518900  0.16942700  1
  H  1072  1  0.09798000  0.51126700  0.12019600  1
  H  1079  1  0.93962200  0.50631700  0.83009200  1
  H  1084  1  0.93870200  0.44268300  0.86943500  1
  H  1089  1  0.07289600  0.50688800  0.84011600  1
  H  1090  1  0.06320000  0.44376300  0.87918900  1
  H  1095  1  0.89848400  0.48271200  0.83590800  1
  H  1096  1  0.10866000  0.47732700  0.87332700  1
  H  1103  1  0.56017400  0.48126500  0.33161100  1
  H  1108  1  0.55897300  0.54883000  0.36734000  1
  H  1113  1  0.42660700  0.48026000  0.33887500  1
  H  1114  1  0.43406200  0.54816500  0.37377100  1
  H  1119  1  0.60066600  0.50644200  0.33646600  1
  H  1120  1  0.38751400  0.50395800  0.36343000  1
  C  1  1  0.17360300  0.42585000  0.86352400  1
  C  2  1  0.14818000  0.43761000  0.86455100  1
  C  3  1  0.13583500  0.44856300  0.84813600  1
  C  4  1  0.14884100  0.44691200  0.83026300  1
  C  5  1  0.17396900  0.43491000  0.82879300  1
  C  6  1  0.18634300  0.42494200  0.84548100  1
  C  10  1  0.18586800  0.41468000  0.88010500  1
  C  11  1  0.18590900  0.42849900  0.89776800  1
  C  12  1  0.19648000  0.41702700  0.91453500  1
  C  13  1  0.20806500  0.39158800  0.91350500  1
  C  14  1  0.20911800  0.37767800  0.89599200  1
  C  15  1  0.19763400  0.38921400  0.87947200  1
  C  23  1  0.32478800  0.56553500  0.36374300  1
  C  24  1  0.35077500  0.55503300  0.36462200  1
  C  25  1  0.36340700  0.54507100  0.34803700  1
  C  26  1  0.35021400  0.54609800  0.33022500  1
  C  27  1  0.32443100  0.55664100  0.32898900  1
  C  28  1  0.31177500  0.56589000  0.34578200  1
  C  32  1  0.31227500  0.57633200  0.38033400  1
  C  33  1  0.31245900  0.56243700  0.39795600  1
  C  34  1  0.30151900  0.57362100  0.41470900  1
  C  35  1  0.28948600  0.59885900  0.41370500  1
  C  36  1  0.28831500  0.61285500  0.39623100  1
  C  37  1  0.30006300  0.60158400  0.37971600  1
  C  45  1  0.82039100  0.91769300  0.11509900  1
  C  46  1  0.80829200  0.89238000  0.11519100  1
  C  47  1  0.79645900  0.88174000  0.09853200  1
  C  48  1  0.79734100  0.89647200  0.08128600  1
  C  49  1  0.80994100  0.92136600  0.08067800  1
  C  50  1  0.82088400  0.93200200  0.09766600  1
  C  54  1  0.83202000  0.92852800  0.13202700  1
  C  55  1  0.81823300  0.92801100  0.14969700  1
  C  56  1  0.82975900  0.93796900  0.16665000  1
  C  57  1  0.85531600  0.94934300  0.16582000  1
  C  58  1  0.86924400  0.95084700  0.14832600  1
  C  59  1  0.85759500  0.94005800  0.13160400  1
  C  67  1  0.67792900  0.07246400  0.61522200  1
  C  68  1  0.69004200  0.09777000  0.61532100  1
  C  69  1  0.70188100  0.10841500  0.59866600  1
  C  70  1  0.70103100  0.09366900  0.58142400  1
  C  71  1  0.68840300  0.06879000  0.58080500  1
  C  72  1  0.67743400  0.05816000  0.59778700  1
  C  76  1  0.66628200  0.06163000  0.63214400  1
  C  77  1  0.68006300  0.06211400  0.64981500  1
  C  78  1  0.66851900  0.05215900  0.66676400  1
  C  79  1  0.64293800  0.04083900  0.66592700  1
  C  80  1  0.62902400  0.03933600  0.64842500  1
  C  81  1  0.64069100  0.05013800  0.63171400  1
  C  89  1  0.33140300  0.43228500  0.63115500  1
  C  90  1  0.35687300  0.44394900  0.62997300  1
  C  91  1  0.36909900  0.45536300  0.64625500  1
  C  92  1  0.35585200  0.45444100  0.66404400  1
  C  93  1  0.33040200  0.44299800  0.66560200  1
  C  94  1  0.31828300  0.43237000  0.64908900  1
  C  98  1  0.31941900  0.42022300  0.61481300  1
  C  99  1  0.31906000  0.43341400  0.59692700  1
  C  100  1  0.30807100  0.42133500  0.58047300  1
  C  101  1  0.29627500  0.39613500  0.58204700  1
  C  102  1  0.29629300  0.38251200  0.59977300  1
  C  103  1  0.30817200  0.39456500  0.61589900  1
  C  111  1  0.16712500  0.55763000  0.13129000  1
  C  112  1  0.14164300  0.54599100  0.13009600  1
  C  113  1  0.12941500  0.53454400  0.14636300  1
  C  114  1  0.14268700  0.53537000  0.16414500  1
  C  115  1  0.16815100  0.54678100  0.16571300  1
  C  116  1  0.18026100  0.55746700  0.14921700  1
  C  120  1  0.17909300  0.56974600  0.11496500  1
  C  121  1  0.17944200  0.55660700  0.09706000  1
  C  122  1  0.19041000  0.56873800  0.08062000  1
  C  123  1  0.20217400  0.59394600  0.08222700  1
  C  124  1  0.20221500  0.60749800  0.09998100  1
  C  125  1  0.19034200  0.59540300  0.11609300  1
  C  133  1  0.68054900  0.91458400  0.38031200  1
  C  134  1  0.69106600  0.88858100  0.37942500  1
  C  135  1  0.70232100  0.87633500  0.39569700  1
  C  136  1  0.70201400  0.88996000  0.41340400  1
  C  137  1  0.69122300  0.91570600  0.41477200  1
  C  138  1  0.68114300  0.92798300  0.39814600  1
  C  142  1  0.66925700  0.92688900  0.36377500  1
  C  143  1  0.68221200  0.92569600  0.34581300  1
  C  144  1  0.67082000  0.93695100  0.32918100  1
  C  145  1  0.64654300  0.95059500  0.33066600  1
  C  146  1  0.63338000  0.95259700  0.34846200  1
  C  147  1  0.64467600  0.94032200  0.36478600  1
  C  155  1  0.81786600  0.07596400  0.88034900  1
  C  156  1  0.80725700  0.10193400  0.87948500  1
  C  157  1  0.79596700  0.11411700  0.89576900  1
  C  158  1  0.79631400  0.10045900  0.91346400  1
  C  159  1  0.80719200  0.07474900  0.91480700  1
  C  160  1  0.81730500  0.06253200  0.89817100  1
  C  164  1  0.82918400  0.06371200  0.86380000  1
  C  165  1  0.81622900  0.06490300  0.84584000  1
  C  166  1  0.82762600  0.05365500  0.82920700  1
  C  167  1  0.85190900  0.04002000  0.83069100  1
  C  168  1  0.86506900  0.03800600  0.84849000  1
  C  169  1  0.85377600  0.05030000  0.86480500  1
  C  177  1  0.82760100  0.56606800  0.13367600  1
  C  178  1  0.85279900  0.55374900  0.13354700  1
  C  179  1  0.86333100  0.54172600  0.15017000  1
  C  180  1  0.84856400  0.54255600  0.16740500  1
  C  181  1  0.82378600  0.55538400  0.16805600  1
  C  182  1  0.81327600  0.56655400  0.15110100  1
  C  186  1  0.81690300  0.57795300  0.11680000  1
  C  187  1  0.81723600  0.56431400  0.09906900  1
  C  188  1  0.80737400  0.57610200  0.08217800  1
  C  189  1  0.79631200  0.60178800  0.08313600  1
  C  190  1  0.79497800  0.61557200  0.10070000  1
  C  191  1  0.80568000  0.60365500  0.11735100  1
  C  199  1  0.67075100  0.42398700  0.63369000  1
  C  200  1  0.64556400  0.43633100  0.63353800  1
  C  201  1  0.63501500  0.44836500  0.65015100  1
  C  202  1  0.64973400  0.44749700  0.66740500  1
  C  203  1  0.67451200  0.43466700  0.66807200  1
  C  204  1  0.68504600  0.42349300  0.65112700  1
  C  208  1  0.68148200  0.41211200  0.61682000  1
  C  209  1  0.68116700  0.42575500  0.59908900  1
  C  210  1  0.69106800  0.41398300  0.58220800  1
  C  211  1  0.70216200  0.38831000  0.58317100  1
  C  212  1  0.70347000  0.37451900  0.60073300  1
  C  213  1  0.69272700  0.38642000  0.61737500  1
  C  221  1  0.17970400  0.07670700  0.88308800  1
  C  222  1  0.19231900  0.10174300  0.88329300  1
  C  223  1  0.20491400  0.11147100  0.89996300  1
  C  224  1  0.20442900  0.09600900  0.91689300  1
  C  225  1  0.19145100  0.07128300  0.91719200  1
  C  226  1  0.17974300  0.06160800  0.90016500  1
  C  230  1  0.16690400  0.06688300  0.86629000  1
  C  231  1  0.17993100  0.06716100  0.84831200  1
  C  232  1  0.16748500  0.05733200  0.83165200  1
  C  233  1  0.14188200  0.04618400  0.83312900  1
  C  234  1  0.12857500  0.04530000  0.85094500  1
  C  235  1  0.14101000  0.05615200  0.86726600  1
  C  243  1  0.31889800  0.91335100  0.38292200  1
  C  244  1  0.30619000  0.88836100  0.38316300  1
  C  245  1  0.29361400  0.87869400  0.39985900  1
  C  246  1  0.29418700  0.89418900  0.41677300  1
  C  247  1  0.30727100  0.91885700  0.41703900  1
  C  248  1  0.31896300  0.92847000  0.39998900  1
  C  252  1  0.33165700  0.92313500  0.36609300  1
  C  253  1  0.31856300  0.92287200  0.34814400  1
  C  254  1  0.33094300  0.93272100  0.33146300  1
  C  255  1  0.35655800  0.94385500  0.33289000  1
  C  256  1  0.36993700  0.94471500  0.35067900  1
  C  257  1  0.35755700  0.93386100  0.36702100  1
  C  265  1  0.66950400  0.56372000  0.36854400  1
  C  266  1  0.64322600  0.55393200  0.36938100  1
  C  267  1  0.63070500  0.54316400  0.35305100  1
  C  268  1  0.64443100  0.54307700  0.33538100  1
  C  269  1  0.67047700  0.55314500  0.33407800  1
  C  270  1  0.68295900  0.56285600  0.35074400  1
  C  274  1  0.68188300  0.57487700  0.38507400  1
  C  275  1  0.68078100  0.56178200  0.40297400  1
  C  276  1  0.69190900  0.57317300  0.41965200  1
  C  277  1  0.70527000  0.59762800  0.41826100  1
  C  278  1  0.70714300  0.61095400  0.40051300  1
  C  279  1  0.69503800  0.59959800  0.38414100  1
  C  287  1  0.82893000  0.42630900  0.86841100  1
  C  288  1  0.85522500  0.43605200  0.86926800  1
  C  289  1  0.86782500  0.44673200  0.85293800  1
  C  290  1  0.85414300  0.44680700  0.83525100  1
  C  291  1  0.82806400  0.43681300  0.83393300  1
  C  292  1  0.81552600  0.42715400  0.85059100  1
  C  296  1  0.81648700  0.41523700  0.88494700  1
  C  297  1  0.81759700  0.42838000  0.90283000  1
  C  298  1  0.80641500  0.41706600  0.91951600  1
  C  299  1  0.79299800  0.39264100  0.91815100  1
  C  300  1  0.79109800  0.37927700  0.90041900  1
  C  301  1  0.80325200  0.39055400  0.88403700  1
  C  309  1  0.31977200  0.07709700  0.61525000  1
  C  310  1  0.30998200  0.10334500  0.61630100  1
  C  311  1  0.30121200  0.11674900  0.59970800  1
  C  312  1  0.30287700  0.10409200  0.58173800  1
  C  313  1  0.31243700  0.07784500  0.58030800  1
  C  314  1  0.32056200  0.06452900  0.59710800  1
  C  318  1  0.32875900  0.06375300  0.63205900  1
  C  319  1  0.31330100  0.06388000  0.64896400  1
  C  320  1  0.32251100  0.05202400  0.66607800  1
  C  321  1  0.34712300  0.03882200  0.66603700  1
  C  322  1  0.36293900  0.03821800  0.64928700  1
  C  323  1  0.35367400  0.05091000  0.63252700  1
  C  331  1  0.17800600  0.91319500  0.11540000  1
  C  332  1  0.18724300  0.88676300  0.11653800  1
  C  333  1  0.19608100  0.87325100  0.10003600  1
  C  334  1  0.19503400  0.88593500  0.08204400  1
  C  335  1  0.18587200  0.91232100  0.08052100  1
  C  336  1  0.17766700  0.92576500  0.09725200  1
  C  340  1  0.16912700  0.92669100  0.13215800  1
  C  341  1  0.18458200  0.92647700  0.14906100  1
  C  342  1  0.17543300  0.93838500  0.16617100  1
  C  343  1  0.15089700  0.95173300  0.16611600  1
  C  344  1  0.13508100  0.95238900  0.14936400  1
  C  345  1  0.14429500  0.93967400  0.13259900  1
  C  353  1  0.21244300  0.41778600  0.78735000  1
  C  354  1  0.23476400  0.40133700  0.78455900  1
  C  356  1  0.24821500  0.42584000  0.75693900  1
  C  357  1  0.22579300  0.44272900  0.75851400  1
  C  358  1  0.20802800  0.43833900  0.77389300  1
  C  360  1  0.26708800  0.42997600  0.74233300  1
  C  361  1  0.30787100  0.41720100  0.72760000  1
  C  362  1  0.30551700  0.43734400  0.71366300  1
  C  363  1  0.28317800  0.45423500  0.71456300  1
  C  366  1  0.26365500  0.45090000  0.72891500  1
  C  367  1  0.24113400  0.46748300  0.73035600  1
  C  368  1  0.22237800  0.46346400  0.74506900  1
  C  373  1  0.19699300  0.41450600  0.80359800  1
  C  374  1  0.32431600  0.43981100  0.69940500  1
  C  377  1  0.28556200  0.57293300  0.28759400  1
  C  378  1  0.26326500  0.58935000  0.28463000  1
  C  380  1  0.24993500  0.56448100  0.25715600  1
  C  381  1  0.27232500  0.54758600  0.25890900  1
  C  382  1  0.29002100  0.55218200  0.27429800  1
  C  384  1  0.23114200  0.56018400  0.24252400  1
  C  385  1  0.19047400  0.57286400  0.22759500  1
  C  386  1  0.19286700  0.55254200  0.21379800  1
  C  387  1  0.21516600  0.53562000  0.21486400  1
  C  390  1  0.23461600  0.53909200  0.22925500  1
  C  391  1  0.25709900  0.52249000  0.23087500  1
  C  392  1  0.27578000  0.52666800  0.24561700  1
  C  397  1  0.30097800  0.57648300  0.30382900  1
  C  398  1  0.17413600  0.54996000  0.19951400  1
  C  401  1  0.82746800  0.96133500  0.03983600  1
  C  402  1  0.84590500  0.98172300  0.03597100  1
  C  404  1  0.82175000  0.99585800  0.00836100  1
  C  405  1  0.80269900  0.97548100  0.01108900  1
  C  406  1  0.80595300  0.95831600  0.02696300  1
  C  408  1  0.81905300  0.01395100  0.99307200  1
  C  409  1  0.83550000  0.05192000  0.97643400  1
  C  410  1  0.81461000  0.05078100  0.96299200  1
  C  411  1  0.79549000  0.03049000  0.96512000  1
  C  414  1  0.79734400  0.01180200  0.98017800  1
  C  415  1  0.77852300  0.99134700  0.98282400  1
  C  416  1  0.78116500  0.97334000  0.99817500  1
  C  421  1  0.83035700  0.94597800  0.05620700  1
  C  422  1  0.81332400  0.06896800  0.94822500  1
  C  425  1  0.67090900  0.02883900  0.53994300  1
  C  426  1  0.65253200  0.00839500  0.53608400  1
  C  428  1  0.67665100  0.99440500  0.50841900  1
  C  429  1  0.69564000  0.01484400  0.51114100  1
  C  430  1  0.69237600  0.03196000  0.52704100  1
  C  432  1  0.67936600  0.97635500  0.49310700  1
  C  433  1  0.66300200  0.93836000  0.47645800  1
  C  434  1  0.68384900  0.93959400  0.46298500  1
  C  435  1  0.70290200  0.95995100  0.46510000  1
  C  438  1  0.70102700  0.97860600  0.48018000  1
  C  439  1  0.71978500  0.99912200  0.48281800  1
  C  440  1  0.71712700  0.01708600  0.49819300  1
  C  445  1  0.66801200  0.04414700  0.55633600  1
  C  446  1  0.68515900  0.92142700  0.44820300  1
  C  449  1  0.78369200  0.57288800  0.20885800  1
  C  450  1  0.76328100  0.59131800  0.21267700  1
  C  452  1  0.74918300  0.56728700  0.24035100  1
  C  453  1  0.76956800  0.54823200  0.23766000  1
  C  454  1  0.78672000  0.55142300  0.22177200  1
  C  456  1  0.73112900  0.56467700  0.25567200  1
  C  457  1  0.69322700  0.58124700  0.27232100  1
  C  458  1  0.69441600  0.56046200  0.28584800  1
  C  459  1  0.71468700  0.54131500  0.28374300  1
  C  462  1  0.73331800  0.54305500  0.26863900  1
  C  463  1  0.75376700  0.52421800  0.26602000  1
  C  464  1  0.77173600  0.52677100  0.25063700  1
  C  469  1  0.79906900  0.57575700  0.19249800  1
  C  470  1  0.67627400  0.55931200  0.30065700  1
  C  473  1  0.71453500  0.41713000  0.70889400  1
  C  474  1  0.73493600  0.39868100  0.71269700  1
  C  476  1  0.74914900  0.42274200  0.74032400  1
  C  477  1  0.72877600  0.44181500  0.73765200  1
  C  478  1  0.71157000  0.43861800  0.72179400  1
  C  480  1  0.76726100  0.42536200  0.75560700  1
  C  481  1  0.80520800  0.40878400  0.77220000  1
  C  482  1  0.80408500  0.42959300  0.78570900  1
  C  483  1  0.78382700  0.44875700  0.78362600  1
  C  486  1  0.76514000  0.44700900  0.76855800  1
  C  487  1  0.74470000  0.46586000  0.76596100  1
  C  488  1  0.72667500  0.46330000  0.75061200  1
  C  493  1  0.69912600  0.41426800  0.69254900  1
  C  494  1  0.82226200  0.43073700  0.80049400  1
  C  497  1  0.17323200  0.02957500  0.95690900  1
  C  498  1  0.15587100  0.00779800  0.95898500  1
  C  500  1  0.17766700  0.99351900  0.98755700  1
  C  501  1  0.19559400  0.01519500  0.98658700  1
  C  502  1  0.19305900  0.03309000  0.97105600  1
  C  504  1  0.17958800  0.97484900  0.00254500  1
  C  505  1  0.16341900  0.93525600  0.01725800  1
  C  506  1  0.18228600  0.93708500  0.03214900  1
  C  507  1  0.20035200  0.95852600  0.03169800  1
  C  510  1  0.19934800  0.97770800  0.01691900  1
  C  511  1  0.21709500  0.99938000  0.01598900  1
  C  512  1  0.21525900  0.01795100  0.00092500  1
  C  517  1  0.17076000  0.04601500  0.94109800  1
  C  518  1  0.18276000  0.91840100  0.04663500  1
  C  521  1  0.32559400  0.96060300  0.45670900  1
  C  522  1  0.34286400  0.98245900  0.45875000  1
  C  524  1  0.32114900  0.99659100  0.48739100  1
  C  525  1  0.30332300  0.97482900  0.48645700  1
  C  526  1  0.30586300  0.95696900  0.47090900  1
  C  528  1  0.31920500  0.01524200  0.50238700  1
  C  529  1  0.33522800  0.05491900  0.51706300  1
  C  530  1  0.31642600  0.05299000  0.53199000  1
  C  531  1  0.29847100  0.03145500  0.53157900  1
  C  534  1  0.29952000  0.01227500  0.51680400  1
  C  535  1  0.28187800  0.99051700  0.51591400  1
  C  536  1  0.28373900  0.97196100  0.50084200  1
  C  541  1  0.32803800  0.94421400  0.44087400  1
  C  542  1  0.31585600  0.07169900  0.54645300  1
  C  545  1  0.70849800  0.91793300  0.28779500  1
  C  546  1  0.73059900  0.90103800  0.28556800  1
  C  548  1  0.74462700  0.92388500  0.25735900  1
  C  549  1  0.72244400  0.94117400  0.25837400  1
  C  550  1  0.70450100  0.93787000  0.27379800  1
  C  552  1  0.76368200  0.92695800  0.24273400  1
  C  553  1  0.80450900  0.91295300  0.22865700  1
  C  554  1  0.80264200  0.93242200  0.21418300  1
  C  555  1  0.78045200  0.94956300  0.21444400  1
  C  558  1  0.76067500  0.94719500  0.22872500  1
  C  559  1  0.73836400  0.96413700  0.22958500  1
  C  560  1  0.71943200  0.96119000  0.24431900  1
  C  565  1  0.69271700  0.91549200  0.30393700  1
  C  566  1  0.82200200  0.93427900  0.20024600  1
  C  569  1  0.78985700  0.07255900  0.78782600  1
  C  570  1  0.76774000  0.08943100  0.78558200  1
  C  572  1  0.75370700  0.06649400  0.75741300  1
  C  573  1  0.77590500  0.04922700  0.75844400  1
  C  574  1  0.79385900  0.05258800  0.77385500  1
  C  576  1  0.73464000  0.06335900  0.74280400  1
  C  577  1  0.69377700  0.07727700  0.72873300  1
  C  578  1  0.69564400  0.05776600  0.71428900  1
  C  579  1  0.71785400  0.04065000  0.71456100  1
  C  582  1  0.73764700  0.04308200  0.72882600  1
  C  583  1  0.75997800  0.02616600  0.72969800  1
  C  584  1  0.77892200  0.02917200  0.74441700  1
  C  589  1  0.80563200  0.07504800  0.80396900  1
  C  590  1  0.67627000  0.05584800  0.70036700  1
  C  593  1  0.32549900  0.45775500  0.53821100  1
  C  594  1  0.34256800  0.47947100  0.53496700  1
  C  596  1  0.31862200  0.49226200  0.50693400  1
  C  597  1  0.30111700  0.47039100  0.50897200  1
  C  598  1  0.30491400  0.45324600  0.52479700  1
  C  600  1  0.31508500  0.51057000  0.49188100  1
  C  601  1  0.32888600  0.55047500  0.47641600  1
  C  602  1  0.30867400  0.54816900  0.46252500  1
  C  603  1  0.29130100  0.52623000  0.46377100  1
  C  606  1  0.29414100  0.50713300  0.47848000  1
  C  607  1  0.27698500  0.48510800  0.48035800  1
  C  608  1  0.28041300  0.46690500  0.49551000  1
  C  613  1  0.32848200  0.44274300  0.55467300  1
  C  614  1  0.30634300  0.56691000  0.44820700  1
  C  617  1  0.17283300  0.53253200  0.03828300  1
  C  618  1  0.15556000  0.51100600  0.03494100  1
  C  620  1  0.17947600  0.49813200  0.00691200  1
  C  621  1  0.19719200  0.51981500  0.00905100  1
  C  622  1  0.19350800  0.53690800  0.02491900  1
  C  624  1  0.18289100  0.47986800  0.99181400  1
  C  625  1  0.16876700  0.44018000  0.97621000  1
  C  626  1  0.18907400  0.44234000  0.96237600  1
  C  627  1  0.20664800  0.46410600  0.96372300  1
  C  630  1  0.20392500  0.48316300  0.97847300  1
  C  631  1  0.22128800  0.50501100  0.98044400  1
  C  632  1  0.21798000  0.52316800  0.99564000  1
  C  637  1  0.16993000  0.54749300  0.05478200  1
  C  638  1  0.19127600  0.42363800  0.94801400  1
  C  641  1  0.28074600  0.07041900  0.70579700  1
  C  642  1  0.25886900  0.08757300  0.70818000  1
  C  644  1  0.24612400  0.06623900  0.73731700  1
  C  645  1  0.26794400  0.04853000  0.73603400  1
  C  646  1  0.28511600  0.05094600  0.72007700  1
  C  648  1  0.22815900  0.06442000  0.75275400  1
  C  649  1  0.18902500  0.08040100  0.76818300  1
  C  650  1  0.19166400  0.06179000  0.78318300  1
  C  651  1  0.21330900  0.04398800  0.78243900  1
  C  654  1  0.23186300  0.04496400  0.76724700  1
  C  655  1  0.25368100  0.02743800  0.76599800  1
  C  656  1  0.27156400  0.02918800  0.75050200  1
  C  661  1  0.29660400  0.07283000  0.68967200  1
  C  662  1  0.17339200  0.06116500  0.79794100  1
  C  665  1  0.21713000  0.91975400  0.20585900  1
  C  666  1  0.23908500  0.90267100  0.20813600  1
  C  668  1  0.25185300  0.92385900  0.23732100  1
  C  669  1  0.22995100  0.94148100  0.23615000  1
  C  670  1  0.21272900  0.93910500  0.22022000  1
  C  672  1  0.26988200  0.92566400  0.25272200  1
  C  673  1  0.30917700  0.90979000  0.26799100  1
  C  674  1  0.30653100  0.92830400  0.28305300  1
  C  675  1  0.28479100  0.94599900  0.28242500  1
  C  678  1  0.26616000  0.94501700  0.26728300  1
  C  679  1  0.24425100  0.96244400  0.26615100  1
  C  680  1  0.22630400  0.96071000  0.25069300  1
  C  685  1  0.20124400  0.91742000  0.18974700  1
  C  686  1  0.32488700  0.92894400  0.29775800  1
  C  689  1  0.67283400  0.53506700  0.46086400  1
  C  690  1  0.65563000  0.51320800  0.46312900  1
  C  692  1  0.67837900  0.49882200  0.49128200  1
  C  693  1  0.69601100  0.52073000  0.49022000  1
  C  694  1  0.69290900  0.53872900  0.47480500  1
  C  696  1  0.68118900  0.47975100  0.50592700  1
  C  697  1  0.66653400  0.43922100  0.52011300  1
  C  698  1  0.68605200  0.44083000  0.53456800  1
  C  699  1  0.70357400  0.46271700  0.53422800  1
  C  702  1  0.70150800  0.48246800  0.51990300  1
  C  703  1  0.71881400  0.50449400  0.51898300  1
  C  704  1  0.71612800  0.52344000  0.50423200  1
  C  709  1  0.67047900  0.55094300  0.44475400  1
  C  710  1  0.68760400  0.42152900  0.54856900  1
  C  713  1  0.82550400  0.45518200  0.96072800  1
  C  714  1  0.84277700  0.47697600  0.96304100  1
  C  716  1  0.82001000  0.49138200  0.99118100  1
  C  717  1  0.80230500  0.46953900  0.99007000  1
  C  718  1  0.80538100  0.45156000  0.97464100  1
  C  720  1  0.81723400  0.51042900  0.00584500  1
  C  721  1  0.83200200  0.55087400  0.02009900  1
  C  722  1  0.81244400  0.54930000  0.03452700  1
  C  723  1  0.79484300  0.52747700  0.03413900  1
  C  726  1  0.79687100  0.50775200  0.01979400  1
  C  727  1  0.77948800  0.48579100  0.01882400  1
  C  728  1  0.78214400  0.46686900  0.00405300  1
  C  733  1  0.82785200  0.43931800  0.94461000  1
  C  734  1  0.81092600  0.56857900  0.04854500  1
  C  737  1  0.23635600  0.17561800  0.90509500  1
  C  738  1  0.23164900  0.18678500  0.88678100  1
  C  740  1  0.24065200  0.23048600  0.89814900  1
  C  741  1  0.24663700  0.22065200  0.91676000  1
  C  742  1  0.24451100  0.19301200  0.91991200  1
  C  744  1  0.24058700  0.25799300  0.89456500  1
  C  745  1  0.23138100  0.29352500  0.87290200  1
  C  746  1  0.23592800  0.31265500  0.88731700  1
  C  747  1  0.24415800  0.30354700  0.90559900  1
  C  750  1  0.24648900  0.27614000  0.90956000  1
  C  751  1  0.25342100  0.26626300  0.92789900  1
  C  752  1  0.25349000  0.23874800  0.93146800  1
  C  757  1  0.23171800  0.14898800  0.90892800  1
  C  758  1  0.23049600  0.33907100  0.88366200  1
  C  761  1  0.26172700  0.81479000  0.40512300  1
  C  762  1  0.26620200  0.80354000  0.38680600  1
  C  764  1  0.25698800  0.75993400  0.39828100  1
  C  765  1  0.25123900  0.76986300  0.41690500  1
  C  766  1  0.25358200  0.79749700  0.42000400  1
  C  768  1  0.25684000  0.73241500  0.39474300  1
  C  769  1  0.26567200  0.69675800  0.37310800  1
  C  770  1  0.26113800  0.67770100  0.38757800  1
  C  771  1  0.25310600  0.68691800  0.40587700  1
  C  774  1  0.25096200  0.71435300  0.40979600  1
  C  775  1  0.24425900  0.72433300  0.42815100  1
  C  776  1  0.24439800  0.75185800  0.43167500  1
  C  781  1  0.26656400  0.84140000  0.40889200  1
  C  782  1  0.26652500  0.65126200  0.38397200  1
  C  785  1  0.07100400  0.98346700  0.15543800  1
  C  786  1  0.05950200  0.97924600  0.13717100  1
  C  788  1  0.01586600  0.98636100  0.14934800  1
  C  789  1  0.02602800  0.99186600  0.16794500  1
  C  790  1  0.05379700  0.99046300  0.17067000  1
  C  792  1  0.98827700  0.98549900  0.14616600  1
  C  793  1  0.95245200  0.97599000  0.12483200  1
  C  794  1  0.93360100  0.97929400  0.13961400  1
  C  795  1  0.94295900  0.98703300  0.15793900  1
  C  798  1  0.97038400  0.99012800  0.16155100  1
  C  799  1  0.98055200  0.99663100  0.17988700  1
  C  800  1  0.00814600  0.99748300  0.18306000  1
  C  805  1  0.09778400  0.97917100  0.15885000  1
  C  806  1  0.90723900  0.97337200  0.13617200  1
  C  809  1  0.42711600  0.00729000  0.65537500  1
  C  810  1  0.43866600  0.01166100  0.63714300  1
  C  812  1  0.48226400  0.00431200  0.64932000  1
  C  813  1  0.47205500  0.99866200  0.66788100  1
  C  814  1  0.44428400  0.00011000  0.67058600  1
  C  816  1  0.50986000  0.00510600  0.64616300  1
  C  817  1  0.54574900  0.01464800  0.62489100  1
  C  818  1  0.56457200  0.01113800  0.63966800  1
  C  819  1  0.55516200  0.00328900  0.65795400  1
  C  822  1  0.52772000  0.00027000  0.66153400  1
  C  823  1  0.51750200  0.99363400  0.67983200  1
  C  824  1  0.48990000  0.99284300  0.68298000  1
  C  829  1  0.40031800  0.01154500  0.65877100  1
  C  830  1  0.59096400  0.01695600  0.63625700  1
  C  833  1  0.26893300  0.17827400  0.60821700  1
  C  834  1  0.28629500  0.19534500  0.61815300  1
  C  836  1  0.26511200  0.23352800  0.60497500  1
  C  837  1  0.24661000  0.21748300  0.59489900  1
  C  838  1  0.24873800  0.18962600  0.59682400  1
  C  840  1  0.26486200  0.26127900  0.60273000  1
  C  841  1  0.28512600  0.30289500  0.60963100  1
  C  842  1  0.26778300  0.31656300  0.59709100  1
  C  843  1  0.24802900  0.30134700  0.58771800  1
  C  846  1  0.24624500  0.27356400  0.59030600  1
  C  847  1  0.22737800  0.25760700  0.58068300  1
  C  848  1  0.22753300  0.22981800  0.58298000  1
  C  853  1  0.27285500  0.15132700  0.60875100  1
  C  854  1  0.27079500  0.34344800  0.59307100  1
  C  857  1  0.22971100  0.81186300  0.10635900  1
  C  858  1  0.21236200  0.79501200  0.11653800  1
  C  860  1  0.23375800  0.75647000  0.10412100  1
  C  861  1  0.25233100  0.77224700  0.09389700  1
  C  862  1  0.25011300  0.80014500  0.09535100  1
  C  864  1  0.23404900  0.72865900  0.10226800  1
  C  865  1  0.21369200  0.68721000  0.10956500  1
  C  866  1  0.23111600  0.67325800  0.09724900  1
  C  867  1  0.25098900  0.68824200  0.08781500  1
  C  870  1  0.25277700  0.71607500  0.09009000  1
  C  871  1  0.27174100  0.73178300  0.08035200  1
  C  872  1  0.27155100  0.75962100  0.08226600  1
  C  877  1  0.22589400  0.83890900  0.10630800  1
  C  878  1  0.22806600  0.64631500  0.09344800  1
  C  881  1  0.43324200  0.97822000  0.34805600  1
  C  882  1  0.44639500  0.96817400  0.36444800  1
  C  884  1  0.48825500  0.98422800  0.35353300  1
  C  885  1  0.47635600  0.99564200  0.33701200  1
  C  886  1  0.44867200  0.99254800  0.33460800  1
  C  888  1  0.51597000  0.98509300  0.35598800  1
  C  889  1  0.55381900  0.97159800  0.37406900  1
  C  890  1  0.57121300  0.98226800  0.36022900  1
  C  891  1  0.56014300  0.99553500  0.34424900  1
  C  894  1  0.53232400  0.99719700  0.34187700  1
  C  895  1  0.52033000  0.00944200  0.32579800  1
  C  896  1  0.49257500  0.00872400  0.32340900  1
  C  901  1  0.40656900  0.97331500  0.34454900  1
  C  902  1  0.59798500  0.97741500  0.36182200  1
  C  905  1  0.06524200  0.01187500  0.84835800  1
  C  906  1  0.05207100  0.02194900  0.86473300  1
  C  908  1  0.01019000  0.00606500  0.85373000  1
  C  909  1  0.02210300  0.99462700  0.83722500  1
  C  910  1  0.04980600  0.99761900  0.83487300  1
  C  912  1  0.98246300  0.00529900  0.85613400  1
  C  913  1  0.94459800  0.01889500  0.87415700  1
  C  914  1  0.92721400  0.00829600  0.86028000  1
  C  915  1  0.93829200  0.99501700  0.84431000  1
  C  918  1  0.96611500  0.99326900  0.84198400  1
  C  919  1  0.97812100  0.98100000  0.82592000  1
  C  920  1  0.00588500  0.98162000  0.82358200  1
  C  925  1  0.09193700  0.01670400  0.84489100  1
  C  926  1  0.90044600  0.01319000  0.86185000  1
  C  929  1  0.76512200  0.81760800  0.09370800  1
  C  930  1  0.77004100  0.80611200  0.11187900  1
  C  932  1  0.76161100  0.76255600  0.09998300  1
  C  933  1  0.75544500  0.77273800  0.08150100  1
  C  934  1  0.75716300  0.80046800  0.07868800  1
  C  936  1  0.76209000  0.73496900  0.10320900  1
  C  937  1  0.77181700  0.69905100  0.12440800  1
  C  938  1  0.76750100  0.68021800  0.10975300  1
  C  939  1  0.75917500  0.68964300  0.09158500  1
  C  942  1  0.75645200  0.71710500  0.08798100  1
  C  943  1  0.74934500  0.72731900  0.06977600  1
  C  944  1  0.74884400  0.75491000  0.06656300  1
  C  949  1  0.76945300  0.84433700  0.09015300  1
  C  950  1  0.77307700  0.65377300  0.11310600  1
  C  953  1  0.73329100  0.17251000  0.59383800  1
  C  954  1  0.72836800  0.18402600  0.61200300  1
  C  956  1  0.73684800  0.22756600  0.60009000  1
  C  957  1  0.74301700  0.21736200  0.58161500  1
  C  958  1  0.74127700  0.18963100  0.57881400  1
  C  960  1  0.73639400  0.25515500  0.60330600  1
  C  961  1  0.72670700  0.29110100  0.62449000  1
  C  962  1  0.73101000  0.30991400  0.60981900  1
  C  963  1  0.73934700  0.30046700  0.59166000  1
  C  966  1  0.74205800  0.27300100  0.58807200  1
  C  967  1  0.74916900  0.26276500  0.56987400  1
  C  968  1  0.74964800  0.23517100  0.56667200  1
  C  973  1  0.72894300  0.14578200  0.59029500  1
  C  974  1  0.72542700  0.33636300  0.61315200  1
  C  977  1  0.73390900  0.81210700  0.39917500  1
  C  978  1  0.72361400  0.79870200  0.38297700  1
  C  980  1  0.73854200  0.75678900  0.39463000  1
  C  981  1  0.75006100  0.76890000  0.41103100  1
  C  982  1  0.74765100  0.79672000  0.41296700  1
  C  984  1  0.73897100  0.72900000  0.39254200  1
  C  985  1  0.72543300  0.69093000  0.37472500  1
  C  986  1  0.73581700  0.67369000  0.38878400  1
  C  987  1  0.74888000  0.68495100  0.40478000  1
  C  990  1  0.75072300  0.71279900  0.40690300  1
  C  991  1  0.76293400  0.72498100  0.42291900  1
  C  992  1  0.76265900  0.75280000  0.42494400  1
  C  997  1  0.72982300  0.83902800  0.40219300  1
  C  998  1  0.73122800  0.64685800  0.38720000  1
  C  1001  1  0.76410600  0.17817300  0.89932200  1
  C  1002  1  0.77376500  0.19149300  0.88288400  1
  C  1004  1  0.75940100  0.23347800  0.89478100  1
  C  1005  1  0.74852700  0.22143900  0.91144100  1
  C  1006  1  0.75095200  0.19362200  0.91337300  1
  C  1008  1  0.75897300  0.26126300  0.89267100  1
  C  1009  1  0.77194600  0.29926600  0.87455500  1
  C  1010  1  0.76221500  0.31656700  0.88881900  1
  C  1011  1  0.74973400  0.30536400  0.90508100  1
  C  1014  1  0.74786700  0.27752800  0.90726200  1
  C  1015  1  0.73627500  0.26541900  0.92354600  1
  C  1016  1  0.73654900  0.23760800  0.92559800  1
  C  1021  1  0.76827900  0.15126700  0.90230600  1
  C  1022  1  0.76692200  0.34338500  0.88716700  1
  C  1025  1  0.57122100  0.48060500  0.65450700  1
  C  1026  1  0.56003400  0.47574800  0.63622100  1
  C  1028  1  0.51643400  0.48548000  0.64748500  1
  C  1029  1  0.52632100  0.49160800  0.66605900  1
  C  1030  1  0.55392200  0.48919000  0.66924800  1
  C  1032  1  0.48892800  0.48569400  0.64389600  1
  C  1033  1  0.45327000  0.47649300  0.62233500  1
  C  1034  1  0.43420700  0.48145500  0.63672500  1
  C  1035  1  0.44343200  0.48992900  0.65491900  1
  C  1038  1  0.47086000  0.49202600  0.65884700  1
  C  1039  1  0.48080500  0.49909500  0.67713800  1
  C  1040  1  0.50831200  0.49887900  0.68071600  1
  C  1045  1  0.59777500  0.47574900  0.65841000  1
  C  1046  1  0.40774200  0.47606500  0.63320600  1
  C  1049  1  0.92717400  0.50960100  0.15460100  1
  C  1050  1  0.93837500  0.51444000  0.13631800  1
  C  1052  1  0.98197100  0.50474900  0.14760900  1
  C  1053  1  0.97207200  0.49864900  0.16618500  1
  C  1054  1  0.94446800  0.50105500  0.16935900  1
  C  1056  1  0.00947800  0.50452300  0.14402700  1
  C  1057  1  0.04514600  0.51364800  0.12245800  1
  C  1058  1  0.06420600  0.50868700  0.13685200  1
  C  1059  1  0.05496800  0.50026800  0.15505600  1
  C  1062  1  0.02753800  0.49820900  0.15898700  1
  C  1063  1  0.01758300  0.49118200  0.17728400  1
  C  1064  1  0.99007500  0.49140800  0.18085400  1
  C  1069  1  0.90061000  0.51442400  0.15848600  1
  C  1070  1  0.09068200  0.51401200  0.13331700  1
  C  1073  1  0.93409300  0.47431500  0.84931900  1
  C  1074  1  0.94809200  0.45730500  0.86189900  1
  C  1076  1  0.98948600  0.47756900  0.85426000  1
  C  1077  1  0.97688000  0.49571400  0.84164700  1
  C  1078  1  0.94905500  0.49377400  0.83942000  1
  C  1080  1  0.01725800  0.47775500  0.85639100  1
  C  1081  1  0.05573200  0.45812900  0.87034500  1
  C  1082  1  0.07253300  0.47524400  0.85996500  1
  C  1083  1  0.06091600  0.49443000  0.84782700  1
  C  1086  1  0.03302100  0.49603100  0.84586300  1
  C  1087  1  0.02036000  0.51452700  0.83365100  1
  C  1088  1  0.99253600  0.51439700  0.83158100  1
  C  1093  1  0.90706300  0.47141300  0.84583600  1
  C  1094  1  0.09948900  0.47198200  0.86129500  1
  C  1097  1  0.56465500  0.51521100  0.34915600  1
  C  1098  1  0.55001400  0.53334700  0.36046000  1
  C  1100  1  0.50910500  0.51196500  0.35304800  1
  C  1101  1  0.52237300  0.49265600  0.34176500  1
  C  1102  1  0.55026100  0.49464200  0.34002500  1
  C  1104  1  0.48125100  0.51178900  0.35452600  1
  C  1105  1  0.44202300  0.53283900  0.36607800  1
  C  1106  1  0.42578400  0.51434300  0.35647500  1
  C  1107  1  0.43811700  0.49369100  0.34609100  1
  C  1110  1  0.46609200  0.49220000  0.34480900  1
  C  1111  1  0.47940200  0.47258100  0.33394900  1
  C  1112  1  0.50729000  0.47282800  0.33242000  1
  C  1117  1  0.59176800  0.51808500  0.34603500  1
  C  1118  1  0.39867900  0.51729200  0.35669100  1
  N  19  1  0.21855700  0.35314700  0.89637400  1
  N  20  1  0.19497400  0.43104000  0.93058100  1
  N  21  1  0.18643500  0.43455400  0.81205900  1
  N  22  1  0.11117600  0.45771300  0.84858100  1
  N  41  1  0.27867300  0.63730400  0.39664800  1
  N  42  1  0.30308100  0.55954000  0.43072100  1
  N  43  1  0.31184500  0.55662700  0.31231500  1
  N  44  1  0.38854800  0.53781200  0.34863700  1
  N  63  1  0.89367200  0.96058800  0.14874900  1
  N  64  1  0.81536300  0.93670100  0.18253900  1
  N  65  1  0.81038300  0.93477500  0.06432100  1
  N  66  1  0.78710800  0.85721300  0.09964100  1
  N  85  1  0.60455700  0.02968600  0.64884700  1
  N  86  1  0.68290300  0.05343700  0.68265700  1
  N  87  1  0.68796900  0.05538900  0.56444400  1
  N  88  1  0.71126300  0.13293000  0.59977600  1
  N  107  1  0.28839600  0.35758500  0.60163000  1
  N  108  1  0.30818400  0.43365200  0.56369200  1
  N  109  1  0.31682300  0.44174600  0.68184900  1
  N  110  1  0.39366300  0.46470900  0.64619000  1
  N  129  1  0.21012300  0.63242500  0.10184100  1
  N  130  1  0.19026400  0.55647400  0.06381600  1
  N  131  1  0.18170500  0.54804400  0.18197100  1
  N  132  1  0.10482400  0.52527500  0.14630700  1
  N  151  1  0.60934900  0.96330300  0.34885000  1
  N  152  1  0.68340700  0.93608300  0.31248500  1
  N  153  1  0.69017100  0.92926500  0.43103800  1
  N  154  1  0.71065300  0.85148700  0.39402100  1
  N  173  1  0.88910600  0.02731200  0.84887200  1
  N  174  1  0.81502600  0.05449100  0.81251300  1
  N  175  1  0.80826600  0.06116200  0.93106000  1
  N  176  1  0.78750700  0.13892400  0.89411400  1
  N  195  1  0.78552500  0.64011400  0.10040600  1
  N  196  1  0.80840500  0.56182700  0.06622400  1
  N  197  1  0.81033100  0.55580000  0.18439900  1
  N  198  1  0.88770900  0.53202100  0.14896000  1
  N  217  1  0.71295300  0.34999000  0.60044600  1
  N  218  1  0.69005200  0.42826600  0.56625600  1
  N  219  1  0.68795300  0.43425100  0.68442100  1
  N  220  1  0.61065500  0.45810700  0.64891400  1
  N  239  1  0.10403500  0.03625000  0.85286800  1
  N  240  1  0.18109200  0.05808800  0.81537900  1
  N  241  1  0.19100300  0.05715400  0.93327000  1
  N  242  1  0.21459000  0.13589100  0.89910300  1
  N  261  1  0.39446600  0.95380800  0.35257400  1
  N  262  1  0.31727300  0.93197000  0.31522000  1
  N  263  1  0.30779200  0.93300100  0.43310700  1
  N  264  1  0.28378000  0.85433300  0.39903200  1
  N  283  1  0.71742800  0.63518700  0.40021000  1
  N  284  1  0.69106200  0.56046600  0.43631000  1
  N  285  1  0.68404300  0.55408600  0.31780500  1
  N  286  1  0.60547400  0.53604000  0.35459200  1
  N  305  1  0.78072900  0.35508300  0.90015600  1
  N  306  1  0.80726900  0.42979900  0.93616300  1
  N  307  1  0.81450900  0.43589900  0.81765500  1
  N  308  1  0.89303800  0.45387600  0.85457500  1
  N  327  1  0.38739900  0.02861000  0.64876700  1
  N  328  1  0.30833500  0.05272200  0.68212400  1
  N  329  1  0.31317800  0.06434200  0.56399600  1
  N  330  1  0.29350900  0.14175200  0.60051600  1
  N  349  1  0.11066100  0.96207800  0.14884800  1
  N  350  1  0.18959900  0.93759300  0.18222000  1
  N  351  1  0.18537000  0.92577900  0.06418000  1
  N  352  1  0.20326000  0.84814600  0.10117300  1
  N  355  1  0.25164900  0.40597000  0.76985000  1
  N  365  1  0.28886400  0.41420100  0.74114400  1
  N  379  1  0.24645300  0.58452900  0.26991400  1
  N  389  1  0.20940900  0.57598900  0.24117500  1
  N  403  1  0.84240300  0.99803600  0.02076200  1
  N  413  1  0.83701800  0.03375000  0.99069300  1
  N  427  1  0.65604400  0.99213000  0.52085100  1
  N  437  1  0.66146200  0.95649900  0.49073700  1
  N  451  1  0.74697900  0.58787800  0.22789900  1
  N  461  1  0.71134400  0.58266400  0.25802400  1
  N  475  1  0.75128900  0.40212800  0.72788700  1
  N  485  1  0.78703500  0.40735900  0.75793800  1
  N  499  1  0.15870800  0.99080200  0.97386400  1
  N  509  1  0.16265600  0.95391900  0.00329900  1
  N  523  1  0.34002200  0.99942000  0.47364900  1
  N  533  1  0.33603000  0.03626000  0.50310300  1
  N  547  1  0.74767300  0.90466500  0.27082500  1
  N  557  1  0.78527500  0.91087600  0.24212700  1
  N  571  1  0.75065900  0.08575000  0.77085200  1
  N  581  1  0.71302700  0.07941600  0.74218500  1
  N  595  1  0.33848600  0.49577600  0.51984000  1
  N  605  1  0.33139300  0.53189400  0.49031200  1
  N  619  1  0.15953300  0.49474500  0.01977200  1
  N  629  1  0.16637800  0.45871600  0.99014900  1
  N  643  1  0.24257900  0.08486900  0.72348400  1
  N  653  1  0.20708100  0.08112800  0.75381200  1
  N  667  1  0.25542500  0.90533900  0.22341600  1
  N  677  1  0.29104900  0.90905700  0.25366900  1
  N  691  1  0.65905600  0.49607700  0.47786200  1
  N  701  1  0.66474800  0.45843100  0.50660300  1
  N  715  1  0.83937700  0.49408500  0.97778800  1
  N  725  1  0.83375000  0.53168800  0.00656800  1
  N  739  1  0.23365600  0.21326200  0.88405600  1
  N  749  1  0.23348600  0.26738700  0.87702000  1
  N  763  1  0.26398400  0.77707100  0.38413000  1
  N  773  1  0.26373400  0.72292200  0.37718200  1
  N  787  1  0.03290500  0.98053400  0.13486000  1
  N  797  1  0.97862000  0.97882400  0.12860800  1
  N  811  1  0.46526400  0.01032200  0.63484800  1
  N  821  1  0.51956500  0.01189000  0.62864100  1
  N  835  1  0.28390300  0.22190000  0.61612800  1
  N  845  1  0.28325900  0.27634100  0.61182900  1
  N  859  1  0.21484300  0.76840200  0.11498600  1
  N  869  1  0.21556300  0.71381400  0.11145800  1
  N  883  1  0.47288200  0.97125400  0.36648300  1
  N  893  1  0.52730400  0.97305100  0.37138000  1
  N  907  1  0.02556600  0.01896500  0.86671700  1
  N  917  1  0.97111700  0.01735900  0.87151400  1
  N  931  1  0.76840200  0.77954600  0.11428200  1
  N  941  1  0.76932200  0.72525400  0.12063500  1
  N  955  1  0.73003100  0.21059200  0.61439500  1
  N  965  1  0.72915900  0.26489200  0.62072300  1
  N  979  1  0.72606300  0.77208400  0.38137700  1
  N  989  1  0.72703800  0.71748000  0.37718000  1
  N  1003  1  0.77130600  0.21811100  0.88129200  1
  N  1013  1  0.77033100  0.27272200  0.87705700  1
  N  1027  1  0.53358600  0.47805000  0.63345900  1
  N  1037  1  0.47943800  0.47841500  0.62641300  1
  N  1051  1  0.96482700  0.51214500  0.13356900  1
  N  1061  1  0.01897600  0.51175700  0.12653700  1
  N  1075  1  0.97468400  0.45937800  0.86380200  1
  N  1085  1  0.02916000  0.45981200  0.86810300  1
  N  1099  1  0.52336600  0.53124600  0.36187300  1
  N  1109  1  0.46870000  0.53102200  0.36470500  1
  O  371  1  0.23729100  0.48766800  0.71783300  1
  O  372  1  0.20124800  0.47997100  0.74614100  1
  O  395  1  0.26098000  0.50214100  0.21849700  1
  O  396  1  0.29687800  0.51014600  0.24686400  1
  O  419  1  0.75754200  0.98877500  0.97082600  1
  O  420  1  0.76259600  0.95417800  0.00035800  1
  O  443  1  0.74071800  0.00179300  0.47078800  1
  O  444  1  0.73563500  0.03631000  0.50036700  1
  O  467  1  0.75638100  0.50332000  0.27808800  1
  O  468  1  0.79090600  0.50820200  0.24849500  1
  O  491  1  0.74214900  0.48678400  0.77801300  1
  O  492  1  0.70751500  0.48188500  0.74848900  1
  O  515  1  0.23620900  0.00267500  0.02944100  1
  O  516  1  0.23269300  0.03836500  0.00047200  1
  O  539  1  0.26283900  0.98712200  0.52940900  1
  O  540  1  0.26640400  0.95146100  0.50042300  1
  O  563  1  0.73490600  0.98367400  0.21647600  1
  O  564  1  0.69852400  0.97802700  0.24481700  1
  O  587  1  0.76343800  0.00659200  0.71661900  1
  O  588  1  0.79984600  0.01235600  0.74493100  1
  O  611  1  0.25677600  0.48125700  0.46785500  1
  O  612  1  0.26335000  0.44627200  0.49700600  1
  O  635  1  0.24158400  0.50872900  0.96799400  1
  O  636  1  0.23524200  0.54362000  0.99722800  1
  O  659  1  0.25776900  0.00861300  0.77955000  1
  O  660  1  0.29214100  0.01196600  0.74975100  1
  O  683  1  0.24013900  0.98116500  0.27977500  1
  O  684  1  0.20564400  0.97784100  0.25004800  1
  O  707  1  0.73843900  0.50767000  0.53205900  1
  O  708  1  0.73329100  0.54407600  0.50368600  1
  O  731  1  0.75981900  0.48265600  0.03187100  1
  O  732  1  0.76490600  0.44629600  0.00346200  1
  O  755  1  0.25928700  0.28298600  0.94251400  1
  O  756  1  0.25942400  0.23011700  0.94938100  1
  O  779  1  0.23842700  0.70769200  0.44282300  1
  O  780  1  0.23869000  0.76058200  0.44960200  1
  O  803  1  0.96407200  0.00130700  0.19486800  1
  O  804  1  0.01709200  0.00293300  0.20097100  1
  O  827  1  0.53394700  0.98875300  0.69480000  1
  O  828  1  0.48091200  0.98724300  0.70085500  1
  O  851  1  0.20924700  0.26859000  0.56874300  1
  O  852  1  0.20957000  0.21518200  0.57314700  1
  O  875  1  0.28997300  0.72050600  0.06863900  1
  O  876  1  0.28958300  0.77400700  0.07230900  1
  O  899  1  0.53525300  0.02143200  0.31215800  1
  O  900  1  0.48191100  0.02003400  0.30754800  1
  O  923  1  0.96320200  0.96908000  0.81224400  1
  O  924  1  0.01656400  0.97029000  0.80773400  1
  O  947  1  0.74371700  0.71087300  0.05494900  1
  O  948  1  0.74276000  0.76389000  0.04876800  1
  O  971  1  0.75482100  0.27919600  0.55504100  1
  O  972  1  0.75573500  0.22617300  0.54888300  1
  O  995  1  0.77456800  0.71020500  0.43680500  1
  O  996  1  0.77402100  0.76366600  0.44071400  1
  O  1019  1  0.72527400  0.28026100  0.93766400  1
  O  1020  1  0.72582100  0.22681100  0.94162500  1
  O  1043  1  0.46415000  0.50533000  0.69171500  1
  O  1044  1  0.51700500  0.50492200  0.69859300  1
  O  1067  1  0.03423000  0.48496500  0.19186900  1
  O  1068  1  0.98137100  0.48539500  0.19873400  1
  O  1091  1  0.03468800  0.53240100  0.82350100  1
  O  1092  1  0.98121200  0.53213600  0.81950200  1
  O  1115  1  0.46564400  0.45358700  0.32447700  1
  O  1116  1  0.51924000  0.45405500  0.32153400  1
