# generated using pymatgen
data_H7C20(NO)2
_symmetry_space_group_name_H-M   'P 1'
_cell_length_a   55.99310405
_cell_length_b   55.99310405
_cell_length_c   55.99084591
_cell_angle_alpha   114.04834764
_cell_angle_beta   114.04846962
_cell_angle_gamma   100.66207587
_symmetry_Int_Tables_number   1
_chemical_formula_structural   H7C20(NO)2
_chemical_formula_sum   'H224 C640 N64 O64'
_cell_volume   132787.69919019
_cell_formula_units_Z   32
loop_
 _symmetry_equiv_pos_site_id
 _symmetry_equiv_pos_as_xyz
  1  'x, y, z'
loop_
 _atom_site_type_symbol
 _atom_site_label
 _atom_site_symmetry_multiplicity
 _atom_site_fract_x
 _atom_site_fract_y
 _atom_site_fract_z
 _atom_site_occupancy
  C  1  1  0.05516500  0.51430100  0.70800000  1
  C  2  1  0.05527550  0.50314950  0.72672600  1
  C  3  1  0.05190100  0.47416200  0.71608700  1
  C  4  1  0.05848250  0.46120250  0.69340800  1
  C  5  1  0.06334800  0.47403400  0.67766800  1
  C  6  1  0.05735000  0.49865600  0.68215800  1
  C  7  1  0.05656650  0.52063600  0.75431650  1
  C  8  1  0.05235150  0.50773200  0.66107950  1
  C  10  1  0.05070850  0.53990500  0.71392750  1
  C  11  1  0.05127350  0.55695050  0.74140900  1
  C  12  1  0.04630800  0.58207100  0.74652500  1
  C  13  1  0.03664800  0.58728300  0.72236100  1
  C  14  1  0.03377500  0.56932400  0.69399100  1
  C  15  1  0.04359500  0.54720150  0.69112550  1
  C  16  1  0.05588400  0.54761350  0.76222150  1
  C  18  1  0.04488450  0.53096300  0.66501750  1
  C  23  1  0.80644500  0.78926000  0.73435900  1
  C  24  1  0.77656150  0.77065050  0.71559900  1
  C  25  1  0.75821900  0.77791150  0.72624550  1
  C  26  1  0.76793550  0.80715350  0.74896700  1
  C  27  1  0.79649950  0.82776450  0.76469900  1
  C  28  1  0.81663400  0.81728350  0.76020750  1
  C  29  1  0.76646300  0.74436900  0.68799200  1
  C  30  1  0.84678850  0.83336400  0.78130050  1
  C  32  1  0.82613050  0.77888600  0.72843650  1
  C  33  1  0.81570350  0.75197800  0.70094350  1
  C  34  1  0.83571300  0.74191050  0.69581850  1
  C  35  1  0.86508100  0.75639050  0.71999850  1
  C  36  1  0.87546600  0.78189600  0.74833800  1
  C  37  1  0.85622650  0.79458600  0.75124750  1
  C  38  1  0.78555700  0.73576300  0.68014500  1
  C  40  1  0.86608950  0.82197100  0.77736550  1
  C  45  1  0.04323800  0.27738150  0.95929950  1
  C  46  1  0.03207500  0.24750400  0.94804400  1
  C  47  1  0.00307150  0.22917300  0.92243550  1
  C  48  1  0.99014450  0.23888050  0.90287600  1
  C  49  1  0.00299100  0.26744100  0.91082900  1
  C  50  1  0.02760950  0.28757250  0.94145100  1
  C  51  1  0.04956400  0.23739800  0.96423000  1
  C  52  1  0.03670300  0.31772700  0.95551400  1
  C  54  1  0.06883400  0.29705950  0.98937150  1
  C  55  1  0.08587300  0.28662350  0.00586250  1
  C  56  1  0.11097750  0.30662400  0.03596850  1
  C  57  1  0.11617650  0.33599450  0.05084700  1
  C  58  1  0.09825400  0.34639450  0.03571550  1
  C  59  1  0.07613900  0.32715850  0.00376750  1
  C  60  1  0.07652050  0.25647450  0.99191800  1
  C  62  1  0.05991000  0.33702250  0.98622650  1
  C  67  1  0.31832650  0.52611100  0.48302750  1
  C  68  1  0.29970450  0.52622300  0.49428250  1
  C  69  1  0.30696300  0.52286850  0.51990650  1
  C  70  1  0.33622000  0.52943300  0.53944700  1
  C  71  1  0.35683050  0.53429850  0.53149000  1
  C  72  1  0.34635450  0.52830500  0.50087150  1
  C  73  1  0.27340250  0.52749900  0.47807550  1
  C  74  1  0.36245200  0.52332950  0.48681950  1
  C  76  1  0.30795550  0.52164717  0.45295567  1
  C  77  1  0.28102900  0.52219900  0.43646300  1
  C  78  1  0.27096600  0.51725100  0.40638300  1
  C  79  1  0.28548700  0.50760600  0.39152700  1
  C  80  1  0.31104100  0.50484100  0.40667600  1
  C  81  1  0.32367950  0.51460050  0.43859200  1
  C  82  1  0.26478600  0.52672400  0.45036600  1
  C  84  1  0.35106150  0.51586650  0.45612100  1
  C  89  1  0.86189850  0.07285800  0.95625650  1
  C  90  1  0.86195050  0.09190850  0.94553100  1
  C  91  1  0.86580950  0.08541050  0.92032300  1
  C  92  1  0.86000600  0.05646600  0.90073200  1
  C  93  1  0.85541150  0.03543500  0.90821850  1
  C  94  1  0.86028000  0.04512600  0.93832200  1
  C  95  1  0.86031950  0.11794200  0.96185050  1
  C  96  1  0.86493700  0.02864800  0.95194800  1
  C  98  1  0.86588250  0.08267400  0.98607150  1
  C  99  1  0.86526750  0.10948400  0.00285150  1
  C  100  1  0.87010600  0.11917300  0.03283800  1
  C  101  1  0.87955650  0.10430600  0.04729550  1
  C  102  1  0.88246250  0.07890900  0.03196250  1
  C  103  1  0.87283950  0.06666350  0.00010600  1
  C  104  1  0.86077700  0.12603000  0.98932300  1
  C  106  1  0.87176250  0.03945250  0.98237400  1
  C  111  1  0.11690150  0.34785200  0.48613750  1
  C  112  1  0.14668300  0.35860700  0.49687500  1
  C  113  1  0.16538150  0.38767500  0.52207250  1
  C  114  1  0.15603200  0.40150600  0.54164700  1
  C  115  1  0.12752400  0.38941950  0.53417650  1
  C  116  1  0.10711050  0.36417600  0.50407650  1
  C  117  1  0.15639400  0.34064200  0.48056600  1
  C  118  1  0.07700700  0.35521950  0.49045250  1
  C  120  1  0.09689800  0.32201950  0.45632250  1
  C  121  1  0.10692200  0.30461300  0.43954300  1
  C  122  1  0.08662300  0.27946200  0.40955400  1
  C  123  1  0.05730600  0.27447550  0.39507750  1
  C  124  1  0.04726650  0.29269800  0.41045850  1
  C  125  1  0.06685450  0.31495150  0.44230200  1
  C  126  1  0.13699450  0.31365900  0.45305950  1
  C  128  1  0.05737900  0.33161250  0.46003350  1
  C  133  1  0.87690050  0.33289900  0.73116350  1
  C  134  1  0.88769450  0.33298400  0.71218350  1
  C  135  1  0.91677600  0.33686900  0.72257800  1
  C  136  1  0.93052750  0.33100200  0.74566650  1
  C  137  1  0.91842750  0.32636750  0.76207100  1
  C  138  1  0.89319250  0.33123450  0.75724900  1
  C  139  1  0.86974150  0.33134500  0.68451150  1
  C  140  1  0.88420450  0.33584450  0.77836300  1
  C  142  1  0.85107900  0.33690300  0.72534200  1
  C  143  1  0.83370000  0.33631850  0.69793050  1
  C  144  1  0.80857750  0.34120750  0.69310100  1
  C  145  1  0.80357400  0.35065550  0.71742050  1
  C  146  1  0.82176700  0.35345750  0.74566750  1
  C  147  1  0.84399100  0.34382350  0.74830050  1
  C  148  1  0.84275650  0.33186100  0.67691150  1
  C  150  1  0.86062750  0.34270550  0.77441100  1
  C  155  1  0.60190850  0.58781600  0.71118550  1
  C  156  1  0.62097400  0.61758950  0.73018450  1
  C  157  1  0.61448050  0.63631050  0.71985000  1
  C  158  1  0.58553750  0.62696050  0.69669800  1
  C  159  1  0.56449500  0.59845000  0.68026700  1
  C  160  1  0.57417400  0.57803100  0.68508300  1
  C  161  1  0.64701950  0.62729850  0.75783400  1
  C  162  1  0.55766900  0.54792950  0.66395550  1
  C  164  1  0.61171400  0.56780850  0.71700950  1
  C  165  1  0.63853700  0.57782650  0.74441350  1
  C  166  1  0.64821250  0.55752000  0.74925850  1
  C  167  1  0.63332500  0.52819450  0.72493750  1
  C  168  1  0.60785500  0.51813250  0.69669150  1
  C  169  1  0.59565950  0.53776300  0.69406050  1
  C  170  1  0.65513050  0.60789850  0.76541300  1
  C  172  1  0.56846000  0.52829800  0.66792200  1
  C  177  1  0.86549550  0.34832650  0.23435000  1
  C  178  1  0.86538250  0.35946900  0.21561450  1
  C  179  1  0.86875250  0.38845400  0.22624150  1
  C  180  1  0.86216400  0.40141700  0.24891400  1
  C  181  1  0.85729950  0.38859450  0.26466000  1
  C  182  1  0.86330400  0.36397750  0.26018550  1
  C  183  1  0.86409150  0.34197450  0.18802600  1
  C  184  1  0.86830450  0.35491400  0.28127350  1
  C  186  1  0.86995500  0.32272600  0.22843400  1
  C  187  1  0.86939050  0.30567100  0.20095350  1
  C  188  1  0.87434550  0.28054350  0.19583900  1
  C  189  1  0.88400000  0.27533300  0.22000400  1
  C  190  1  0.88688250  0.29331500  0.24836650  1
  C  191  1  0.87706500  0.31543850  0.25124450  1
  C  192  1  0.86479000  0.31500600  0.18014200  1
  C  194  1  0.87577400  0.33168550  0.27734950  1
  C  199  1  0.11429250  0.07335250  0.20804300  1
  C  200  1  0.14417350  0.09197250  0.22679300  1
  C  201  1  0.16251550  0.08471200  0.21614650  1
  C  202  1  0.15280900  0.05546750  0.19344150  1
  C  203  1  0.12425000  0.03484750  0.17772150  1
  C  204  1  0.10410950  0.04532300  0.18220750  1
  C  205  1  0.15426600  0.11826050  0.25438750  1
  C  206  1  0.07395850  0.02923100  0.16112550  1
  C  208  1  0.09460400  0.08372100  0.21396300  1
  C  209  1  0.10502500  0.11063050  0.24144250  1
  C  210  1  0.08500850  0.12068150  0.24656500  1
  C  211  1  0.05564050  0.10617850  0.22238200  1
  C  212  1  0.04523050  0.08066950  0.19402400  1
  C  213  1  0.06450600  0.06801000  0.19116100  1
  C  214  1  0.13517100  0.12686050  0.26223550  1
  C  216  1  0.05465150  0.04061650  0.16505600  1
  C  221  1  0.87741550  0.58521100  0.98305150  1
  C  222  1  0.88857550  0.61508850  0.99430500  1
  C  223  1  0.91757550  0.63342450  0.01991600  1
  C  224  1  0.93050550  0.62372200  0.03947950  1
  C  225  1  0.91766450  0.59516000  0.03152750  1
  C  226  1  0.89304550  0.57502300  0.00090250  1
  C  227  1  0.87108100  0.62519050  0.97811450  1
  C  228  1  0.88395750  0.54487050  0.98684600  1
  C  230  1  0.85181950  0.56552967  0.95298117  1
  C  231  1  0.83477700  0.57596100  0.93648900  1
  C  232  1  0.80966950  0.55595550  0.90638400  1
  C  233  1  0.80447250  0.52658500  0.89150950  1
  C  234  1  0.82240100  0.51619150  0.90664250  1
  C  235  1  0.84451850  0.53543100  0.93858950  1
  C  236  1  0.84412400  0.60610950  0.95042850  1
  C  238  1  0.86075100  0.52557050  0.95613250  1
  C  243  1  0.60233600  0.33646850  0.45932350  1
  C  244  1  0.62096350  0.33635700  0.44807450  1
  C  245  1  0.61371050  0.33970850  0.42244800  1
  C  246  1  0.58445450  0.33314350  0.40290400  1
  C  247  1  0.56383800  0.32827800  0.41085400  1
  C  248  1  0.57431100  0.33427450  0.44147250  1
  C  249  1  0.64726550  0.33508200  0.46428850  1
  C  250  1  0.55820500  0.33924900  0.45551800  1
  C  252  1  0.61270150  0.34092150  0.48938300  1
  C  253  1  0.63962550  0.34038300  0.50589350  1
  C  254  1  0.64968250  0.34533250  0.53597300  1
  C  255  1  0.63515500  0.35497200  0.55082000  1
  C  256  1  0.60960200  0.35773850  0.53566550  1
  C  257  1  0.59697150  0.34798000  0.50375050  1
  C  258  1  0.65587350  0.33585800  0.49199750  1
  C  260  1  0.56958950  0.34671250  0.48621600  1
  C  265  1  0.05881100  0.78975500  0.98615800  1
  C  266  1  0.05874650  0.77069400  0.99686950  1
  C  267  1  0.05488800  0.77718600  0.02207700  1
  C  268  1  0.06070950  0.80613300  0.04168350  1
  C  269  1  0.06531800  0.82717400  0.03421100  1
  C  270  1  0.06044450  0.81748900  0.00410650  1
  C  271  1  0.06036200  0.74465350  0.98053450  1
  C  272  1  0.05579400  0.83397900  0.99049400  1
  C  274  1  0.05481950  0.77994250  0.95634000  1
  C  275  1  0.05542300  0.75312900  0.93954800  1
  C  276  1  0.05057250  0.74343700  0.90955450  1
  C  277  1  0.04113100  0.75831150  0.89510250  1
  C  278  1  0.03823550  0.78370350  0.91046000  1
  C  279  1  0.04786700  0.79596550  0.94231950  1
  C  280  1  0.05991800  0.73657900  0.95307100  1
  C  282  1  0.04896250  0.82318300  0.96006750  1
  C  287  1  0.80373050  0.51474550  0.45617900  1
  C  288  1  0.77395250  0.50398550  0.44545700  1
  C  289  1  0.75525250  0.47491850  0.42025800  1
  C  290  1  0.76459050  0.46109350  0.40066900  1
  C  291  1  0.79309450  0.47318600  0.40812550  1
  C  292  1  0.81351200  0.49842700  0.43822400  1
  C  293  1  0.76424950  0.52194600  0.46178150  1
  C  294  1  0.84361450  0.50739100  0.45183350  1
  C  296  1  0.82374100  0.54057500  0.48599400  1
  C  297  1  0.81372450  0.55797600  0.50278650  1
  C  298  1  0.83403500  0.58313000  0.53276500  1
  C  299  1  0.86335000  0.58810750  0.54721550  1
  C  300  1  0.87341450  0.56989050  0.53185900  1
  C  301  1  0.85378550  0.54765150  0.50000500  1
  C  302  1  0.78365250  0.54892950  0.48928700  1
  C  304  1  0.86324900  0.53099600  0.48225200  1
  C  309  1  0.04378350  0.52972200  0.21120150  1
  C  310  1  0.03299200  0.52963700  0.23018300  1
  C  311  1  0.00391150  0.52575400  0.21979150  1
  C  312  1  0.99016000  0.53162400  0.19670600  1
  C  313  1  0.00225550  0.53625600  0.18029650  1
  C  314  1  0.02748750  0.53138550  0.18511500  1
  C  315  1  0.05094550  0.53127300  0.25785150  1
  C  316  1  0.03647200  0.52677000  0.16399700  1
  C  318  1  0.06960150  0.52571500  0.21701750  1
  C  319  1  0.08698350  0.52630100  0.24443050  1
  C  320  1  0.11210050  0.52140350  0.24925200  1
  C  321  1  0.11710100  0.51195150  0.22493050  1
  C  322  1  0.09890500  0.50915050  0.19668450  1
  C  323  1  0.07668450  0.51878800  0.19405450  1
  C  324  1  0.07794150  0.53077800  0.26546250  1
  C  326  1  0.06004550  0.51990550  0.16794400  1
  C  331  1  0.31877800  0.27479850  0.23115050  1
  C  332  1  0.29971050  0.24502550  0.21214500  1
  C  333  1  0.30620100  0.22629700  0.22247200  1
  C  334  1  0.33514300  0.23564350  0.24561950  1
  C  335  1  0.35618850  0.26415450  0.26205800  1
  C  336  1  0.34651250  0.28457700  0.25724950  1
  C  337  1  0.27366500  0.23532400  0.18449900  1
  C  338  1  0.36302150  0.31467800  0.27838350  1
  C  340  1  0.30897700  0.29481100  0.22533500  1
  C  341  1  0.28215150  0.28479850  0.19793300  1
  C  342  1  0.27247700  0.30510950  0.19309950  1
  C  343  1  0.28737250  0.33443300  0.21742250  1
  C  344  1  0.31284400  0.34449150  0.24566650  1
  C  345  1  0.32503450  0.32485500  0.24828850  1
  C  346  1  0.26555600  0.25472750  0.17692850  1
  C  348  1  0.35223500  0.33431450  0.27442450  1
  C  705  1  0.01385200  0.56853700  0.66734200  1
  C  706  1  0.01560300  0.59320450  0.66559250  1
  C  708  1  0.96917200  0.56718150  0.61820650  1
  C  709  1  0.96618500  0.54153300  0.61845700  1
  C  710  1  0.98863850  0.54277250  0.64331700  1
  C  712  1  0.94620250  0.56721800  0.59482650  1
  C  713  1  0.92560550  0.59336450  0.57404900  1
  C  714  1  0.89913050  0.56880250  0.55088300  1
  C  715  1  0.89704500  0.54297500  0.55029200  1
  C  718  1  0.92030450  0.54162650  0.57181800  1
  C  719  1  0.91786000  0.51599850  0.57171150  1
  C  720  1  0.94070200  0.51594750  0.59491350  1
  C  725  1  0.90132150  0.78860900  0.77499650  1
  C  726  1  0.92775900  0.79219050  0.77677550  1
  C  728  1  0.94912850  0.79308900  0.82412950  1
  C  729  1  0.92322950  0.78982550  0.82387900  1
  C  730  1  0.89960050  0.78742250  0.79903000  1
  C  732  1  0.97255650  0.79350450  0.84750100  1
  C  733  1  0.01948600  0.79370100  0.86826100  1
  C  734  1  0.01813400  0.79042700  0.89146200  1
  C  735  1  0.99287000  0.78886100  0.89201600  1
  C  738  1  0.96998600  0.79060000  0.87050800  1
  C  739  1  0.94446150  0.78822950  0.87061300  1
  C  740  1  0.92119650  0.78786350  0.84741700  1
  C  745  1  0.09748000  0.37228650  0.05481750  1
  C  746  1  0.12216000  0.39869050  0.07776350  1
  C  748  1  0.09615700  0.42008000  0.09817800  1
  C  749  1  0.07050050  0.39418950  0.07551200  1
  C  750  1  0.07172350  0.37056750  0.05428200  1
  C  752  1  0.09620750  0.44350050  0.12119400  1
  C  753  1  0.12237100  0.49041250  0.16795450  1
  C  754  1  0.09780900  0.48906050  0.16985450  1
  C  755  1  0.07198700  0.46380750  0.14612550  1
  C  758  1  0.07061850  0.44093100  0.12150350  1
  C  759  1  0.04498300  0.41541750  0.09831850  1
  C  760  1  0.04492000  0.39215950  0.07541750  1
  C  765  1  0.31769750  0.48487800  0.38748650  1
  C  766  1  0.32124350  0.48664750  0.36459800  1
  C  768  1  0.32207950  0.44016900  0.34409650  1
  C  769  1  0.31879700  0.43715600  0.36672400  1
  C  770  1  0.31643950  0.45962700  0.38797650  1
  C  772  1  0.32248250  0.41720350  0.32107900  1
  C  773  1  0.32276600  0.39666350  0.27439550  1
  C  774  1  0.31943600  0.37017100  0.27244400  1
  C  775  1  0.31783600  0.36804550  0.29612450  1
  C  778  1  0.31954700  0.39128400  0.32073000  1
  C  779  1  0.31714600  0.38880450  0.34387050  1
  C  780  1  0.31678900  0.41164200  0.36677200  1
  C  785  1  0.90260600  0.07225350  0.05100450  1
  C  786  1  0.90123600  0.06895900  0.07418800  1
  C  788  1  0.94815000  0.06911200  0.09492000  1
  C  789  1  0.95072300  0.07202050  0.07191550  1
  C  790  1  0.92785300  0.07379300  0.05042800  1
  C  792  1  0.97156400  0.06949100  0.11827100  1
  C  793  1  0.99293900  0.07040400  0.16563300  1
  C  794  1  0.01935350  0.07392300  0.16737450  1
  C  795  1  0.02107300  0.07509350  0.14333150  1
  C  798  1  0.99745400  0.07272900  0.11850600  1
  C  799  1  0.99948900  0.07469500  0.09497000  1
  C  800  1  0.97623450  0.07435550  0.07179000  1
  C  805  1  0.02157400  0.29381600  0.39141300  1
  C  806  1  0.99507700  0.26927200  0.36829100  1
  C  808  1  0.97448350  0.29541100  0.34750050  1
  C  809  1  0.00039350  0.32099450  0.37048300  1
  C  810  1  0.02366200  0.31963300  0.39198100  1
  C  812  1  0.95149650  0.29545300  0.32414150  1
  C  813  1  0.90504100  0.26944100  0.27678900  1
  C  814  1  0.90677650  0.29410700  0.27503750  1
  C  815  1  0.93200950  0.31986200  0.29904250  1
  C  818  1  0.95448150  0.32109650  0.32388300  1
  C  819  1  0.97998300  0.34667300  0.34739800  1
  C  820  1  0.00283800  0.34661900  0.37058400  1
  C  825  1  0.82286000  0.37354400  0.77249400  1
  C  826  1  0.79829400  0.37219250  0.77438950  1
  C  828  1  0.82445650  0.41909750  0.82115700  1
  C  829  1  0.85004500  0.42167150  0.82084950  1
  C  830  1  0.84867900  0.39879850  0.79622450  1
  C  832  1  0.82450650  0.44251450  0.84417800  1
  C  833  1  0.79850150  0.46389350  0.86459700  1
  C  834  1  0.82317850  0.49029950  0.88754100  1
  C  835  1  0.84893700  0.49202300  0.88807800  1
  C  838  1  0.85016100  0.46840450  0.86684650  1
  C  839  1  0.87574300  0.47043950  0.86694150  1
  C  840  1  0.87568050  0.44718500  0.84403750  1
  C  845  1  0.60126500  0.49244950  0.66991750  1
  C  846  1  0.59793050  0.46595750  0.66796800  1
  C  848  1  0.59819500  0.44540200  0.62127400  1
  C  849  1  0.60113800  0.47132250  0.62162250  1
  C  850  1  0.60286150  0.49456850  0.64623200  1
  C  852  1  0.59858400  0.42243000  0.59825100  1
  C  853  1  0.59940100  0.37594200  0.57774400  1
  C  854  1  0.60294550  0.37770650  0.55485300  1
  C  855  1  0.60420600  0.40295550  0.55436050  1
  C  858  1  0.60185950  0.42543300  0.57561550  1
  C  859  1  0.60387500  0.45094850  0.57556750  1
  C  860  1  0.60353150  0.47379350  0.59847500  1
  C  1025  1  0.07380050  0.46215800  0.65801450  1
  C  1026  1  0.06374450  0.43219550  0.63761300  1
  C  1028  1  0.09456500  0.43963800  0.61932000  1
  C  1029  1  0.10559700  0.46997150  0.63902450  1
  C  1030  1  0.09586950  0.48064150  0.65914800  1
  C  1032  1  0.10397600  0.42796200  0.59914700  1
  C  1033  1  0.10327000  0.38652700  0.56193600  1
  C  1034  1  0.12011200  0.40316500  0.55637400  1
  C  1035  1  0.13001400  0.43346850  0.57462550  1
  C  1038  1  0.12275850  0.44635450  0.59668700  1
  C  1039  1  0.13329550  0.47657550  0.61603100  1
  C  1040  1  0.12533900  0.48829950  0.63758150  1
  C  1045  1  0.80426900  0.85787100  0.78434200  1
  C  1046  1  0.79469500  0.86821400  0.80473200  1
  C  1048  1  0.82046700  0.91733100  0.82306000  1
  C  1049  1  0.83109200  0.90865900  0.80335100  1
  C  1050  1  0.82162300  0.87880750  0.78321350  1
  C  1052  1  0.82897300  0.94691600  0.84324200  1
  C  1053  1  0.82475700  0.98342350  0.88045950  1
  C  1054  1  0.84696700  0.00582550  0.88602950  1
  C  1055  1  0.85901900  0.99747400  0.86777900  1
  C  1058  1  0.84983300  0.96815650  0.84570850  1
  C  1059  1  0.86070900  0.95934850  0.82636250  1
  C  1060  1  0.85087100  0.92984150  0.80480050  1
  C  1065  1  0.99112300  0.27521300  0.88849200  1
  C  1066  1  0.96116000  0.26564850  0.86857550  1
  C  1068  1  0.96861550  0.29139100  0.84520750  1
  C  1069  1  0.99894750  0.30201950  0.86451500  1
  C  1070  1  0.00961150  0.29256150  0.88491000  1
  C  1072  1  0.95694700  0.29989450  0.82412550  1
  C  1073  1  0.91551900  0.29568050  0.78339350  1
  C  1074  1  0.93216350  0.31790250  0.78322000  1
  C  1075  1  0.96246600  0.32994350  0.80362050  1
  C  1078  1  0.97534350  0.32075400  0.82374950  1
  C  1079  1  0.00556550  0.33163000  0.84343950  1
  C  1080  1  0.01728300  0.32179650  0.86311350  1
  C  1085  1  0.38693800  0.54476800  0.55383400  1
  C  1086  1  0.39727800  0.53471550  0.57374650  1
  C  1088  1  0.44639550  0.56551250  0.59710300  1
  C  1089  1  0.43772550  0.57654850  0.57780600  1
  C  1090  1  0.40787450  0.56683500  0.55742050  1
  C  1092  1  0.47597950  0.57491750  0.61818500  1
  C  1093  1  0.51248150  0.57421000  0.65891350  1
  C  1094  1  0.53488700  0.59104300  0.65911000  1
  C  1095  1  0.52653800  0.60093550  0.63869950  1
  C  1098  1  0.49722200  0.59369050  0.61856850  1
  C  1099  1  0.48841750  0.60422750  0.59888400  1
  C  1100  1  0.45891100  0.59628400  0.57921200  1
  C  1105  1  0.84683150  0.40046550  0.28429900  1
  C  1106  1  0.85687750  0.43043000  0.30469150  1
  C  1108  1  0.82604950  0.42298000  0.32297650  1
  C  1109  1  0.81502850  0.39264750  0.30328100  1
  C  1110  1  0.82476400  0.38198050  0.28316450  1
  C  1112  1  0.81663200  0.43465200  0.34314400  1
  C  1113  1  0.81732400  0.47608250  0.38034450  1
  C  1114  1  0.80049500  0.45944350  0.38591650  1
  C  1115  1  0.79060200  0.42914050  0.36767050  1
  C  1118  1  0.79785700  0.41625800  0.34560800  1
  C  1119  1  0.78733050  0.38603700  0.32627050  1
  C  1120  1  0.79529200  0.37431600  0.30472500  1
  C  1125  1  0.11649000  0.00474100  0.15809200  1
  C  1126  1  0.12605950  0.99439450  0.13769800  1
  C  1128  1  0.10030000  0.94528150  0.11939050  1
  C  1129  1  0.08968050  0.95395900  0.13910450  1
  C  1130  1  0.09914900  0.98381100  0.15923700  1
  C  1132  1  0.09178850  0.91569500  0.09920950  1
  C  1133  1  0.09599150  0.87918250  0.06198300  1
  C  1134  1  0.07377650  0.85678300  0.05641250  1
  C  1135  1  0.06173550  0.86513950  0.07467300  1
  C  1138  1  0.07093150  0.89445900  0.09674950  1
  C  1139  1  0.06006450  0.90327050  0.11610200  1
  C  1140  1  0.06990650  0.93277850  0.13766400  1
  C  1145  1  0.92953450  0.58739050  0.05386500  1
  C  1146  1  0.95949850  0.59695750  0.07378000  1
  C  1148  1  0.95205100  0.57122000  0.09715500  1
  C  1149  1  0.92171800  0.56059000  0.07785000  1
  C  1150  1  0.91105050  0.57004400  0.05745150  1
  C  1152  1  0.96372450  0.56271850  0.11823800  1
  C  1153  1  0.00515650  0.56693150  0.15896200  1
  C  1154  1  0.98851500  0.54471550  0.15914550  1
  C  1155  1  0.95821200  0.53267250  0.13874750  1
  C  1158  1  0.94533000  0.54186050  0.11861750  1
  C  1159  1  0.91510950  0.53098400  0.09893150  1
  C  1160  1  0.90338600  0.54081500  0.07925600  1
  C  1165  1  0.53373500  0.31781200  0.38850700  1
  C  1166  1  0.52340000  0.32786800  0.36859600  1
  C  1168  1  0.47428100  0.29707350  0.34522950  1
  C  1169  1  0.48294300  0.28603300  0.36452300  1
  C  1170  1  0.51279300  0.29574300  0.38491300  1
  C  1172  1  0.44469850  0.28767300  0.32414550  1
  C  1173  1  0.40820500  0.28839050  0.28341850  1
  C  1174  1  0.38579450  0.27155650  0.28321500  1
  C  1175  1  0.39413600  0.26165750  0.30362050  1
  C  1178  1  0.42345100  0.26889850  0.32375550  1
  C  1179  1  0.43224850  0.25835550  0.34343500  1
  C  1180  1  0.46175350  0.26629650  0.36310900  1
  C  1345  1  0.93452250  0.35425500  0.71774250  1
  C  1346  1  0.95841800  0.35074600  0.71632000  1
  C  1348  1  0.97421250  0.39479050  0.71832900  1
  C  1349  1  0.95025350  0.39930400  0.71888550  1
  C  1350  1  0.93145400  0.37942050  0.71960950  1
  C  1352  1  0.99439700  0.41526600  0.71937400  1
  C  1353  1  0.03839300  0.43187850  0.72154750  1
  C  1354  1  0.03454400  0.45576050  0.72036550  1
  C  1355  1  0.00916700  0.45830550  0.71837850  1
  C  1358  1  0.98947650  0.43911150  0.71892100  1
  C  1359  1  0.96511000  0.44295700  0.71856200  1
  C  1360  1  0.94596600  0.42352150  0.71926550  1
  C  1365  1  0.63664250  0.65883250  0.72454300  1
  C  1366  1  0.63458050  0.68417700  0.72601750  1
  C  1368  1  0.67657150  0.69793150  0.72392800  1
  C  1369  1  0.68051800  0.67340250  0.72334350  1
  C  1370  1  0.65992600  0.65389000  0.72264600  1
  C  1372  1  0.69599800  0.71707300  0.72288100  1
  C  1373  1  0.71046150  0.75892250  0.72076000  1
  C  1374  1  0.73551600  0.75624800  0.72190900  1
  C  1375  1  0.74002200  0.73283550  0.72386050  1
  C  1378  1  0.72028000  0.71259100  0.72330000  1
  C  1379  1  0.72447150  0.68856750  0.72362300  1
  C  1380  1  0.70433450  0.66871700  0.72292150  1
  C  1385  1  0.88320500  0.10759300  0.91992700  1
  C  1386  1  0.87972450  0.10549200  0.89252450  1
  C  1388  1  0.92378700  0.14750500  0.92077300  1
  C  1389  1  0.92830550  0.15145600  0.94924650  1
  C  1390  1  0.90840150  0.13086450  0.94816000  1
  C  1392  1  0.94426050  0.16693650  0.92106300  1
  C  1393  1  0.96084450  0.18140600  0.89367850  1
  C  1394  1  0.98472100  0.20647500  0.92141400  1
  C  1395  1  0.98729050  0.21098450  0.94934000  1
  C  1398  1  0.96811200  0.19123150  0.94983450  1
  C  1399  1  0.97197150  0.19542150  0.97804700  1
  C  1400  1  0.95253550  0.17528050  0.97775300  1
  C  1405  1  0.18796450  0.40544400  0.52245050  1
  C  1406  1  0.21327200  0.42937000  0.54985000  1
  C  1408  1  0.22704250  0.44516700  0.52159550  1
  C  1409  1  0.20253200  0.42119750  0.49312450  1
  C  1410  1  0.18302300  0.40239350  0.49421850  1
  C  1412  1  0.24617550  0.46535050  0.52129700  1
  C  1413  1  0.28799000  0.50935350  0.54866850  1
  C  1414  1  0.28534250  0.50546750  0.52092900  1
  C  1415  1  0.26193600  0.48010050  0.49301250  1
  C  1418  1  0.24170550  0.46041850  0.49252500  1
  C  1419  1  0.21769700  0.43604700  0.46431500  1
  C  1420  1  0.19785500  0.41690500  0.46461400  1
  C  1505  1  0.98616500  0.50837300  0.22463100  1
  C  1506  1  0.96226700  0.51188050  0.22604750  1
  C  1508  1  0.94646300  0.46783400  0.22403000  1
  C  1509  1  0.97042350  0.46331850  0.22347900  1
  C  1510  1  0.98922950  0.48320400  0.22276150  1
  C  1512  1  0.92627050  0.44735650  0.22297400  1
  C  1513  1  0.88226600  0.43074150  0.22078350  1
  C  1514  1  0.88609600  0.40684400  0.22194200  1
  C  1515  1  0.91148250  0.40430850  0.22394900  1
  C  1518  1  0.93118250  0.42350550  0.22342000  1
  C  1519  1  0.95555050  0.41965950  0.22378600  1
  C  1520  1  0.97470400  0.43909800  0.22309300  1
  C  1525  1  0.28403800  0.20377200  0.21777400  1
  C  1526  1  0.28610450  0.17843000  0.21630250  1
  C  1528  1  0.24412050  0.16467550  0.21840300  1
  C  1529  1  0.24016600  0.18919750  0.21897750  1
  C  1530  1  0.26075300  0.20871150  0.21966950  1
  C  1532  1  0.22470450  0.14553750  0.21946200  1
  C  1533  1  0.21026300  0.10370200  0.22161300  1
  C  1534  1  0.18520850  0.10637400  0.22046650  1
  C  1535  1  0.18068800  0.12977550  0.21849850  1
  C  1538  1  0.20042000  0.15001600  0.21904500  1
  C  1539  1  0.19621950  0.17403250  0.21871000  1
  C  1540  1  0.21634750  0.19387800  0.21939950  1
  C  1545  1  0.03748000  0.75500400  0.02246300  1
  C  1546  1  0.04095950  0.75709400  0.04986050  1
  C  1548  1  0.99687900  0.71509750  0.02160150  1
  C  1549  1  0.99236550  0.71115400  0.99313250  1
  C  1550  1  0.01227850  0.73174400  0.99422750  1
  C  1552  1  0.97639600  0.69566800  0.02130400  1
  C  1553  1  0.95980300  0.68119200  0.04868000  1
  C  1554  1  0.93592450  0.65612700  0.02094050  1
  C  1555  1  0.93335750  0.65162650  0.99301900  1
  C  1558  1  0.95253950  0.67138050  0.99253100  1
  C  1559  1  0.94868350  0.66719800  0.96432050  1
  C  1560  1  0.96812950  0.68733900  0.96462250  1
  C  1565  1  0.73267800  0.45714400  0.41988700  1
  C  1566  1  0.70738017  0.43321900  0.39250117  1
  C  1568  1  0.69361900  0.41741100  0.42075100  1
  C  1569  1  0.71813100  0.44138150  0.44921850  1
  C  1570  1  0.73763150  0.46018850  0.44812000  1
  C  1572  1  0.67449300  0.39722550  0.42105250  1
  C  1573  1  0.63268350  0.35322200  0.39368550  1
  C  1574  1  0.63533400  0.35710600  0.42142600  1
  C  1575  1  0.65874400  0.38247050  0.44934150  1
  C  1578  1  0.67897200  0.40215450  0.44982650  1
  C  1579  1  0.70298300  0.42652450  0.47803450  1
  C  1580  1  0.72281900  0.44567000  0.47773200  1
  C  1665  1  0.05243500  0.71803750  0.89172450  1
  C  1666  1  0.02759750  0.69185250  0.86880900  1
  C  1668  1  0.05343600  0.67049000  0.84825900  1
  C  1669  1  0.07933650  0.69612850  0.87118800  1
  C  1670  1  0.07840050  0.71980100  0.89288650  1
  C  1672  1  0.05277650  0.64714350  0.82462000  1
  C  1673  1  0.02504800  0.60110300  0.77684600  1
  C  1674  1  0.04922900  0.60204200  0.77437500  1
  C  1675  1  0.07583050  0.62618050  0.79827400  1
  C  1678  1  0.07803900  0.64914700  0.82369100  1
  C  1679  1  0.10396700  0.67435000  0.84711900  1
  C  1680  1  0.10460650  0.69766400  0.87066850  1
  C  1685  1  0.82647650  0.60284550  0.55058300  1
  C  1686  1  0.82311300  0.60089500  0.57344300  1
  C  1688  1  0.82242950  0.64733800  0.59407250  1
  C  1689  1  0.82522450  0.65034250  0.57119900  1
  C  1690  1  0.82718500  0.62769750  0.54949550  1
  C  1692  1  0.82272200  0.67031900  0.61771300  1
  C  1693  1  0.82432300  0.69031250  0.66541450  1
  C  1694  1  0.82784100  0.71700600  0.66795600  1
  C  1695  1  0.82818400  0.71974050  0.64411150  1
  C  1698  1  0.82574200  0.69654050  0.61869450  1
  C  1699  1  0.82761200  0.69907850  0.59532650  1
  C  1700  1  0.82737500  0.67616800  0.57177600  1
  C  1705  1  0.24706450  0.29754750  0.16585000  1
  C  1706  1  0.22089400  0.29428800  0.16453200  1
  C  1708  1  0.19947950  0.29341650  0.11729700  1
  C  1709  1  0.22510650  0.29612000  0.11700850  1
  C  1710  1  0.24880350  0.29813650  0.14163300  1
  C  1712  1  0.17611100  0.29367350  0.09459750  1
  C  1713  1  0.13006650  0.29538950  0.07629900  1
  C  1714  1  0.13095550  0.29874700  0.05300750  1
  C  1715  1  0.15507900  0.29896550  0.05051950  1
  C  1718  1  0.17807800  0.29656800  0.07130400  1
  C  1719  1  0.20327150  0.29834250  0.07055900  1
  C  1720  1  0.22660750  0.29813950  0.09324400  1
  C  1725  1  0.13181450  0.52331250  0.27653600  1
  C  1726  1  0.12990100  0.49848700  0.27791100  1
  C  1728  1  0.17632200  0.52432600  0.32507400  1
  C  1729  1  0.17927900  0.55022200  0.32533100  1
  C  1730  1  0.15662500  0.54927650  0.30072750  1
  C  1732  1  0.19931200  0.52367500  0.34775800  1
  C  1733  1  0.21937150  0.49596350  0.36609000  1
  C  1734  1  0.24602800  0.52014900  0.38931900  1
  C  1735  1  0.24872100  0.54674300  0.39176300  1
  C  1738  1  0.22550350  0.54894300  0.37100750  1
  C  1739  1  0.22799450  0.57486350  0.37172000  1
  C  1740  1  0.20506950  0.57549450  0.34905000  1
  C  1745  1  0.87141950  0.26056500  0.16798950  1
  C  1746  1  0.89559300  0.26152500  0.16549800  1
  C  1748  1  0.86787450  0.21545950  0.11775000  1
  C  1749  1  0.84261900  0.21343950  0.11869650  1
  C  1750  1  0.84482650  0.23640950  0.14411100  1
  C  1752  1  0.86722050  0.19211300  0.09411650  1
  C  1753  1  0.89305650  0.17077200  0.07354450  1
  C  1754  1  0.86823200  0.14456850  0.05065750  1
  C  1755  1  0.84227150  0.14278900  0.04951350  1
  C  1758  1  0.84132850  0.16645900  0.07120750  1
  C  1759  1  0.81606600  0.16490950  0.07174550  1
  C  1760  1  0.81670000  0.18822250  0.09529050  1
  C  1765  1  0.09287000  0.14558750  0.27441850  1
  C  1766  1  0.09637300  0.17227500  0.27694600  1
  C  1768  1  0.09797650  0.19227950  0.32464800  1
  C  1769  1  0.09497150  0.16606600  0.32368050  1
  C  1770  1  0.09253500  0.14286350  0.29827150  1
  C  1772  1  0.09826100  0.21526150  0.34827850  1
  C  1773  1  0.09755150  0.26169400  0.36888150  1
  C  1774  1  0.09419550  0.25975250  0.39174900  1
  C  1775  1  0.09350550  0.23491100  0.39285650  1
  C  1778  1  0.09547450  0.21226650  0.37116200  1
  C  1779  1  0.09334100  0.18645200  0.37060100  1
  C  1780  1  0.09311200  0.16354000  0.34706000  1
  C  1785  1  0.67461500  0.34243100  0.55304500  1
  C  1786  1  0.70127150  0.36661750  0.57625300  1
  C  1788  1  0.72134550  0.33891800  0.59459450  1
  C  1789  1  0.69515050  0.31364950  0.57136600  1
  C  1790  1  0.67192000  0.31584700  0.55062200  1
  C  1792  1  0.74434850  0.33827750  0.61727700  1
  C  1793  1  0.79076100  0.36413550  0.66445050  1
  C  1794  1  0.78887400  0.33930950  0.66582050  1
  C  1795  1  0.76406550  0.31334050  0.64163500  1
  C  1798  1  0.74139650  0.31238900  0.61703950  1
  C  1799  1  0.71560150  0.28711650  0.59333800  1
  C  1800  1  0.69266750  0.28773600  0.57066550  1
  C  1805  1  0.78968100  0.56382500  0.88934600  1
  C  1806  1  0.79061450  0.56724450  0.86610200  1
  C  1808  1  0.74454700  0.56891850  0.84775950  1
  C  1809  1  0.74256300  0.56601400  0.87104100  1
  C  1810  1  0.76554500  0.56358950  0.89181150  1
  C  1812  1  0.72119200  0.56919050  0.82506150  1
  C  1813  1  0.69980600  0.56835200  0.77784500  1
  C  1814  1  0.67362700  0.56509200  0.77651000  1
  C  1815  1  0.67188200  0.56450550  0.80072750  1
  C  1818  1  0.69556150  0.56649150  0.82534000  1
  C  1819  1  0.69404150  0.56445550  0.84909000  1
  C  1820  1  0.71736750  0.56424300  0.87177650  1
  H  9  1  0.05856250  0.44135950  0.68727000  1
  H  17  1  0.02970900  0.60336400  0.72474300  1
  H  19  1  0.05602850  0.55896650  0.78198100  1
  H  20  1  0.05784100  0.51371850  0.76894850  1
  H  21  1  0.04053750  0.53598350  0.64850000  1
  H  22  1  0.05183900  0.49617350  0.64113550  1
  H  31  1  0.75420750  0.81337000  0.75506250  1
  H  39  1  0.87880800  0.74711850  0.71759250  1
  H  41  1  0.77714900  0.71620800  0.66031100  1
  H  42  1  0.74491250  0.73102650  0.67333300  1
  H  43  1  0.88762650  0.83414700  0.79388050  1
  H  44  1  0.85516650  0.85279000  0.80124650  1
  H  53  1  0.97030850  0.22516200  0.88293950  1
  H  61  1  0.13229900  0.34971850  0.07385250  1
  H  63  1  0.08790500  0.24807600  0.00311500  1
  H  64  1  0.04264850  0.21584750  0.95603500  1
  H  65  1  0.06493600  0.35856100  0.99558800  1
  H  66  1  0.02514400  0.32612200  0.94448200  1
  H  75  1  0.34243450  0.52951550  0.55937200  1
  H  83  1  0.27619100  0.50071100  0.36851800  1
  H  85  1  0.24522600  0.52698900  0.43920000  1
  H  86  1  0.26004950  0.52879550  0.48627400  1
  H  87  1  0.36323900  0.51152550  0.44676050  1
  H  88  1  0.38186500  0.52277800  0.49784500  1
  H  97  1  0.86048150  0.05087700  0.88118150  1
  H  105  1  0.88657850  0.11344950  0.07032600  1
  H  107  1  0.86046650  0.14551750  0.00067900  1
  H  108  1  0.85911450  0.13155450  0.95398800  1
  H  109  1  0.87602750  0.02707700  0.99148350  1
  H  110  1  0.86582150  0.00944200  0.94091050  1
  H  119  1  0.17001550  0.42151600  0.56121750  1
  H  127  1  0.04339050  0.25841600  0.37206850  1
  H  129  1  0.14512650  0.30193950  0.44174600  1
  H  130  1  0.17787000  0.34728450  0.48843750  1
  H  131  1  0.03589300  0.32676950  0.45092450  1
  H  132  1  0.06884400  0.36715100  0.50149000  1
  H  141  1  0.95054700  0.33146650  0.75171450  1
  H  149  1  0.78752600  0.35761750  0.71528550  1
  H  151  1  0.83105950  0.33151350  0.65709400  1
  H  152  1  0.87640400  0.33015100  0.66969900  1
  H  153  1  0.85577900  0.34695750  0.79104950  1
  H  154  1  0.89612500  0.33674450  0.79846550  1
  H  163  1  0.57995450  0.64092450  0.69063400  1
  H  171  1  0.64244300  0.51429550  0.72707350  1
  H  173  1  0.67457900  0.61601800  0.78525600  1
  H  174  1  0.66063450  0.64877350  0.77265900  1
  H  175  1  0.55607250  0.50681100  0.65128050  1
  H  176  1  0.53848000  0.53975550  0.64384050  1
  H  185  1  0.86207500  0.42125500  0.25504000  1
  H  193  1  0.89093700  0.25925050  0.21763050  1
  H  195  1  0.86461800  0.30363400  0.16036600  1
  H  196  1  0.86280750  0.34888200  0.17338450  1
  H  197  1  0.88011750  0.32667100  0.29386950  1
  H  198  1  0.86881250  0.36647700  0.30121350  1
  H  207  1  0.16653700  0.04925200  0.18734400  1
  H  215  1  0.04191100  0.11544450  0.22479350  1
  H  217  1  0.14357300  0.14642150  0.28206450  1
  H  218  1  0.17581700  0.13161500  0.26904400  1
  H  219  1  0.03311400  0.02842800  0.14854300  1
  H  220  1  0.06558250  0.00979850  0.14118600  1
  H  229  1  0.95033950  0.63744050  0.05941400  1
  H  237  1  0.78834800  0.51285900  0.86850600  1
  H  239  1  0.83273650  0.61450350  0.93923000  1
  H  240  1  0.87799150  0.64673950  0.98630800  1
  H  241  1  0.85572650  0.50403300  0.94677450  1
  H  242  1  0.89551900  0.53647800  0.99787900  1
  H  251  1  0.57824350  0.33305950  0.38297800  1
  H  259  1  0.64444400  0.36186800  0.57383000  1
  H  261  1  0.67543250  0.33559250  0.50316700  1
  H  262  1  0.66062050  0.33378300  0.45609450  1
  H  263  1  0.55740800  0.35105300  0.49557100  1
  H  264  1  0.53879400  0.33979950  0.44448750  1
  H  273  1  0.06023600  0.81171850  0.06123450  1
  H  281  1  0.03409950  0.74917550  0.87207200  1
  H  283  1  0.06019150  0.71707550  0.94169200  1
  H  284  1  0.06155250  0.73103200  0.98838450  1
  H  285  1  0.04470200  0.83556550  0.95096550  1
  H  286  1  0.05491950  0.85318900  0.00154250  1
  H  295  1  0.75060600  0.44108400  0.38109900  1
  H  303  1  0.87726650  0.60417050  0.57022000  1
  H  305  1  0.77552950  0.56064850  0.50061100  1
  H  306  1  0.74277600  0.51530200  0.45392200  1
  H  307  1  0.88473350  0.53584000  0.49134650  1
  H  308  1  0.85177500  0.49546550  0.44078450  1
  H  317  1  0.97014050  0.53116150  0.19066100  1
  H  325  1  0.13314750  0.50498850  0.22706200  1
  H  327  1  0.08962300  0.53109300  0.28526200  1
  H  328  1  0.04428400  0.53246200  0.27266400  1
  H  329  1  0.06489150  0.51565100  0.15130350  1
  H  330  1  0.02454950  0.52587000  0.14389550  1
  H  339  1  0.34072600  0.22167650  0.25167750  1
  H  347  1  0.27825900  0.34833650  0.21529250  1
  H  349  1  0.24610750  0.24661400  0.15708850  1
  H  350  1  0.26004850  0.21384900  0.16966950  1
  H  351  1  0.36462450  0.35580150  0.29107000  1
  H  352  1  0.38220950  0.32284800  0.29849550  1
  H  711  1  0.98602000  0.52486650  0.64467350  1
  H  716  1  0.03295600  0.61260100  0.68269400  1
  H  721  1  0.87770500  0.52517000  0.53491200  1
  H  722  1  0.92812050  0.61282900  0.57621150  1
  H  731  1  0.88032800  0.78339950  0.79765150  1
  H  736  1  0.93004000  0.79242600  0.75966200  1
  H  741  1  0.99047050  0.78491750  0.90741800  1
  H  742  1  0.03680250  0.79409750  0.86611700  1
  H  751  1  0.05381700  0.35130450  0.03901250  1
  H  756  1  0.14155850  0.40096950  0.07981900  1
  H  761  1  0.05417450  0.46140300  0.14764850  1
  H  762  1  0.14183950  0.50771650  0.18489700  1
  H  771  1  0.31242600  0.45699350  0.40323650  1
  H  776  1  0.32152500  0.50401500  0.36258000  1
  H  781  1  0.31389500  0.34870150  0.29457950  1
  H  782  1  0.32320850  0.39921950  0.25750000  1
  H  791  1  0.93024300  0.07770150  0.03500350  1
  H  796  1  0.88390750  0.06853600  0.07631450  1
  H  801  1  0.04034450  0.07912500  0.14470850  1
  H  802  1  0.99066650  0.07018600  0.18275750  1
  H  811  1  0.04300600  0.33743700  0.40737000  1
  H  816  1  0.99254550  0.24981300  0.36615150  1
  H  821  1  0.93463900  0.33775500  0.29766100  1
  H  822  1  0.88769550  0.25004150  0.25968100  1
  H  831  1  0.86649350  0.40120700  0.79470550  1
  H  836  1  0.77883050  0.35488150  0.75745300  1
  H  841  1  0.86684100  0.51128750  0.90334750  1
  H  842  1  0.77910000  0.46161450  0.86253350  1
  H  851  1  0.60680450  0.51391100  0.64777350  1
  H  856  1  0.59748850  0.46340500  0.68486650  1
  H  861  1  0.60821950  0.40558450  0.53909700  1
  H  862  1  0.59911700  0.35857400  0.57976500  1
  H  1031  1  0.10443100  0.50243800  0.67432300  1
  H  1036  1  0.04787950  0.41751650  0.63548800  1
  H  1041  1  0.14234150  0.44634750  0.57148100  1
  H  1042  1  0.09620100  0.36462200  0.55046300  1
  H  1051  1  0.82825900  0.87219300  0.76805000  1
  H  1056  1  0.78216350  0.85447650  0.80687800  1
  H  1061  1  0.87504000  0.01294400  0.87091900  1
  H  1062  1  0.81432650  0.98783150  0.89193200  1
  H  1071  1  0.03140800  0.29918450  0.89815050  1
  H  1076  1  0.94647900  0.25309700  0.86975900  1
  H  1081  1  0.97535100  0.34597800  0.80419000  1
  H  1082  1  0.89361450  0.28525950  0.76856100  1
  H  1091  1  0.40126200  0.57538600  0.54417300  1
  H  1096  1  0.38353950  0.51882850  0.57253500  1
  H  1101  1  0.54201050  0.61326250  0.63814800  1
  H  1102  1  0.51688900  0.56714900  0.67375700  1
  H  1111  1  0.81621250  0.36018250  0.26799600  1
  H  1116  1  0.87273900  0.44511150  0.30681750  1
  H  1121  1  0.77828250  0.41626050  0.37082100  1
  H  1122  1  0.82439350  0.49798800  0.39182050  1
  H  1131  1  0.09251700  0.99042900  0.17440300  1
  H  1136  1  0.13858300  0.00812850  0.13554150  1
  H  1141  1  0.04571350  0.84967300  0.07153450  1
  H  1142  1  0.10641650  0.87477000  0.05050350  1
  H  1151  1  0.88925250  0.56341950  0.04421100  1
  H  1156  1  0.97418000  0.60951050  0.07259450  1
  H  1161  1  0.94533050  0.51664200  0.13818450  1
  H  1162  1  0.02706000  0.57736200  0.17380200  1
  H  1171  1  0.51940100  0.28719100  0.39815900  1
  H  1176  1  0.53714300  0.34375700  0.36981300  1
  H  1181  1  0.37866100  0.24933050  0.30416850  1
  H  1182  1  0.40380350  0.29545750  0.26858200  1
  H  1351  1  0.91568550  0.38403600  0.72264150  1
  H  1356  1  0.96248700  0.33349800  0.71558700  1
  H  1361  1  0.00430450  0.47405050  0.71550700  1
  H  1362  1  0.05581900  0.42818100  0.72237000  1
  H  1371  1  0.66151300  0.63509450  0.71962950  1
  H  1376  1  0.61809400  0.68900200  0.72680900  1
  H  1381  1  0.75863300  0.73083500  0.72671800  1
  H  1382  1  0.70596050  0.77554800  0.71998350  1
  H  1391  1  0.91300800  0.13245650  0.96854650  1
  H  1396  1  0.86245500  0.08899950  0.87120850  1
  H  1401  1  0.00302650  0.22960800  0.96994950  1
  H  1402  1  0.95713000  0.17690100  0.87255300  1
  H  1411  1  0.16423300  0.38660600  0.47383300  1
  H  1416  1  0.21807850  0.43344200  0.57116950  1
  H  1421  1  0.25994150  0.47523800  0.47240250  1
  H  1422  1  0.30458900  0.52678600  0.56979000  1
  H  1511  1  0.00499750  0.47858850  0.21973100  1
  H  1516  1  0.95820600  0.52913400  0.22679100  1
  H  1521  1  0.91634300  0.38856150  0.22682050  1
  H  1522  1  0.86484550  0.43444750  0.21996800  1
  H  1531  1  0.25916200  0.22750400  0.22268300  1
  H  1536  1  0.30259150  0.17360650  0.21551100  1
  H  1541  1  0.16207750  0.13177250  0.21564300  1
  H  1542  1  0.21477450  0.08708500  0.22240150  1
  H  1551  1  0.00767550  0.73016000  0.97384550  1
  H  1556  1  0.05822650  0.77358250  0.07117800  1
  H  1561  1  0.91761950  0.63300650  0.97240600  1
  H  1562  1  0.96351650  0.68569350  0.06980400  1
  H  1571  1  0.75642450  0.47597600  0.46850350  1
  H  1576  1  0.70255350  0.42914850  0.37116900  1
  H  1581  1  0.66074300  0.38733350  0.46995350  1
  H  1582  1  0.61608200  0.33578850  0.37256350  1
  H  1671  1  0.09636050  0.73899900  0.90869050  1
  H  1676  1  0.00812550  0.68986150  0.86647300  1
  H  1681  1  0.09334100  0.62764200  0.79624600  1
  H  1682  1  0.00517800  0.58445850  0.75967050  1
  H  1691  1  0.83064600  0.62987300  0.53373500  1
  H  1696  1  0.82341950  0.58374250  0.57575700  1
  H  1701  1  0.83174350  0.73930200  0.64618950  1
  H  1702  1  0.82483000  0.68760150  0.68257250  1
  H  1711  1  0.26798250  0.30148850  0.14283100  1
  H  1716  1  0.21891800  0.29462650  0.18201850  1
  H  1721  1  0.15653300  0.30246000  0.03447100  1
  H  1722  1  0.11343950  0.29593900  0.07955050  1
  H  1731  1  0.15877250  0.56722550  0.29947200  1
  H  1736  1  0.11279350  0.47900100  0.26041050  1
  H  1741  1  0.26825950  0.56425350  0.40780400  1
  H  1742  1  0.21669600  0.47609650  0.36285950  1
  H  1751  1  0.82732400  0.23493800  0.14615400  1
  H  1756  1  0.91546100  0.27817250  0.18266650  1
  H  1761  1  0.82432250  0.12358150  0.03372900  1
  H  1762  1  0.91252850  0.17276600  0.07588050  1
  H  1771  1  0.08898700  0.12330750  0.29620550  1
  H  1776  1  0.09586050  0.17497650  0.25978000  1
  H  1781  1  0.09005000  0.23274200  0.40862100  1
  H  1782  1  0.09723100  0.27883700  0.36655400  1
  H  1791  1  0.65239100  0.29832650  0.53456950  1
  H  1796  1  0.70396100  0.38647750  0.57945050  1
  H  1801  1  0.76190950  0.29540000  0.64290750  1
  H  1802  1  0.80789350  0.38361250  0.68191800  1
  H  1811  1  0.76409600  0.56010550  0.90786750  1
  H  1816  1  0.80721700  0.56664200  0.86282000  1
  H  1821  1  0.65268850  0.56111700  0.79949750  1
  H  1822  1  0.70177400  0.56798150  0.76034350  1
  N  707  1  0.99362050  0.59172400  0.64163850  1
  N  717  1  0.94769800  0.59179200  0.59488200  1
  N  727  1  0.95023550  0.79414650  0.80071300  1
  N  737  1  0.99707200  0.79496100  0.84743700  1
  N  747  1  0.12069500  0.42117150  0.09827350  1
  N  757  1  0.12079200  0.46800650  0.14428150  1
  N  767  1  0.32317050  0.46465200  0.34406150  1
  N  777  1  0.32399850  0.41874100  0.29805150  1
  N  787  1  0.92363750  0.06766850  0.09499200  1
  N  797  1  0.97046450  0.06845800  0.14170050  1
  N  807  1  0.97297700  0.27084550  0.34746550  1
  N  817  1  0.92703900  0.27091500  0.30072600  1
  N  827  1  0.79987350  0.39459150  0.79806800  1
  N  837  1  0.79996600  0.44141750  0.84408150  1
  N  847  1  0.59668600  0.44387400  0.64430900  1
  N  857  1  0.59748700  0.39794600  0.59828800  1
  N  1027  1  0.07433600  0.42219500  0.61953700  1
  N  1037  1  0.09531200  0.39905100  0.58198800  1
  N  1047  1  0.80279400  0.89688400  0.82283000  1
  N  1057  1  0.81722200  0.95541250  0.86040050  1
  N  1067  1  0.95116650  0.27372750  0.84798500  1
  N  1077  1  0.92803700  0.28814600  0.80387100  1
  N  1087  1  0.42594800  0.54529100  0.59432300  1
  N  1097  1  0.48447400  0.56625700  0.63843600  1
  N  1107  1  0.84627600  0.44042650  0.32275950  1
  N  1117  1  0.82528600  0.46356250  0.36029650  1
  N  1127  1  0.11796400  0.96572450  0.11960750  1
  N  1137  1  0.10353300  0.90719250  0.08204250  1
  N  1147  1  0.96949650  0.58888200  0.09437250  1
  N  1157  1  0.99263500  0.57446950  0.13848850  1
  N  1167  1  0.49473200  0.31729600  0.34801600  1
  N  1177  1  0.43621050  0.29633900  0.30389950  1
  N  1347  1  0.97712300  0.37074300  0.71698100  1
  N  1357  1  0.01859650  0.41280450  0.72073900  1
  N  1367  1  0.65390050  0.70221300  0.72533250  1
  N  1377  1  0.69219100  0.73992800  0.72155800  1
  N  1387  1  0.89972850  0.12481700  0.89381450  1
  N  1397  1  0.94178400  0.16312650  0.89440250  1
  N  1407  1  0.23130550  0.44808450  0.54855800  1
  N  1417  1  0.26900450  0.48956050  0.54795400  1
  N  1507  1  0.94355650  0.49188450  0.22538200  1
  N  1517  1  0.90207150  0.44982000  0.22160650  1
  N  1527  1  0.26679200  0.16039700  0.21699700  1
  N  1537  1  0.22852100  0.12269000  0.22079800  1
  N  1547  1  0.02094400  0.73777600  0.04856500  1
  N  1557  1  0.97886800  0.69947200  0.04796200  1
  N  1567  1  0.68934500  0.41449950  0.39378650  1
  N  1577  1  0.65166300  0.37301500  0.39439700  1
  N  1667  1  0.02891550  0.66946650  0.84813400  1
  N  1677  1  0.02760800  0.62335950  0.80137550  1
  N  1687  1  0.82143650  0.62290500  0.59413850  1
  N  1697  1  0.82208700  0.66835850  0.64090150  1
  N  1707  1  0.19848800  0.29254800  0.14082100  1
  N  1717  1  0.15234050  0.29314450  0.09600500  1
  N  1727  1  0.15192200  0.49980600  0.30159300  1
  N  1737  1  0.19739800  0.49851250  0.34638350  1
  N  1747  1  0.89303500  0.23926150  0.14097650  1
  N  1757  1  0.89173450  0.19314900  0.09422250  1
  N  1767  1  0.09860200  0.19423100  0.30145100  1
  N  1777  1  0.09923700  0.23968450  0.34819550  1
  N  1787  1  0.72325750  0.36407450  0.59595100  1
  N  1797  1  0.76874700  0.36280200  0.64075200  1
  N  1807  1  0.76832950  0.56946150  0.84637100  1
  N  1817  1  0.72219800  0.57006650  0.80154750  1
  O  723  1  0.89344050  0.49127200  0.54998350  1
  O  724  1  0.93731800  0.49117900  0.59456400  1
  O  743  1  0.94146950  0.78550900  0.89232950  1
  O  744  1  0.89677600  0.78480350  0.84776750  1
  O  763  1  0.02026300  0.41242950  0.09801950  1
  O  764  1  0.02013950  0.36774950  0.05402400  1
  O  783  1  0.31439450  0.36435900  0.34412750  1
  O  784  1  0.31371100  0.40823100  0.38812500  1
  O  803  1  0.02389500  0.07771450  0.09459550  1
  O  804  1  0.97922950  0.07708000  0.05007550  1
  O  823  1  0.98336400  0.37143900  0.34774100  1
  O  824  1  0.02727400  0.37133300  0.39227800  1
  O  843  1  0.90052100  0.49485000  0.88833700  1
  O  844  1  0.90040200  0.45017850  0.84433750  1
  O  863  1  0.60694950  0.45435250  0.55421000  1
  O  864  1  0.60629050  0.49823950  0.59821700  1
  O  1043  1  0.15158400  0.49480750  0.61467850  1
  O  1044  1  0.13595700  0.51735800  0.65578100  1
  O  1063  1  0.88029850  0.97898900  0.82771950  1
  O  1064  1  0.86172650  0.92226000  0.78659750  1
  O  1083  1  0.02380250  0.35122350  0.84339700  1
  O  1084  1  0.04634150  0.33265550  0.88156100  1
  O  1103  1  0.50805850  0.62250950  0.59893400  1
  O  1104  1  0.45133100  0.60690500  0.56077500  1
  O  1123  1  0.76904800  0.36780250  0.32762750  1
  O  1124  1  0.78468350  0.34525650  0.28653200  1
  O  1143  1  0.04047600  0.88363500  0.11475200  1
  O  1144  1  0.05905850  0.94036550  0.15587300  1
  O  1163  1  0.89687450  0.51139100  0.09897850  1
  O  1164  1  0.87432850  0.52995400  0.06081150  1
  O  1183  1  0.41260200  0.24007150  0.34337650  1
  O  1184  1  0.46932550  0.25566950  0.38154200  1
  O  1363  1  0.96006550  0.46569650  0.71848400  1
  O  1364  1  0.92311500  0.42818500  0.71945100  1
  O  1383  1  0.74727300  0.68358550  0.72366550  1
  O  1384  1  0.70880350  0.64567000  0.72270850  1
  O  1403  1  0.99471950  0.21823250  0.00583400  1
  O  1404  1  0.95720600  0.17975150  0.00526950  1
  O  1423  1  0.21272400  0.43099500  0.43652500  1
  O  1424  1  0.17482250  0.39404400  0.43710150  1
  O  1523  1  0.96058850  0.39691500  0.22385650  1
  O  1524  1  0.99755550  0.43443300  0.22291250  1
  O  1543  1  0.17341700  0.17900850  0.21866750  1
  O  1544  1  0.21187050  0.21692050  0.21960300  1
  O  1563  1  0.92593300  0.64439550  0.93653150  1
  O  1564  1  0.96346300  0.68287600  0.93711000  1
  O  1583  1  0.70796300  0.43157400  0.50582500  1
  O  1584  1  0.74585400  0.46852950  0.50524250  1
  O  1683  1  0.12836500  0.67706100  0.84678200  1
  O  1684  1  0.12959200  0.72184400  0.89202200  1
  O  1703  1  0.83075150  0.72384600  0.59572150  1
  O  1704  1  0.83029350  0.67983350  0.55048200  1
  O  1723  1  0.20594600  0.30134950  0.04883450  1
  O  1724  1  0.25077800  0.30097150  0.09241950  1
  O  1743  1  0.25273100  0.59926350  0.39339250  1
  O  1744  1  0.20869400  0.60047350  0.34984450  1
  O  1763  1  0.79109150  0.14071600  0.05041350  1
  O  1764  1  0.79230950  0.18549800  0.09564450  1
  O  1783  1  0.09043250  0.18279550  0.39190600  1
  O  1784  1  0.08998650  0.13877950  0.34668000  1
  O  1803  1  0.71198950  0.26214250  0.59255300  1
  O  1804  1  0.66792700  0.26333750  0.54901450  1
  O  1823  1  0.66986800  0.56163050  0.84990550  1
  O  1824  1  0.71466950  0.56121150  0.89347800  1
