# generated using pymatgen
data_H4C8NO2
_symmetry_space_group_name_H-M   'P 1'
_cell_length_a   9.91620000
_cell_length_b   78.32750000
_cell_length_c   78.32750000
_cell_angle_alpha   90.00000000
_cell_angle_beta   90.00000000
_cell_angle_gamma   90.00000000
_symmetry_Int_Tables_number   1
_chemical_formula_structural   H4C8NO2
_chemical_formula_sum   'H336 C672 N84 O168'
_cell_volume   60837.84303243
_cell_formula_units_Z   84
loop_
 _symmetry_equiv_pos_site_id
 _symmetry_equiv_pos_as_xyz
  1  'x, y, z'
loop_
 _atom_site_type_symbol
 _atom_site_label
 _atom_site_symmetry_multiplicity
 _atom_site_fract_x
 _atom_site_fract_y
 _atom_site_fract_z
 _atom_site_occupancy
  C  1  1  0.99292000  0.08965100  0.06610000  1
  C  2  1  0.00031700  0.07229100  0.07082800  1
  C  3  1  0.01270000  0.06733000  0.08808800  1
  C  4  1  0.01550100  0.08012600  0.10078500  1
  C  5  1  0.00877600  0.09763200  0.09636900  1
  C  6  1  0.99854200  0.10225300  0.07895100  1
  C  10  1  0.99285200  0.91880800  0.94234000  1
  C  11  1  0.00029500  0.93616600  0.93760400  1
  C  12  1  0.01267500  0.94111800  0.92034200  1
  C  13  1  0.01542700  0.92831700  0.90765000  1
  C  14  1  0.00868800  0.91081400  0.91207500  1
  C  15  1  0.99846100  0.90620100  0.92949500  1
  C  19  1  0.99285300  0.94234200  0.08964500  1
  C  20  1  0.00028500  0.93760900  0.07228700  1
  C  21  1  0.01268800  0.92034800  0.06732900  1
  C  22  1  0.01544200  0.90765400  0.08012800  1
  C  23  1  0.00870500  0.91207400  0.09763300  1
  C  24  1  0.99847000  0.92949300  0.10225000  1
  C  28  1  0.99281800  0.06610400  0.91880100  1
  C  29  1  0.00021500  0.07083600  0.93615900  1
  C  30  1  0.01260800  0.08809700  0.94111700  1
  C  31  1  0.01540100  0.10079000  0.92831700  1
  C  32  1  0.00868500  0.09637100  0.91081200  1
  C  33  1  0.99845100  0.07895200  0.90619600  1
  C  37  1  0.01769500  0.18661800  0.18682600  1
  C  38  1  0.01124300  0.20410100  0.18246100  1
  C  39  1  0.01073200  0.21700200  0.19509100  1
  C  40  1  0.01740900  0.21208200  0.21248200  1
  C  41  1  0.02420400  0.19465800  0.21728000  1
  C  42  1  0.02402300  0.18212600  0.20428100  1
  C  46  1  0.01772200  0.82176800  0.82167400  1
  C  47  1  0.01152900  0.80428500  0.82604500  1
  C  48  1  0.01104500  0.79138100  0.81341800  1
  C  49  1  0.01748800  0.79629700  0.79602500  1
  C  50  1  0.02403300  0.81372000  0.79122200  1
  C  51  1  0.02383200  0.82625600  0.80421600  1
  C  55  1  0.01743700  0.82164100  0.18664800  1
  C  56  1  0.01107200  0.82601100  0.20413000  1
  C  57  1  0.01051000  0.81338300  0.21703500  1
  C  58  1  0.01702600  0.79599100  0.21212000  1
  C  59  1  0.02372100  0.79118700  0.19469700  1
  C  60  1  0.02360900  0.80418300  0.18216200  1
  C  64  1  0.01797400  0.18679400  0.82179600  1
  C  65  1  0.01169300  0.18242900  0.80431300  1
  C  66  1  0.01129100  0.19505900  0.79141300  1
  C  67  1  0.01789200  0.21245000  0.79633300  1
  C  68  1  0.02453700  0.21724700  0.81375700  1
  C  69  1  0.02425600  0.20424900  0.82628900  1
  C  73  1  0.00904800  0.44036400  0.00470500  1
  C  74  1  0.01697400  0.43099700  0.98927800  1
  C  75  1  0.01773600  0.41291000  0.98900800  1
  C  76  1  0.01068200  0.40409300  0.00483500  1
  C  77  1  0.00284700  0.41300200  0.02060700  1
  C  78  1  0.00199000  0.43109000  0.02020300  1
  C  82  1  0.00816300  0.56812600  0.00375200  1
  C  83  1  0.01253700  0.57737500  0.01924100  1
  C  84  1  0.01457400  0.59546000  0.01949300  1
  C  85  1  0.01038200  0.60428800  0.00364600  1
  C  86  1  0.00503100  0.59537700  0.98784700  1
  C  87  1  0.00487300  0.57728900  0.98820900  1
  C  91  1  0.00907800  0.00375400  0.44043600  1
  C  92  1  0.01698400  0.01918000  0.43106700  1
  C  93  1  0.01775300  0.01944800  0.41298000  1
  C  94  1  0.01071200  0.00362000  0.40416400  1
  C  95  1  0.00288800  0.98784800  0.41307600  1
  C  96  1  0.00202500  0.98825500  0.43116400  1
  C  100  1  0.00817800  0.00470100  0.56819900  1
  C  101  1  0.01253700  0.98920900  0.57744200  1
  C  102  1  0.01456300  0.98895100  0.59552600  1
  C  103  1  0.01034600  0.00479500  0.60436100  1
  C  104  1  0.00500500  0.02059600  0.59545500  1
  C  105  1  0.00486300  0.02024100  0.57736600  1
  C  109  1  0.01157600  0.28786300  0.41625500  1
  C  110  1  0.00938100  0.30192100  0.40486100  1
  C  111  1  0.01059100  0.31910500  0.41065000  1
  C  112  1  0.01506300  0.32196700  0.42856300  1
  C  113  1  0.01899000  0.30830300  0.44045700  1
  C  114  1  0.01674300  0.29142400  0.43396400  1
  C  118  1  0.01131700  0.72050800  0.59222500  1
  C  119  1  0.00912200  0.70644500  0.60361100  1
  C  120  1  0.01043300  0.68926300  0.59781700  1
  C  121  1  0.01498900  0.68640700  0.57990300  1
  C  122  1  0.01891100  0.70007700  0.56801500  1
  C  123  1  0.01658300  0.71695200  0.57451400  1
  C  127  1  0.01131300  0.59218000  0.28793300  1
  C  128  1  0.00910900  0.60356900  0.30199500  1
  C  129  1  0.01039500  0.59777700  0.31917800  1
  C  130  1  0.01493800  0.57986400  0.32203600  1
  C  131  1  0.01886900  0.56797300  0.30836900  1
  C  132  1  0.01656200  0.57447000  0.29149100  1
  C  136  1  0.01154600  0.41620200  0.72058400  1
  C  137  1  0.00935400  0.40481300  0.70652300  1
  C  138  1  0.01059800  0.41060800  0.68934100  1
  C  139  1  0.01507300  0.42852100  0.68648500  1
  C  140  1  0.01899000  0.44041100  0.70015200  1
  C  141  1  0.01673100  0.43391200  0.71702900  1
  C  145  1  0.01371700  0.71936900  0.41608400  1
  C  146  1  0.01879500  0.70529700  0.40471200  1
  C  147  1  0.01639900  0.68814400  0.41054900  1
  C  148  1  0.00929700  0.68524600  0.42842800  1
  C  149  1  0.00348700  0.69893900  0.44026000  1
  C  150  1  0.00545400  0.71581700  0.43378400  1
  C  154  1  0.01414000  0.28907500  0.59237700  1
  C  155  1  0.01922300  0.30314500  0.60374900  1
  C  156  1  0.01669100  0.32029900  0.59791700  1
  C  157  1  0.00946400  0.32320200  0.58004000  1
  C  158  1  0.00362400  0.30950900  0.56820500  1
  C  159  1  0.00571600  0.29263000  0.57467800  1
  C  163  1  0.01372600  0.41604500  0.28909100  1
  C  164  1  0.01882500  0.40467200  0.30316200  1
  C  165  1  0.01644000  0.41050800  0.32031500  1
  C  166  1  0.00933100  0.42838600  0.32321700  1
  C  167  1  0.00351200  0.44021900  0.30952500  1
  C  168  1  0.00545400  0.43374400  0.29264500  1
  C  172  1  0.01412100  0.59232900  0.71938500  1
  C  173  1  0.01918300  0.60370300  0.70531600  1
  C  174  1  0.01665200  0.59787100  0.68816100  1
  C  175  1  0.00944100  0.57999500  0.68525800  1
  C  176  1  0.00364400  0.56816000  0.69895000  1
  C  177  1  0.00572200  0.57463100  0.71582900  1
  C  181  1  0.02869800  0.15801000  0.33919000  1
  C  182  1  0.01977400  0.17200000  0.35049200  1
  C  183  1  0.01167000  0.16970800  0.36831600  1
  C  184  1  0.01353000  0.15287600  0.37493800  1
  C  185  1  0.02044800  0.13836000  0.36402300  1
  C  186  1  0.02686700  0.14130900  0.34611800  1
  C  190  1  0.02689800  0.85036200  0.66930600  1
  C  191  1  0.01826600  0.83637200  0.65799700  1
  C  192  1  0.01007000  0.83867000  0.64017600  1
  C  193  1  0.01156200  0.85550500  0.63356000  1
  C  194  1  0.01812900  0.87002200  0.64448000  1
  C  195  1  0.02462500  0.86706400  0.66238300  1
  C  199  1  0.02685200  0.66926100  0.15807100  1
  C  200  1  0.01826600  0.65795800  0.17206500  1
  C  201  1  0.01015400  0.64013400  0.16977400  1
  C  202  1  0.01161300  0.63351300  0.15294200  1
  C  203  1  0.01815300  0.64442600  0.13842100  1
  C  204  1  0.02460800  0.66233000  0.14137200  1
  C  208  1  0.02878200  0.33914300  0.85043600  1
  C  209  1  0.01981800  0.35044900  0.83644900  1
  C  210  1  0.01168000  0.36827100  0.83874600  1
  C  211  1  0.01349600  0.37489000  0.85557900  1
  C  212  1  0.02046300  0.36397000  0.87009100  1
  C  213  1  0.02695800  0.34606700  0.86713800  1
  C  217  1  0.99851100  0.84930900  0.33916400  1
  C  218  1  0.00646700  0.83530800  0.35046900  1
  C  219  1  0.01311200  0.83759400  0.36830100  1
  C  220  1  0.01103900  0.85441600  0.37493800  1
  C  221  1  0.00491400  0.86894000  0.36402900  1
  C  222  1  0.99978200  0.86600400  0.34611600  1
  C  226  1  0.00053700  0.15915000  0.66928300  1
  C  227  1  0.00815100  0.17314900  0.65797300  1
  C  228  1  0.01489200  0.17085300  0.64014400  1
  C  229  1  0.01325400  0.15402900  0.63351400  1
  C  230  1  0.00744500  0.13950900  0.64443100  1
  C  231  1  0.00225200  0.14245200  0.66234200  1
  C  235  1  0.99851200  0.33912600  0.15916400  1
  C  236  1  0.00646700  0.35043600  0.17316100  1
  C  237  1  0.01311300  0.36826600  0.17086800  1
  C  238  1  0.01106900  0.37489900  0.15404500  1
  C  239  1  0.00492900  0.36398300  0.13952600  1
  C  240  1  0.99986367  0.34607200  0.14246600  1
  C  244  1  0.00056800  0.66924500  0.84931200  1
  C  245  1  0.00815600  0.65793700  0.83531000  1
  C  246  1  0.01489800  0.64010700  0.83759900  1
  C  247  1  0.01321900  0.63347300  0.85442200  1
  C  248  1  0.00744100  0.64438600  0.86894600  1
  C  249  1  0.00227300  0.66229800  0.86600700  1
  C  253  1  0.01701900  0.17382400  0.17393100  1
  C  254  1  0.10394300  0.17498700  0.15966400  1
  C  255  1  0.10351000  0.16231600  0.14696200  1
  C  256  1  0.01509900  0.14824300  0.14815900  1
  C  257  1  0.92706300  0.14681600  0.16233800  1
  C  258  1  0.92928100  0.15962700  0.17508100  1
  C  260  1  0.01754900  0.13568400  0.13518200  1
  C  261  1  0.12060800  0.12316400  0.13451100  1
  C  262  1  0.11630200  0.11056900  0.12155800  1
  C  263  1  0.01222500  0.11037600  0.10922500  1
  C  264  1  0.91099600  0.12305000  0.11002600  1
  C  265  1  0.91304900  0.13549900  0.12293800  1
  C  277  1  0.01699500  0.83456700  0.83456500  1
  C  278  1  0.10404300  0.83342700  0.84882100  1
  C  279  1  0.10358100  0.84610600  0.86151400  1
  C  280  1  0.01502700  0.86016400  0.86032200  1
  C  281  1  0.92685500  0.86156800  0.84615300  1
  C  282  1  0.92909800  0.84874900  0.83341800  1
  C  284  1  0.01746900  0.87273400  0.87328800  1
  C  285  1  0.12053200  0.88525400  0.87395200  1
  C  286  1  0.11621700  0.89785900  0.88689400  1
  C  287  1  0.01212400  0.89806300  0.89922500  1
  C  288  1  0.91088700  0.88539000  0.89843100  1
  C  289  1  0.91295400  0.87293000  0.88553000  1
  C  301  1  0.01679800  0.83453100  0.17385100  1
  C  302  1  0.10380300  0.84879200  0.17500500  1
  C  303  1  0.10340900  0.86149000  0.16233000  1
  C  304  1  0.01495700  0.86029800  0.14826100  1
  C  305  1  0.92683900  0.84612600  0.14684100  1
  C  306  1  0.92901800  0.83338600  0.15965800  1
  C  308  1  0.01742800  0.87327100  0.13569800  1
  C  309  1  0.12049400  0.87393800  0.12317800  1
  C  310  1  0.11620500  0.88688600  0.11057900  1
  C  311  1  0.01213400  0.89922100  0.11038000  1
  C  312  1  0.91089700  0.89842500  0.12305400  1
  C  313  1  0.91293900  0.88551600  0.13550700  1
  C  325  1  0.01719700  0.17390100  0.83459100  1
  C  326  1  0.10415500  0.15963600  0.83344200  1
  C  327  1  0.10365100  0.14693900  0.84611900  1
  C  328  1  0.01513800  0.14813700  0.86018000  1
  C  329  1  0.92706200  0.16231300  0.86159300  1
  C  330  1  0.92934700  0.17505300  0.84877700  1
  C  332  1  0.01754400  0.13516800  0.87274700  1
  C  333  1  0.12059800  0.13449800  0.88526700  1
  C  334  1  0.11625700  0.12155200  0.89786800  1
  C  335  1  0.01215400  0.10922300  0.89806600  1
  C  336  1  0.91092700  0.11002200  0.88539100  1
  C  337  1  0.91301400  0.12292800  0.87293700  1
  C  349  1  0.01970900  0.09226300  0.95872300  1
  C  350  1  0.92741500  0.10385800  0.96609800  1
  C  351  1  0.92281600  0.10610600  0.98390300  1
  C  352  1  0.01161000  0.09698200  0.99465800  1
  C  353  1  0.10729200  0.08563100  0.98742700  1
  C  354  1  0.11087300  0.08352900  0.96951000  1
  C  356  1  0.99277300  0.09757300  0.01255800  1
  C  357  1  0.88579100  0.08836500  0.02029000  1
  C  358  1  0.88273100  0.08675600  0.03826600  1
  C  359  1  0.98479600  0.09397100  0.04858300  1
  C  360  1  0.08835300  0.10354600  0.04074900  1
  C  361  1  0.09269900  0.10523700  0.02288700  1
  C  373  1  0.01981700  0.91618300  0.04972300  1
  C  374  1  0.92746000  0.90459900  0.04234400  1
  C  375  1  0.92282800  0.90235700  0.02453800  1
  C  376  1  0.01163300  0.91148100  0.01378500  1
  C  377  1  0.10735700  0.92282500  0.02101800  1
  C  378  1  0.11097100  0.92491900  0.03893500  1
  C  380  1  0.99278300  0.91089500  0.99588500  1
  C  381  1  0.88584600  0.92011400  0.98815600  1
  C  382  1  0.88277000  0.92172200  0.97018000  1
  C  383  1  0.98476500  0.91449700  0.95985900  1
  C  384  1  0.08828100  0.90491200  0.96769100  1
  C  385  1  0.09264900  0.90322200  0.98555400  1
  C  397  1  0.01979800  0.04972300  0.09225100  1
  C  398  1  0.92748100  0.04234700  0.10384200  1
  C  399  1  0.92284700  0.02454100  0.10608800  1
  C  400  1  0.01162000  0.01378500  0.09696100  1
  C  401  1  0.10730600  0.02101600  0.08561100  1
  C  402  1  0.11092200  0.03893300  0.08351300  1
  C  404  1  0.99277300  0.99588600  0.09755300  1
  C  405  1  0.88579600  0.98815400  0.08834400  1
  C  406  1  0.88271900  0.97017800  0.08674000  1
  C  407  1  0.98475100  0.95985900  0.09396000  1
  C  408  1  0.08830300  0.96769400  0.10353500  1
  C  409  1  0.09267400  0.98555600  0.10522100  1
  C  421  1  0.01980700  0.95872400  0.91617200  1
  C  422  1  0.92743700  0.96610100  0.90458700  1
  C  423  1  0.92280700  0.98390500  0.90234200  1
  C  424  1  0.01162700  0.99466200  0.91146200  1
  C  425  1  0.10736700  0.98743000  0.92280400  1
  C  426  1  0.11098100  0.96951300  0.92490200  1
  C  428  1  0.99276200  0.01256100  0.91087600  1
  C  429  1  0.88580500  0.02028900  0.92009100  1
  C  430  1  0.88272100  0.03826400  0.92170300  1
  C  431  1  0.98473600  0.04858600  0.91448400  1
  C  432  1  0.08826700  0.04075500  0.90490000  1
  C  433  1  0.09263900  0.02289400  0.90320700  1
  C  445  1  0.03784400  0.16127400  0.32131200  1
  C  446  1  0.94200800  0.15458800  0.30975300  1
  C  447  1  0.94091700  0.15982200  0.29253300  1
  C  448  1  0.03656900  0.17171500  0.28636700  1
  C  449  1  0.13551800  0.17822100  0.29769900  1
  C  450  1  0.13488300  0.17292500  0.31498600  1
  C  452  1  0.02945800  0.17744500  0.26914900  1
  C  453  1  0.92917000  0.18914200  0.26363400  1
  C  454  1  0.93040000  0.19508200  0.24651900  1
  C  455  1  0.02891600  0.18949500  0.23472200  1
  C  456  1  0.12811500  0.17785700  0.24047200  1
  C  457  1  0.12915400  0.17203700  0.25745900  1
  C  469  1  0.03617400  0.84709200  0.68718200  1
  C  470  1  0.94033200  0.85375300  0.69875400  1
  C  471  1  0.93948100  0.84851600  0.71597400  1
  C  472  1  0.03539800  0.83665200  0.72212800  1
  C  473  1  0.13437400  0.83017400  0.71078100  1
  C  474  1  0.13350000  0.83547100  0.69349400  1
  C  476  1  0.02855000  0.83092100  0.73934700  1
  C  477  1  0.92845400  0.81920700  0.74488200  1
  C  478  1  0.92993600  0.81327200  0.76199900  1
  C  479  1  0.02851100  0.81887800  0.77377600  1
  C  480  1  0.12751200  0.83053400  0.76800800  1
  C  481  1  0.12830700  0.83634900  0.75101900  1
  C  493  1  0.03610000  0.68713900  0.16133500  1
  C  494  1  0.94022300  0.69870600  0.15467400  1
  C  495  1  0.93934000  0.71592700  0.15990500  1
  C  496  1  0.03525800  0.72208800  0.17176600  1
  C  497  1  0.13427300  0.71074700  0.17824300  1
  C  498  1  0.13343000  0.69345800  0.17295200  1
  C  500  1  0.02836100  0.73930800  0.17749600  1
  C  501  1  0.92825200  0.74484100  0.18920800  1
  C  502  1  0.92968900  0.76195800  0.19514300  1
  C  503  1  0.02824000  0.77374100  0.18953700  1
  C  504  1  0.12726000  0.76797400  0.17788300  1
  C  505  1  0.12809600  0.75098600  0.17206700  1
  C  517  1  0.03799000  0.32126800  0.84716900  1
  C  518  1  0.94212900  0.30970300  0.85384300  1
  C  519  1  0.94106500  0.29248700  0.84859900  1
  C  520  1  0.03675000  0.28632800  0.83670800  1
  C  521  1  0.13569400  0.29766500  0.83020900  1
  C  522  1  0.13502900  0.31494900  0.83551300  1
  C  524  1  0.02968600  0.26911300  0.83097200  1
  C  525  1  0.92942100  0.26359700  0.81927400  1
  C  526  1  0.93068800  0.24648200  0.81333200  1
  C  527  1  0.02921900  0.23468900  0.81891900  1
  C  528  1  0.12839700  0.24043900  0.83056000  1
  C  529  1  0.12940200  0.25742500  0.83638100  1
  C  541  1  0.99082700  0.84607000  0.32126900  1
  C  542  1  0.08690600  0.85289800  0.30982200  1
  C  543  1  0.08927000  0.84774900  0.29257900  1
  C  544  1  0.99467900  0.83579700  0.28627100  1
  C  545  1  0.89556800  0.82913000  0.29748700  1
  C  546  1  0.89493300  0.83434400  0.31480000  1
  C  548  1  0.00275100  0.83020500  0.26901800  1
  C  549  1  0.10367600  0.81861000  0.26347600  1
  C  550  1  0.10330800  0.81279700  0.24631700  1
  C  551  1  0.00503600  0.81842000  0.23450600  1
  C  552  1  0.90522000  0.82996100  0.24027800  1
  C  553  1  0.90332400  0.83565000  0.25730700  1
  C  565  1  0.99271300  0.16239000  0.68717600  1
  C  566  1  0.08895300  0.15560700  0.69862700  1
  C  567  1  0.09109500  0.16075600  0.71586900  1
  C  568  1  0.99612000  0.17266200  0.72217100  1
  C  569  1  0.89683800  0.17928000  0.71095000  1
  C  570  1  0.89643100  0.17406900  0.69363800  1
  C  572  1  0.00398200  0.17825700  0.73942400  1
  C  573  1  0.10476000  0.18986700  0.74497800  1
  C  574  1  0.10423600  0.19567200  0.76213900  1
  C  575  1  0.00595300  0.19003000  0.77393800  1
  C  576  1  0.90627400  0.17847700  0.76815400  1
  C  577  1  0.90454200  0.17279200  0.75112400  1
  C  589  1  0.99085800  0.32123200  0.16241000  1
  C  590  1  0.08690000  0.30978500  0.15557600  1
  C  591  1  0.08927000  0.29254200  0.16072600  1
  C  592  1  0.99470900  0.28623600  0.17268400  1
  C  593  1  0.89560300  0.29745200  0.17935200  1
  C  594  1  0.89495400  0.31476400  0.17413700  1
  C  596  1  0.00280800  0.26898500  0.17827800  1
  C  597  1  0.10379800  0.26344500  0.18986400  1
  C  598  1  0.10348000  0.24628500  0.19567600  1
  C  599  1  0.00520700  0.23447300  0.19006000  1
  C  600  1  0.90530000  0.24024400  0.17853000  1
  C  601  1  0.90335800  0.25727200  0.17284200  1
  C  613  1  0.99276300  0.68713900  0.84607300  1
  C  614  1  0.08894300  0.69858900  0.85286900  1
  C  615  1  0.09105600  0.71583500  0.84772900  1
  C  616  1  0.99609000  0.72213900  0.83582200  1
  C  617  1  0.89683900  0.71091800  0.82919600  1
  C  618  1  0.89645500  0.69360400  0.83440000  1
  C  620  1  0.00393700  0.73939500  0.83023300  1
  C  621  1  0.10464800  0.74495000  0.81861400  1
  C  622  1  0.10406400  0.76211100  0.81280600  1
  C  623  1  0.00578100  0.77390800  0.81845300  1
  C  624  1  0.90619300  0.76812200  0.83001800  1
  C  625  1  0.90451400  0.75109300  0.83570600  1
  C  637  1  0.00389700  0.37070100  0.12238100  1
  C  638  1  0.91559700  0.36416600  0.10973600  1
  C  639  1  0.91485000  0.37065500  0.09292500  1
  C  640  1  0.00395600  0.38382700  0.08789700  1
  C  641  1  0.09331000  0.39057400  0.10036500  1
  C  642  1  0.09188300  0.38402800  0.11731100  1
  C  644  1  0.99817800  0.39040000  0.07079400  1
  C  645  1  0.88936500  0.40075400  0.06514600  1
  C  646  1  0.89083900  0.40773100  0.04839500  1
  C  647  1  0.99718100  0.40444100  0.03678600  1
  C  648  1  0.10357100  0.39384000  0.04246600  1
  C  649  1  0.10460000  0.38708300  0.05920000  1
  C  661  1  0.00669800  0.63766700  0.88609100  1
  C  662  1  0.91894800  0.64424600  0.89877400  1
  C  663  1  0.91843900  0.63775500  0.91558300  1
  C  664  1  0.00717300  0.62452900  0.92057100  1
  C  665  1  0.09599600  0.61773800  0.90806400  1
  C  666  1  0.09438300  0.62429400  0.89112200  1
  C  668  1  0.00145600  0.61794500  0.93767100  1
  C  669  1  0.89149400  0.60783200  0.94340400  1
  C  670  1  0.89282500  0.60085200  0.96015400  1
  C  671  1  0.00010267  0.60392200  0.97167200  1
  C  672  1  0.10774000  0.61428200  0.96592200  1
  C  673  1  0.10889000  0.62102800  0.94918500  1
  C  685  1  0.00388500  0.88608200  0.37075200  1
  C  686  1  0.91559500  0.89873000  0.36421900  1
  C  687  1  0.91485100  0.91554000  0.37071200  1
  C  688  1  0.00395600  0.92056400  0.38388700  1
  C  689  1  0.09329900  0.90809200  0.39063000  1
  C  690  1  0.09187100  0.89114900  0.38408100  1
  C  692  1  0.99818300  0.93766500  0.39046400  1
  C  693  1  0.88941500  0.94330800  0.40082800  1
  C  694  1  0.89089900  0.96005700  0.40781100  1
  C  695  1  0.99723200  0.97166600  0.40451900  1
  C  696  1  0.10355100  0.96599500  0.39390100  1
  C  697  1  0.10456900  0.94926200  0.38714100  1
  C  709  1  0.00671000  0.12236300  0.63771700  1
  C  710  1  0.91893300  0.10968200  0.64429600  1
  C  711  1  0.91841900  0.09287100  0.63781000  1
  C  712  1  0.00717200  0.08787900  0.62458600  1
  C  713  1  0.09600800  0.10038400  0.61779500  1
  C  714  1  0.09440400  0.11732700  0.62434600  1
  C  716  1  0.00145000  0.07077700  0.61800700  1
  C  717  1  0.89141300  0.06503500  0.60791300  1
  C  718  1  0.89272900  0.04828300  0.60094100  1
  C  719  1  0.00002500  0.03676500  0.60400700  1
  C  720  1  0.10778600  0.04253200  0.61433700  1
  C  721  1  0.10895400  0.05927200  0.62107700  1
  C  733  1  0.01822600  0.63772300  0.12126500  1
  C  734  1  0.10601200  0.64424300  0.10855400  1
  C  735  1  0.10576300  0.63778100  0.09173300  1
  C  736  1  0.01623800  0.62463500  0.08675200  1
  C  737  1  0.92735400  0.61790700  0.09928700  1
  C  738  1  0.92971400  0.62443400  0.11624000  1
  C  740  1  0.02110800  0.61808100  0.06962800  1
  C  741  1  0.13121200  0.60807600  0.06374400  1
  C  742  1  0.12894800  0.60109800  0.04699400  1
  C  743  1  0.02056000  0.60407700  0.03561600  1
  C  744  1  0.91277200  0.61432000  0.04151000  1
  C  745  1  0.91259600  0.62106400  0.05824900  1
  C  757  1  0.02089800  0.37066300  0.88724600  1
  C  758  1  0.10951900  0.36420100  0.89989300  1
  C  759  1  0.10959000  0.37065000  0.91671800  1
  C  760  1  0.01950700  0.38370900  0.92176100  1
  C  761  1  0.92979400  0.39037900  0.90929100  1
  C  762  1  0.93187700  0.38387400  0.89233100  1
  C  764  1  0.02468400  0.39025400  0.93887900  1
  C  765  1  0.13356200  0.40054500  0.94462400  1
  C  766  1  0.13143900  0.40751400  0.96137700  1
  C  767  1  0.02436100  0.40427300  0.97288600  1
  C  768  1  0.91788600  0.39373600  0.96711800  1
  C  769  1  0.91755200  0.38698500  0.95038500  1
  C  781  1  0.02090800  0.12120800  0.37072100  1
  C  782  1  0.10947200  0.10855700  0.36425500  1
  C  783  1  0.10955500  0.09173200  0.37070700  1
  C  784  1  0.01952600  0.08669400  0.38377400  1
  C  785  1  0.92986000  0.09916800  0.39044800  1
  C  786  1  0.93194200  0.11612700  0.38393900  1
  C  788  1  0.02469800  0.06957600  0.39032100  1
  C  789  1  0.13360300  0.06382800  0.40060600  1
  C  790  1  0.13147500  0.04707700  0.40757800  1
  C  791  1  0.02437600  0.03556900  0.40434200  1
  C  792  1  0.91787400  0.04133900  0.39381200  1
  C  793  1  0.91753700  0.05807300  0.38705900  1
  C  805  1  0.01820400  0.88718000  0.63778200  1
  C  806  1  0.10602100  0.89988600  0.64430300  1
  C  807  1  0.10577400  0.91670900  0.63784600  1
  C  808  1  0.01620800  0.92169500  0.62470600  1
  C  809  1  0.92728400  0.90916400  0.61797800  1
  C  810  1  0.92964200  0.89221100  0.62450100  1
  C  812  1  0.02110000  0.93881900  0.61815300  1
  C  813  1  0.13115100  0.94469400  0.60813300  1
  C  814  1  0.12889100  0.96144300  0.60115200  1
  C  815  1  0.02053400  0.97282400  0.60413900  1
  C  816  1  0.91283800  0.96694200  0.61440300  1
  C  817  1  0.91265600  0.95020500  0.62115100  1
  C  829  1  0.00872500  0.45866200  0.00462300  1
  C  830  1  0.92547800  0.46796600  0.99326000  1
  C  831  1  0.92470200  0.48595200  0.99324100  1
  C  832  1  0.00855400  0.49527000  0.00445700  1
  C  833  1  0.09300100  0.48621800  0.01593500  1
  C  834  1  0.09173600  0.46810000  0.01591200  1
  C  836  1  0.00477400  0.51345900  0.00418600  1
  C  837  1  0.89759400  0.52273600  0.01181200  1
  C  838  1  0.90056900  0.54085200  0.01170100  1
  C  839  1  0.00682900  0.54994300  0.00381700  1
  C  840  1  0.11183900  0.54053000  0.99605800  1
  C  841  1  0.11161800  0.52254700  0.99641700  1
  C  853  1  0.00875500  0.00383700  0.45873500  1
  C  854  1  0.92551000  0.01520200  0.46803700  1
  C  855  1  0.92473300  0.01522200  0.48602300  1
  C  856  1  0.00858400  0.00400600  0.49534300  1
  C  857  1  0.09302700  0.99252700  0.48629100  1
  C  858  1  0.09177000  0.99255000  0.46817400  1
  C  860  1  0.00479800  0.00427700  0.51353200  1
  C  861  1  0.89761000  0.99665100  0.52280600  1
  C  862  1  0.90057900  0.99675900  0.54092300  1
  C  863  1  0.00684000  0.00464100  0.55001600  1
  C  864  1  0.11185000  0.01240000  0.54060400  1
  C  865  1  0.11163700  0.01204400  0.52262100  1
  C  877  1  0.00900500  0.27053200  0.41024800  1
  C  878  1  0.09146900  0.26506500  0.39654800  1
  C  879  1  0.09149900  0.24791800  0.39106500  1
  C  880  1  0.00847300  0.23554900  0.39900300  1
  C  881  1  0.92389600  0.24082300  0.41263900  1
  C  882  1  0.92555800  0.25810700  0.41808000  1
  C  884  1  0.00906500  0.21832700  0.39287500  1
  C  885  1  0.12528700  0.20773500  0.39377800  1
  C  886  1  0.12185800  0.19102300  0.38671200  1
  C  887  1  0.00478200  0.18461400  0.37867600  1
  C  888  1  0.88981100  0.19525100  0.37789300  1
  C  889  1  0.89148400  0.21174500  0.38503600  1
  C  901  1  0.00861000  0.73783500  0.59823800  1
  C  902  1  0.09086500  0.74330300  0.61195800  1
  C  903  1  0.09073200  0.76044600  0.61744800  1
  C  904  1  0.00774800  0.77281200  0.60950200  1
  C  905  1  0.92337000  0.76753800  0.59584500  1
  C  906  1  0.92518500  0.75025600  0.59039600  1
  C  908  1  0.00818100  0.79003400  0.61563400  1
  C  909  1  0.12439700  0.80062900  0.61477700  1
  C  910  1  0.12073300  0.81734200  0.62183600  1
  C  911  1  0.00343200  0.82377000  0.62981000  1
  C  912  1  0.88855400  0.81311400  0.63056100  1
  C  913  1  0.89041600  0.79661400  0.62342800  1
  C  925  1  0.00862400  0.59818900  0.27060500  1
  C  926  1  0.09088400  0.61191000  0.26513500  1
  C  927  1  0.09075400  0.61740000  0.24799200  1
  C  928  1  0.00777300  0.60945200  0.23562600  1
  C  929  1  0.92340000  0.59579600  0.24090100  1
  C  930  1  0.92520600  0.59034800  0.25818200  1
  C  932  1  0.00819300  0.61558500  0.21840500  1
  C  933  1  0.12440600  0.61472800  0.20780800  1
  C  934  1  0.12075400  0.62179100  0.19109600  1
  C  935  1  0.00345400  0.62977500  0.18468100  1
  C  936  1  0.88855000  0.63052100  0.19533000  1
  C  937  1  0.89043000  0.62338400  0.21182800  1
  C  949  1  0.00893700  0.41019000  0.73791300  1
  C  950  1  0.09137800  0.39648800  0.74338000  1
  C  951  1  0.09140700  0.39100400  0.76052600  1
  C  952  1  0.00841400  0.39894400  0.77289500  1
  C  953  1  0.92386000  0.41258300  0.76762300  1
  C  954  1  0.92551800  0.41802500  0.75033900  1
  C  956  1  0.00901500  0.39281800  0.79011900  1
  C  957  1  0.12527700  0.39370800  0.80070400  1
  C  958  1  0.12183300  0.38664700  0.81741700  1
  C  959  1  0.00470200  0.37863300  0.82384300  1
  C  960  1  0.88973800  0.37785800  0.81320700  1
  C  961  1  0.89140300  0.38499500  0.79670800  1
  C  973  1  0.01633900  0.73669700  0.41006300  1
  C  974  1  0.93731300  0.74201700  0.39598200  1
  C  975  1  0.93703500  0.75915700  0.39048500  1
  C  976  1  0.01620800  0.77168000  0.39880000  1
  C  977  1  0.09731300  0.76656200  0.41282800  1
  C  978  1  0.09611300  0.74927400  0.41825900  1
  C  980  1  0.01507300  0.78891400  0.39270200  1
  C  981  1  0.89694000  0.79919800  0.39296400  1
  C  982  1  0.90019800  0.81593400  0.38596500  1
  C  983  1  0.01903700  0.82269400  0.37866100  1
  C  984  1  0.13578500  0.81235200  0.37847600  1
  C  985  1  0.13421700  0.79582500  0.38555000  1
  C  997  1  0.01692200  0.27174600  0.59839200  1
  C  998  1  0.93816600  0.26641800  0.61249300  1
  C  999  1  0.93806400  0.24927900  0.61798900  1
  C  1000  1  0.01712500  0.23676200  0.60964800  1
  C  1001  1  0.09794400  0.24188700  0.59559600  1
  C  1002  1  0.09659700  0.25917600  0.59017200  1
  C  1004  1  0.01615900  0.21952800  0.61574400  1
  C  1005  1  0.89800700  0.20924700  0.61554000  1
  C  1006  1  0.90146100  0.19251100  0.62253700  1
  C  1007  1  0.02053300  0.18574800  0.62977700  1
  C  1008  1  0.13729400  0.19608700  0.62990600  1
  C  1009  1  0.13551900  0.21261500  0.62283600  1
  C  1021  1  0.01633800  0.41002600  0.27176400  1
  C  1022  1  0.93733800  0.39594400  0.26644300  1
  C  1023  1  0.93706100  0.39044800  0.24930300  1
  C  1024  1  0.01621800  0.39876600  0.23678100  1
  C  1025  1  0.09730300  0.41279600  0.24190000  1
  C  1026  1  0.09610300  0.41822500  0.25918700  1
  C  1028  1  0.01507800  0.39266900  0.21954600  1
  C  1029  1  0.89692800  0.39292400  0.20926600  1
  C  1030  1  0.90018500  0.38592600  0.19252900  1
  C  1031  1  0.01904100  0.37863100  0.18576600  1
  C  1032  1  0.13580500  0.37845200  0.19610500  1
  C  1033  1  0.13423700  0.38552600  0.21263300  1
  C  1045  1  0.01688500  0.59834500  0.73671400  1
  C  1046  1  0.93809900  0.61244200  0.74204300  1
  C  1047  1  0.93799300  0.61793800  0.75918200  1
  C  1048  1  0.01709500  0.60960200  0.77169800  1
  C  1049  1  0.09796200  0.59555400  0.76657200  1
  C  1050  1  0.09661100  0.59012800  0.74928400  1
  C  1052  1  0.01613800  0.61569800  0.78893200  1
  C  1053  1  0.89801700  0.61547800  0.79921900  1
  C  1054  1  0.90144800  0.62247800  0.81595400  1
  C  1055  1  0.02046900  0.62974300  0.82269900  1
  C  1056  1  0.13724100  0.62988400  0.81236300  1
  C  1057  1  0.13546700  0.62280900  0.79583600  1
  C  1069  1  0.02325600  0.31101800  0.45858800  1
  C  1070  1  0.92915900  0.32173500  0.46693800  1
  C  1071  1  0.92516500  0.32289900  0.48492500  1
  C  1072  1  0.01678200  0.31364800  0.49523700  1
  C  1073  1  0.11358500  0.30308900  0.48706600  1
  C  1074  1  0.11560600  0.30193100  0.46898100  1
  C  1076  1  0.00412800  0.31398300  0.51344900  1
  C  1077  1  0.90018800  0.30483400  0.52192000  1
  C  1078  1  0.89880600  0.30401200  0.54003000  1
  C  1079  1  0.99834000  0.31216600  0.55010900  1
  C  1080  1  0.09952100  0.32153700  0.54149400  1
  C  1081  1  0.10308600  0.32228300  0.52348600  1
  C  1093  1  0.02322500  0.69736900  0.54988300  1
  C  1094  1  0.92909800  0.68666300  0.54152500  1
  C  1095  1  0.92511600  0.68551200  0.52353500  1
  C  1096  1  0.01677300  0.69476800  0.51323200  1
  C  1097  1  0.11360600  0.70531400  0.52141200  1
  C  1098  1  0.11561200  0.70645900  0.53949900  1
  C  1100  1  0.00411800  0.69444900  0.49501900  1
  C  1101  1  0.90023200  0.70361300  0.48655600  1
  C  1102  1  0.89882500  0.70444400  0.46844600  1
  C  1103  1  0.99826000  0.69628100  0.45835700  1
  C  1104  1  0.09941600  0.68690100  0.46696700  1
  C  1105  1  0.10301400  0.68614600  0.48497500  1
  C  1117  1  0.02315600  0.54984000  0.31107700  1
  C  1118  1  0.92908400  0.54148500  0.32179400  1
  C  1119  1  0.92511500  0.52349700  0.32295000  1
  C  1120  1  0.01674400  0.51319100  0.31369600  1
  C  1121  1  0.11355900  0.52136700  0.30314200  1
  C  1122  1  0.11555600  0.53945400  0.30199100  1
  C  1124  1  0.00408800  0.49497700  0.31401900  1
  C  1125  1  0.90018200  0.48651200  0.30486000  1
  C  1126  1  0.89878500  0.46840400  0.30402700  1
  C  1127  1  0.99827800  0.45831800  0.31218100  1
  C  1128  1  0.09942500  0.46692600  0.32156400  1
  C  1129  1  0.10300600  0.48493400  0.32231800  1
  C  1141  1  0.02323800  0.45854400  0.69744400  1
  C  1142  1  0.92918900  0.46689300  0.68672100  1
  C  1143  1  0.92520700  0.48488100  0.68556000  1
  C  1144  1  0.01681200  0.49519000  0.69481600  1
  C  1145  1  0.11359900  0.48701900  0.70537500  1
  C  1146  1  0.11560600  0.46893200  0.70653200  1
  C  1148  1  0.00416400  0.51340300  0.69448200  1
  C  1149  1  0.90020800  0.52187400  0.70362700  1
  C  1150  1  0.89881600  0.53998400  0.70444700  1
  C  1151  1  0.99830800  0.55006400  0.69628800  1
  C  1152  1  0.09956200  0.54144700  0.68693200  1
  C  1153  1  0.10314600  0.52343900  0.68618800  1
  C  1165  1  0.00815100  0.33299800  0.39859700  1
  C  1166  1  0.09780300  0.34701600  0.39994100  1
  C  1167  1  0.09989400  0.36013300  0.38756500  1
  C  1168  1  0.01059500  0.35994700  0.37348200  1
  C  1169  1  0.91881400  0.34612000  0.37200300  1
  C  1170  1  0.91890400  0.33292200  0.38445700  1
  C  1172  1  0.01857300  0.37303900  0.36072600  1
  C  1173  1  0.11994800  0.37288500  0.34792600  1
  C  1174  1  0.11893000  0.38545300  0.33483400  1
  C  1175  1  0.01999100  0.39848100  0.33416000  1
  C  1176  1  0.92104300  0.39860600  0.34718400  1
  C  1177  1  0.91944900  0.38602000  0.36010100  1
  C  1189  1  0.00799000  0.67536500  0.60986600  1
  C  1190  1  0.09779200  0.66136200  0.60853000  1
  C  1191  1  0.09994900  0.64824700  0.62090800  1
  C  1192  1  0.01059500  0.64842300  0.63498600  1
  C  1193  1  0.91870100  0.66223800  0.63645800  1
  C  1194  1  0.91872200  0.67543400  0.62400300  1
  C  1196  1  0.01862900  0.63533500  0.64774400  1
  C  1197  1  0.11999800  0.63549800  0.66054500  1
  C  1198  1  0.11903000  0.62293300  0.67364000  1
  C  1199  1  0.02013100  0.60990200  0.67431800  1
  C  1200  1  0.92120400  0.60976400  0.66129100  1
  C  1201  1  0.91956900  0.62234700  0.64837200  1
  C  1213  1  0.00792500  0.60982800  0.33307300  1
  C  1214  1  0.09770100  0.60849600  0.34708000  1
  C  1215  1  0.09982800  0.62087700  0.36019300  1
  C  1216  1  0.01047300  0.63495500  0.36001100  1
  C  1217  1  0.91860200  0.63642400  0.34619200  1
  C  1218  1  0.91865200  0.62396400  0.33299900  1
  C  1220  1  0.01848600  0.64771700  0.37309700  1
  C  1221  1  0.11980500  0.66052400  0.37292900  1
  C  1222  1  0.11879700  0.67362300  0.38549000  1
  C  1223  1  0.01992900  0.67429700  0.39852500  1
  C  1224  1  0.92103200  0.66126400  0.39866400  1
  C  1225  1  0.91942900  0.64834300  0.38608600  1
  C  1237  1  0.00815100  0.39856100  0.67544300  1
  C  1238  1  0.09788100  0.39990500  0.66143300  1
  C  1239  1  0.10000900  0.38753300  0.64831200  1
  C  1240  1  0.01069500  0.37345100  0.64849100  1
  C  1241  1  0.91887400  0.37196700  0.66231400  1
  C  1242  1  0.91892500  0.38441900  0.67551300  1
  C  1244  1  0.01870900  0.36069800  0.63539600  1
  C  1245  1  0.12013800  0.34790600  0.63554400  1
  C  1246  1  0.11916100  0.33481700  0.62297200  1
  C  1247  1  0.02021700  0.33414000  0.60994600  1
  C  1248  1  0.92121300  0.34715900  0.60982600  1
  C  1249  1  0.91957800  0.36007000  0.62241600  1
  H  7  1  0.02304600  0.07664500  0.11335800  1
  H  8  1  0.99478000  0.11488300  0.07557100  1
  H  9  1  0.99707500  0.06310000  0.06151300  1
  H  16  1  0.02299500  0.93179200  0.89507600  1
  H  17  1  0.99469000  0.89357300  0.93288000  1
  H  18  1  0.99707900  0.94536100  0.94691500  1
  H  25  1  0.02301600  0.89508100  0.07664900  1
  H  26  1  0.99469900  0.93287500  0.11487900  1
  H  27  1  0.99707800  0.94692200  0.06309300  1
  H  34  1  0.02296600  0.11336400  0.93179600  1
  H  35  1  0.99471400  0.07557000  0.89356700  1
  H  36  1  0.99698900  0.06152200  0.94535200  1
  H  43  1  0.01720600  0.22129500  0.22176000  1
  H  44  1  0.02852200  0.16947900  0.20758300  1
  H  45  1  0.00649300  0.20749400  0.16983900  1
  H  52  1  0.01729700  0.78708100  0.78674900  1
  H  53  1  0.02814900  0.83890300  0.80091000  1
  H  54  1  0.00695100  0.80089400  0.83866900  1
  H  61  1  0.01677300  0.78671600  0.22133600  1
  H  62  1  0.02802700  0.80087700  0.16951500  1
  H  63  1  0.00642700  0.83863300  0.20752200  1
  H  70  1  0.01776100  0.22172900  0.78712000  1
  H  71  1  0.02865300  0.20755300  0.83893600  1
  H  72  1  0.00701100  0.16980700  0.80091900  1
  H  79  1  0.01126400  0.39102300  0.00487400  1
  H  80  1  0.99579800  0.43767200  0.03148000  1
  H  81  1  0.02278200  0.43750600  0.97795400  1
  H  88  1  0.01116600  0.61735800  0.00361100  1
  H  89  1  0.00164200  0.57063300  0.97694600  1
  H  90  1  0.01492800  0.57078500  0.03054600  1
  H  97  1  0.01129100  0.00357900  0.39109500  1
  H  98  1  0.99583900  0.97697800  0.43774800  1
  H  99  1  0.02280300  0.03050500  0.43757500  1
  H  106  1  0.01110800  0.00482500  0.61743000  1
  H  107  1  0.00163700  0.03150600  0.57071400  1
  H  108  1  0.01495900  0.97790600  0.57084900  1
  H  115  1  0.01573300  0.33423900  0.43305500  1
  H  116  1  0.01905700  0.28142600  0.44238600  1
  H  117  1  0.00639800  0.29955900  0.39201300  1
  H  124  1  0.01571400  0.67413700  0.57540800  1
  H  125  1  0.01890100  0.72695400  0.56609600  1
  H  126  1  0.00607300  0.70880200  0.61646100  1
  H  133  1  0.01564300  0.57537000  0.33430800  1
  H  134  1  0.01888000  0.56605000  0.28149200  1
  H  135  1  0.00606300  0.61641800  0.29963500  1
  H  142  1  0.01574900  0.43301600  0.67421400  1
  H  143  1  0.01903700  0.44233100  0.72702900  1
  H  144  1  0.00636700  0.39196400  0.70888100  1
  H  151  1  0.00817100  0.67296900  0.43291500  1
  H  152  1  0.00080500  0.72579600  0.44221700  1
  H  153  1  0.02452700  0.70759500  0.39186300  1
  H  160  1  0.00825300  0.33548000  0.57555500  1
  H  161  1  0.00105200  0.28265400  0.56624100  1
  H  162  1  0.02506400  0.30084400  0.61659800  1
  H  169  1  0.00820700  0.43287200  0.33549500  1
  H  170  1  0.00079000  0.44217900  0.28266800  1
  H  171  1  0.02456800  0.39182400  0.30086200  1
  H  178  1  0.00822300  0.57551000  0.67298000  1
  H  179  1  0.00106200  0.56619400  0.72580500  1
  H  180  1  0.02500700  0.61655100  0.70761700  1
  H  187  1  0.01030200  0.15123900  0.38789700  1
  H  188  1  0.03104200  0.13114500  0.33791800  1
  H  189  1  0.01862300  0.18416600  0.34563300  1
  H  196  1  0.00830800  0.85714200  0.62060300  1
  H  197  1  0.02854000  0.87722500  0.67058900  1
  H  198  1  0.01739700  0.82420400  0.66285100  1
  H  205  1  0.00837300  0.62055400  0.15131100  1
  H  206  1  0.02850000  0.67053300  0.13120800  1
  H  207  1  0.01737800  0.66281500  0.18423100  1
  H  214  1  0.01020500  0.38784700  0.85722000  1
  H  215  1  0.03115200  0.33786500  0.87730100  1
  H  216  1  0.01867400  0.34559200  0.82428100  1
  H  223  1  0.01326300  0.85604000  0.38790200  1
  H  224  1  0.99618100  0.87617800  0.33792500  1
  H  225  1  0.00807200  0.82314200  0.34561000  1
  H  232  1  0.01546700  0.15240200  0.62055100  1
  H  233  1  0.99889500  0.13228200  0.67054100  1
  H  234  1  0.00945100  0.18531800  0.66282600  1
  H  241  1  0.01326500  0.38786100  0.15241800  1
  H  242  1  0.99619200  0.33787700  0.13229400  1
  H  243  1  0.00807100  0.34558100  0.18532800  1
  H  250  1  0.01541300  0.62051000  0.85604600  1
  H  251  1  0.99894400  0.67049500  0.87618000  1
  H  252  1  0.00947600  0.66279400  0.82314200  1
  H  259  1  0.86430700  0.15860100  0.18518600  1
  H  266  1  0.19125100  0.10158800  0.12107900  1
  H  267  1  0.83321000  0.12311900  0.10143300  1
  H  268  1  0.17031100  0.18493000  0.15852500  1
  H  269  1  0.83755200  0.14441400  0.12331200  1
  H  270  1  0.16814600  0.16348000  0.13683100  1
  H  283  1  0.86403400  0.84975900  0.82332000  1
  H  290  1  0.19117400  0.90683900  0.88736700  1
  H  291  1  0.83309900  0.88532700  0.90702400  1
  H  292  1  0.17052600  0.82349600  0.84995600  1
  H  293  1  0.83745100  0.86401500  0.88516100  1
  H  294  1  0.16831400  0.84495800  0.87163800  1
  H  307  1  0.86398300  0.82328600  0.15863600  1
  H  314  1  0.19116200  0.88736200  0.10159900  1
  H  315  1  0.83312000  0.90701800  0.12312000  1
  H  316  1  0.17020400  0.84992800  0.18494500  1
  H  317  1  0.83743200  0.88514600  0.14442200  1
  H  318  1  0.16810100  0.87161700  0.16348900  1
  H  331  1  0.86435200  0.18515700  0.84979300  1
  H  338  1  0.19120600  0.12107400  0.90685000  1
  H  339  1  0.83312500  0.10143100  0.88532500  1
  H  340  1  0.17060700  0.15849700  0.82350900  1
  H  341  1  0.83752300  0.12330100  0.86402000  1
  H  342  1  0.16832200  0.13680900  0.84496600  1
  H  355  1  0.17802400  0.07500600  0.96440400  1
  H  362  1  0.80829600  0.07954100  0.04375700  1
  H  363  1  0.16626600  0.10836100  0.04784600  1
  H  364  1  0.85719600  0.10994500  0.95870400  1
  H  365  1  0.17292700  0.11141900  0.01744900  1
  H  366  1  0.85049900  0.11393300  0.98898500  1
  H  379  1  0.17814400  0.93343800  0.04404300  1
  H  386  1  0.80835600  0.92894400  0.96469000  1
  H  387  1  0.16614500  0.90008800  0.96059300  1
  H  388  1  0.85722600  0.89851300  0.04973700  1
  H  389  1  0.17284200  0.89703200  0.99099000  1
  H  390  1  0.85047100  0.89453600  0.01945500  1
  H  403  1  0.17807400  0.04403900  0.07499000  1
  H  410  1  0.80828100  0.96468600  0.07952300  1
  H  411  1  0.16619600  0.96059700  0.10835400  1
  H  412  1  0.85727700  0.04974100  0.10993200  1
  H  413  1  0.17290000  0.99099400  0.11140500  1
  H  414  1  0.85052000  0.01946000  0.11391500  1
  H  427  1  0.17816000  0.96440700  0.93342100  1
  H  434  1  0.80829600  0.04375200  0.92892400  1
  H  435  1  0.16614500  0.04785500  0.90008100  1
  H  436  1  0.85719100  0.95870600  0.89850400  1
  H  437  1  0.17285100  0.01745900  0.89701900  1
  H  438  1  0.85044000  0.98898800  0.89452200  1
  H  451  1  0.20490800  0.17802700  0.32313200  1
  H  458  1  0.85620900  0.20328100  0.24259300  1
  H  459  1  0.20160100  0.17359900  0.23234100  1
  H  460  1  0.86787100  0.14653100  0.31396100  1
  H  461  1  0.20314600  0.16371400  0.26118900  1
  H  462  1  0.86778500  0.15511900  0.28459500  1
  H  475  1  0.20356300  0.83039200  0.68534000  1
  H  482  1  0.85587600  0.80506000  0.76594000  1
  H  483  1  0.20103700  0.83480700  0.77612500  1
  H  484  1  0.86602000  0.86179000  0.69455600  1
  H  485  1  0.20216100  0.84468600  0.74727500  1
  H  486  1  0.86634300  0.85320000  0.72392300  1
  H  499  1  0.20351800  0.68530800  0.17803100  1
  H  506  1  0.85561900  0.76589700  0.20335400  1
  H  507  1  0.20077500  0.77609400  0.17361100  1
  H  508  1  0.86590900  0.69450400  0.14663900  1
  H  509  1  0.20196500  0.74724300  0.16373200  1
  H  510  1  0.86617200  0.72387300  0.15522100  1
  H  523  1  0.20505000  0.32310000  0.83041800  1
  H  530  1  0.85651200  0.24255300  0.80513200  1
  H  531  1  0.20188500  0.23230900  0.83481900  1
  H  532  1  0.86796700  0.31390600  0.86189900  1
  H  533  1  0.20337600  0.26115700  0.84470700  1
  H  534  1  0.86792700  0.28454500  0.85329600  1
  H  547  1  0.82468400  0.82914500  0.32285200  1
  H  554  1  0.17789800  0.80466600  0.24237200  1
  H  555  1  0.83189500  0.83423800  0.23213300  1
  H  556  1  0.16025000  0.86101900  0.31412700  1
  H  557  1  0.82888800  0.84390100  0.26105500  1
  H  558  1  0.16246400  0.85257500  0.28472200  1
  H  571  1  0.82605500  0.17923200  0.68558100  1
  H  578  1  0.17873500  0.20381300  0.76609300  1
  H  579  1  0.83293900  0.17418500  0.77629000  1
  H  580  1  0.16255400  0.14752000  0.69432500  1
  H  581  1  0.83021900  0.16452700  0.74736700  1
  H  582  1  0.16440100  0.15596400  0.72373000  1
  H  595  1  0.82471500  0.32281700  0.17933500  1
  H  602  1  0.17812600  0.24234100  0.20380100  1
  H  603  1  0.83196500  0.23209700  0.17425800  1
  H  604  1  0.16022400  0.31408900  0.14745000  1
  H  605  1  0.82887400  0.26101900  0.16459600  1
  H  606  1  0.16244500  0.28468500  0.15589800  1
  H  619  1  0.82609600  0.68554800  0.82923200  1
  H  626  1  0.17850300  0.76606500  0.80465700  1
  H  627  1  0.83286400  0.77625700  0.83431600  1
  H  628  1  0.16253400  0.69428600  0.86095600  1
  H  629  1  0.83024000  0.74733400  0.84397600  1
  H  630  1  0.16434000  0.72369600  0.85252500  1
  H  643  1  0.15838500  0.38898300  0.12598600  1
  H  650  1  0.81292600  0.41547800  0.04470900  1
  H  651  1  0.18432600  0.39151600  0.03466900  1
  H  652  1  0.84809400  0.35476000  0.11275300  1
  H  653  1  0.18498300  0.37977800  0.06292600  1
  H  654  1  0.84827000  0.36560300  0.08430600  1
  H  667  1  0.16048700  0.61930300  0.88241900  1
  H  674  1  0.81408000  0.59327100  0.96390400  1
  H  675  1  0.18907600  0.61643700  0.97367000  1
  H  676  1  0.85164900  0.65368600  0.89578800  1
  H  677  1  0.19003600  0.62816500  0.94540000  1
  H  678  1  0.85224600  0.64284400  0.92422900  1
  H  691  1  0.15836000  0.88247100  0.38903400  1
  H  698  1  0.81301500  0.96373900  0.41556400  1
  H  699  1  0.18427600  0.97379500  0.39157200  1
  H  700  1  0.84809100  0.89571600  0.35481100  1
  H  701  1  0.18491200  0.94554100  0.37982700  1
  H  702  1  0.84827200  0.92416000  0.36566200  1
  H  715  1  0.16052600  0.12602800  0.61935600  1
  H  722  1  0.81393400  0.04452700  0.59337100  1
  H  723  1  0.18917800  0.03478900  0.61648000  1
  H  724  1  0.85161900  0.11267100  0.65373300  1
  H  725  1  0.19017100  0.06306300  0.62819800  1
  H  726  1  0.85221600  0.08422800  0.64289900  1
  H  739  1  0.86352000  0.61948700  0.12495700  1
  H  746  1  0.20770900  0.59356900  0.04314600  1
  H  747  1  0.83065500  0.61638600  0.03387000  1
  H  748  1  0.17387900  0.65362200  0.11152600  1
  H  749  1  0.83129900  0.62811700  0.06213900  1
  H  750  1  0.17196400  0.64283600  0.08306900  1
  H  763  1  0.86510800  0.38877000  0.88365500  1
  H  770  1  0.20928600  0.41524200  0.96512500  1
  H  771  1  0.83659500  0.39147100  0.97484400  1
  H  772  1  0.17772200  0.35487900  0.89686800  1
  H  773  1  0.83709900  0.37972800  0.94658700  1
  H  774  1  0.17641200  0.36564900  0.92533900  1
  H  787  1  0.86520300  0.12480500  0.38883800  1
  H  794  1  0.20934600  0.04332700  0.41530200  1
  H  795  1  0.83656200  0.03361600  0.39155100  1
  H  796  1  0.17764000  0.11157700  0.35492600  1
  H  797  1  0.83706800  0.06187200  0.37980600  1
  H  798  1  0.17634000  0.08311000  0.36570300  1
  H  811  1  0.86341900  0.88349500  0.61955600  1
  H  818  1  0.20760700  0.96528600  0.59361200  1
  H  819  1  0.83077400  0.97458800  0.61648000  1
  H  820  1  0.17391900  0.89691100  0.65367700  1
  H  821  1  0.83141100  0.94632100  0.62821600  1
  H  822  1  0.17201400  0.92537000  0.64289900  1
  H  835  1  0.15438600  0.46177800  0.02415200  1
  H  842  1  0.82284800  0.54743100  0.01725200  1
  H  843  1  0.19097400  0.54670900  0.99038100  1
  H  844  1  0.86209800  0.46170600  0.98506600  1
  H  845  1  0.19012700  0.51612600  0.99086000  1
  H  846  1  0.86235000  0.49220000  0.98490000  1
  H  859  1  0.15441600  0.98430900  0.46185200  1
  H  866  1  0.82285800  0.99120700  0.54750100  1
  H  867  1  0.19099200  0.01807600  0.54678500  1
  H  868  1  0.86213300  0.02339500  0.46177800  1
  H  869  1  0.19015500  0.01760100  0.51620000  1
  H  870  1  0.86238100  0.02356300  0.49227100  1
  H  883  1  0.86308500  0.26162200  0.42787000  1
  H  890  1  0.20806700  0.18382700  0.38673400  1
  H  891  1  0.80527500  0.19130200  0.37150800  1
  H  892  1  0.15506200  0.27347600  0.39062500  1
  H  893  1  0.80728700  0.21921300  0.38379200  1
  H  894  1  0.15264000  0.24455300  0.38108400  1
  H  907  1  0.86284400  0.74674200  0.58059300  1
  H  914  1  0.20693800  0.82453900  0.62184500  1
  H  915  1  0.80384900  0.81705900  0.63691300  1
  H  916  1  0.15443600  0.73489500  0.61788900  1
  H  917  1  0.80620100  0.78914500  0.62464400  1
  H  918  1  0.15172400  0.76381200  0.62744500  1
  H  931  1  0.86286400  0.58054400  0.26169700  1
  H  938  1  0.20694800  0.62179900  0.18389700  1
  H  939  1  0.80385900  0.63687600  0.19138600  1
  H  940  1  0.15444500  0.61784100  0.27354400  1
  H  941  1  0.80622000  0.62459800  0.21929700  1
  H  942  1  0.15174400  0.62739500  0.24462700  1
  H  955  1  0.86306600  0.42781800  0.74682700  1
  H  962  1  0.20807600  0.38666000  0.82460800  1
  H  963  1  0.80517000  0.37148200  0.81716000  1
  H  964  1  0.15496200  0.39056400  0.73496700  1
  H  965  1  0.80717100  0.38375800  0.78924600  1
  H  966  1  0.15252900  0.38102200  0.76389000  1
  H  979  1  0.15612100  0.74588100  0.42833300  1
  H  986  1  0.81291600  0.82290800  0.38551600  1
  H  987  1  0.22178600  0.81653900  0.37257600  1
  H  988  1  0.87629800  0.73350200  0.38978100  1
  H  989  1  0.21993600  0.78857700  0.38475900  1
  H  990  1  0.87843300  0.76240700  0.38022500  1
  H  1003  1  0.15642200  0.26257300  0.58008100  1
  H  1010  1  0.81418700  0.18553800  0.62303100  1
  H  1011  1  0.22346600  0.19189800  0.63576500  1
  H  1012  1  0.87722900  0.27492900  0.61871500  1
  H  1013  1  0.22126600  0.21986100  0.62358900  1
  H  1014  1  0.87967400  0.24602300  0.62826700  1
  H  1027  1  0.15610000  0.42830000  0.26258100  1
  H  1034  1  0.81289000  0.38547100  0.18555800  1
  H  1035  1  0.22182000  0.37255600  0.19191600  1
  H  1036  1  0.87633700  0.38974000  0.27495800  1
  H  1037  1  0.21996700  0.38473700  0.21987800  1
  H  1038  1  0.87847600  0.38018600  0.24605300  1
  H  1051  1  0.15646200  0.58004100  0.74588400  1
  H  1058  1  0.81420600  0.62296100  0.82293300  1
  H  1059  1  0.22337500  0.63575600  0.81654800  1
  H  1060  1  0.87713400  0.61866000  0.73353400  1
  H  1061  1  0.22118100  0.62357000  0.78858600  1
  H  1062  1  0.87956900  0.62821200  0.76243900  1
  H  1075  1  0.18514400  0.29406400  0.46337200  1
  H  1082  1  0.82478500  0.29703300  0.54589200  1
  H  1083  1  0.17571600  0.32719500  0.54825000  1
  H  1084  1  0.85801300  0.32817700  0.46000500  1
  H  1085  1  0.18072700  0.32868000  0.51771600  1
  H  1086  1  0.85262900  0.33036000  0.49047900  1
  H  1099  1  0.18516300  0.71432000  0.54511300  1
  H  1106  1  0.82482000  0.71143000  0.46258900  1
  H  1107  1  0.17556300  0.68123800  0.46020700  1
  H  1108  1  0.85792300  0.68022000  0.54844900  1
  H  1109  1  0.18062600  0.67973800  0.49074100  1
  H  1110  1  0.85255800  0.67806000  0.51797500  1
  H  1123  1  0.18509200  0.54506600  0.29412600  1
  H  1130  1  0.82477000  0.46254500  0.29704400  1
  H  1131  1  0.17558500  0.46016600  0.32722500  1
  H  1132  1  0.85792800  0.54841200  0.32823800  1
  H  1133  1  0.18062600  0.49070100  0.32872500  1
  H  1134  1  0.85257900  0.51793900  0.33040900  1
  H  1147  1  0.18513300  0.46332200  0.71440000  1
  H  1154  1  0.82478000  0.54584500  0.71142300  1
  H  1155  1  0.17577500  0.54820300  0.68127800  1
  H  1156  1  0.85805900  0.45996300  0.68027500  1
  H  1157  1  0.18081700  0.51767000  0.67979500  1
  H  1158  1  0.85269900  0.49043700  0.67809600  1
  H  1171  1  0.85165000  0.32310300  0.38310300  1
  H  1178  1  0.19233300  0.38502500  0.32565300  1
  H  1179  1  0.84578100  0.40754200  0.34702000  1
  H  1180  1  0.16635600  0.34750700  0.40969100  1
  H  1181  1  0.84408100  0.38633700  0.36902700  1
  H  1182  1  0.16840300  0.36982400  0.38886600  1
  H  1195  1  0.85139700  0.68524600  0.62535300  1
  H  1202  1  0.19243400  0.62336700  0.68282100  1
  H  1203  1  0.84598200  0.60082200  0.66145600  1
  H  1204  1  0.16639200  0.66088000  0.59878400  1
  H  1205  1  0.84420800  0.62202100  0.63944400  1
  H  1206  1  0.16855000  0.63856600  0.61961300  1
  H  1219  1  0.85134600  0.62531300  0.32318500  1
  H  1226  1  0.19216200  0.68280700  0.38505100  1
  H  1227  1  0.84582000  0.66142900  0.40760900  1
  H  1228  1  0.16629700  0.59875100  0.34756600  1
  H  1229  1  0.84409800  0.63941100  0.38641500  1
  H  1230  1  0.16841400  0.61958500  0.36987600  1
  H  1243  1  0.85165000  0.38306200  0.68533000  1
  H  1250  1  0.19260100  0.32564200  0.62339600  1
  H  1251  1  0.84593300  0.34699200  0.60089100  1
  H  1252  1  0.16644200  0.40965400  0.66094800  1
  H  1253  1  0.84417600  0.36899300  0.62210300  1
  H  1254  1  0.16855600  0.38883400  0.63862700  1
  N  271  1  0.84025300  0.13253800  0.16359400  1
  N  272  1  0.22446800  0.12336000  0.14688700  1
  N  295  1  0.83990100  0.87583100  0.84489700  1
  N  296  1  0.22440500  0.88504900  0.86157800  1
  N  319  1  0.83998300  0.84487100  0.13256900  1
  N  320  1  0.22434700  0.86156200  0.12337900  1
  N  343  1  0.84015300  0.16357500  0.87585900  1
  N  344  1  0.22448500  0.14687000  0.88506700  1
  N  367  1  0.19277700  0.07595200  0.99819500  1
  N  368  1  0.78828900  0.08015400  0.00995300  1
  N  391  1  0.19284300  0.93250500  0.01025000  1
  N  392  1  0.78840900  0.92833400  0.99849500  1
  N  415  1  0.19275900  0.01024600  0.07592800  1
  N  416  1  0.78832000  0.99849200  0.08012800  1
  N  439  1  0.19286900  0.99819900  0.93248000  1
  N  440  1  0.78834900  0.00994800  0.92830700  1
  N  463  1  0.22975800  0.19039900  0.29172000  1
  N  464  1  0.83053400  0.19478800  0.27539000  1
  N  487  1  0.22889200  0.81802500  0.71674800  1
  N  488  1  0.82975700  0.81353900  0.73314400  1
  N  511  1  0.22880000  0.71672100  0.19038800  1
  N  512  1  0.82958600  0.73310100  0.19487700  1
  N  535  1  0.22995000  0.29169400  0.81802900  1
  N  536  1  0.83076500  0.27535000  0.81362700  1
  N  559  1  0.80239300  0.81689300  0.29136200  1
  N  560  1  0.20206600  0.81293200  0.27524900  1
  N  583  1  0.80326300  0.19147200  0.71707100  1
  N  584  1  0.20314700  0.19556700  0.73321600  1
  N  607  1  0.80244700  0.29132800  0.19159200  1
  N  608  1  0.20220200  0.27522000  0.19553500  1
  N  631  1  0.80326000  0.71704300  0.81700900  1
  N  632  1  0.20302400  0.73318900  0.81290700  1
  N  655  1  0.18082800  0.40403900  0.09569600  1
  N  656  1  0.78275200  0.40437600  0.07658100  1
  N  679  1  0.18307100  0.60421000  0.91268400  1
  N  680  1  0.78381200  0.60444400  0.93205700  1
  N  703  1  0.18081300  0.91275800  0.40409800  1
  N  704  1  0.78283100  0.93186900  0.40445300  1
  N  727  1  0.18309800  0.09576000  0.60426900  1
  N  728  1  0.78368100  0.07637700  0.60453200  1
  N  751  1  0.83947200  0.60445400  0.09468800  1
  N  752  1  0.23995100  0.60476700  0.07495200  1
  N  775  1  0.84128200  0.40373700  0.91397000  1
  N  776  1  0.24084000  0.40413800  0.93328000  1
  N  799  1  0.84140400  0.09449400  0.40381300  1
  N  800  1  0.24090600  0.07517100  0.40419200  1
  N  823  1  0.83935700  0.91377000  0.60453300  1
  N  824  1  0.23983200  0.93348100  0.60481400  1
  N  847  1  0.17551200  0.49548700  0.02738100  1
  N  848  1  0.79030700  0.51369000  0.01953800  1
  N  871  1  0.17553300  0.98108000  0.49556100  1
  N  872  1  0.79032700  0.98892500  0.51376100  1
  N  895  1  0.84143500  0.22860300  0.42087200  1
  N  896  1  0.24337300  0.21414100  0.40161900  1
  N  919  1  0.84096000  0.77975500  0.58759800  1
  N  920  1  0.24270700  0.79422600  0.60698800  1
  N  943  1  0.84099000  0.58754800  0.22868300  1
  N  944  1  0.24270100  0.60693200  0.21420800  1
  N  967  1  0.84143500  0.42082100  0.77984600  1
  N  968  1  0.24341200  0.40153100  0.79429100  1
  N  991  1  0.17567500  0.77893400  0.42146600  1
  N  992  1  0.77719600  0.79247200  0.40010400  1
  N  1015  1  0.17617000  0.22952000  0.58693000  1
  N  1016  1  0.77804400  0.21597400  0.60845800  1
  N  1039  1  0.17565300  0.42143700  0.22952600  1
  N  1040  1  0.77716600  0.40005800  0.21599400  1
  N  1063  1  0.17623800  0.58689300  0.77893800  1
  N  1064  1  0.77811300  0.60837500  0.79249900  1
  N  1087  1  0.20352800  0.29336700  0.49717000  1
  N  1088  1  0.80227500  0.29612100  0.51209200  1
  N  1111  1  0.20359700  0.71504000  0.51131700  1
  N  1112  1  0.80238700  0.71233200  0.49639000  1
  N  1135  1  0.20353300  0.51127000  0.29341900  1
  N  1136  1  0.80230500  0.49634600  0.29614500  1
  N  1159  1  0.20353800  0.49711900  0.71510100  1
  N  1160  1  0.80229600  0.51204600  0.71234100  1
  N  1183  1  0.83056300  0.34556800  0.35782900  1
  N  1184  1  0.21898800  0.35990000  0.34827700  1
  N  1207  1  0.83041100  0.66278300  0.65062900  1
  N  1208  1  0.21897600  0.64849100  0.66019300  1
  N  1231  1  0.83031000  0.65059400  0.34564200  1
  N  1232  1  0.21876700  0.66017400  0.35993300  1
  N  1255  1  0.83062900  0.35779400  0.66285900  1
  N  1256  1  0.21917500  0.34825700  0.64853000  1
  O  273  1  0.33804100  0.12525000  0.14002100  1
  O  274  1  0.71869600  0.13706400  0.16392100  1
  O  275  1  0.86507800  0.12395200  0.17677800  1
  O  276  1  0.22537600  0.10979500  0.15545200  1
  O  297  1  0.33797400  0.88316200  0.86844700  1
  O  298  1  0.71838400  0.87128600  0.84458800  1
  O  299  1  0.86454700  0.88441200  0.83170400  1
  O  300  1  0.22533000  0.89860600  0.85300100  1
  O  321  1  0.33792400  0.86842600  0.12526800  1
  O  322  1  0.71843400  0.84455700  0.13710000  1
  O  323  1  0.86471900  0.83168300  0.12398600  1
  O  324  1  0.22526000  0.85299100  0.10981700  1
  O  345  1  0.33804500  0.14000100  0.88318000  1
  O  346  1  0.71862500  0.16389600  0.87132100  1
  O  347  1  0.86490000  0.17676300  0.88444400  1
  O  348  1  0.22541100  0.15544300  0.89862800  1
  O  369  1  0.67164600  0.08551900  0.01320700  1
  O  370  1  0.31488000  0.07893000  0.99509900  1
  O  371  1  0.17173200  0.06021000  0.99655900  1
  O  372  1  0.79051300  0.06423800  0.01199100  1
  O  393  1  0.67173100  0.92298100  0.99524400  1
  O  394  1  0.31494300  0.92952100  0.01334200  1
  O  395  1  0.17183300  0.94824800  0.01189400  1
  O  396  1  0.79072400  0.94425000  0.99645700  1
  O  417  1  0.67166600  0.99524100  0.08549000  1
  O  418  1  0.31487200  0.01333800  0.07890600  1
  O  419  1  0.17170200  0.01188700  0.06018700  1
  O  420  1  0.79057200  0.99644900  0.06421200  1
  O  441  1  0.67168200  0.01319900  0.92295000  1
  O  442  1  0.31496700  0.99510600  0.92949400  1
  O  443  1  0.17188800  0.99655900  0.94822500  1
  O  444  1  0.79062900  0.01198400  0.94422300  1
  O  465  1  0.71392400  0.19081000  0.27052200  1
  O  466  1  0.34864800  0.18512500  0.29346400  1
  O  467  1  0.21772700  0.20436000  0.29948200  1
  O  468  1  0.83579700  0.21069300  0.27737900  1
  O  489  1  0.71315000  0.81749700  0.73803200  1
  O  490  1  0.34767100  0.82333500  0.71499000  1
  O  491  1  0.21706200  0.80406100  0.70898700  1
  O  492  1  0.83518300  0.79763400  0.73115900  1
  O  513  1  0.71296800  0.73798300  0.19091900  1
  O  514  1  0.34757000  0.71496400  0.18507500  1
  O  515  1  0.21701100  0.70896300  0.20435500  1
  O  516  1  0.83501900  0.73111600  0.21078200  1
  O  537  1  0.71415800  0.27047700  0.81760400  1
  O  538  1  0.34883600  0.29343700  0.82330600  1
  O  539  1  0.21792400  0.29946400  0.80407200  1
  O  540  1  0.83602800  0.27734000  0.79772200  1
  O  561  1  0.31871200  0.81701700  0.27048100  1
  O  562  1  0.68308700  0.82204000  0.29302800  1
  O  563  1  0.81486700  0.80290400  0.29906200  1
  O  564  1  0.19732700  0.79700800  0.27710900  1
  O  585  1  0.31981300  0.19150400  0.73799200  1
  O  586  1  0.68412600  0.18626400  0.71539700  1
  O  587  1  0.81532500  0.20546700  0.70937100  1
  O  588  1  0.19823400  0.21149100  0.73136000  1
  O  609  1  0.31883400  0.27045400  0.19144200  1
  O  610  1  0.68313700  0.29299400  0.18644700  1
  O  611  1  0.81494100  0.29903000  0.20558000  1
  O  612  1  0.19753900  0.27708000  0.21145900  1
  O  633  1  0.31970200  0.73796900  0.81696200  1
  O  634  1  0.68412100  0.71536400  0.82221300  1
  O  635  1  0.81534500  0.70935100  0.80300900  1
  O  636  1  0.19803300  0.73133100  0.79698400  1
  O  657  1  0.67199900  0.39911500  0.07082200  1
  O  658  1  0.30219000  0.39987100  0.09769300  1
  O  659  1  0.15762500  0.41723000  0.10434800  1
  O  660  1  0.77348600  0.42011900  0.07944400  1
  O  681  1  0.67409700  0.60995500  0.93790100  1
  O  682  1  0.30455500  0.60829800  0.91063700  1
  O  683  1  0.15908500  0.59104200  0.90403300  1
  O  684  1  0.77219500  0.58872500  0.92920300  1
  O  705  1  0.67204600  0.93762900  0.39920100  1
  O  706  1  0.30217600  0.91076100  0.39993000  1
  O  707  1  0.15760800  0.90410300  0.41728600  1
  O  708  1  0.77362700  0.92900100  0.42019600  1
  O  729  1  0.67402000  0.07053200  0.61005900  1
  O  730  1  0.30458000  0.09780600  0.60835800  1
  O  731  1  0.15913100  0.10440800  0.59109900  1
  O  732  1  0.77194300  0.07922200  0.58881200  1
  O  753  1  0.34891600  0.61037400  0.06897400  1
  O  754  1  0.71824700  0.60863600  0.09678700  1
  O  755  1  0.86301500  0.59125400  0.10331000  1
  O  756  1  0.25261000  0.58905500  0.07777500  1
  O  777  1  0.35117500  0.39882900  0.93912700  1
  O  778  1  0.72022900  0.39943700  0.91194400  1
  O  779  1  0.86365500  0.41697100  0.90535100  1
  O  780  1  0.25062400  0.41987800  0.93043600  1
  O  801  1  0.35121700  0.06932200  0.39888000  1
  O  802  1  0.72033900  0.09652200  0.39952200  1
  O  803  1  0.86385200  0.10311500  0.41704500  1
  O  804  1  0.25074900  0.07801600  0.41993300  1
  O  825  1  0.34885500  0.93945500  0.61040900  1
  O  826  1  0.71814200  0.91167300  0.60872200  1
  O  827  1  0.86283500  0.90515000  0.59133000  1
  O  828  1  0.25237700  0.93065300  0.58910200  1
  O  849  1  0.67990600  0.51707500  0.01241900  1
  O  850  1  0.29813000  0.49215000  0.02507800  1
  O  851  1  0.14564200  0.49221400  0.04262700  1
  O  852  1  0.78094700  0.51716900  0.03515200  1
  O  873  1  0.67992200  0.99604400  0.51714500  1
  O  874  1  0.29815100  0.98338300  0.49222400  1
  O  875  1  0.14565800  0.96583500  0.49228800  1
  O  876  1  0.78096600  0.97331000  0.51723800  1
  O  897  1  0.34028400  0.21462300  0.39128400  1
  O  898  1  0.71882700  0.23251200  0.41976000  1
  O  899  1  0.87198500  0.22714900  0.43637500  1
  O  900  1  0.27679400  0.20516300  0.41422000  1
  O  921  1  0.33934600  0.79375100  0.61736400  1
  O  922  1  0.71835300  0.77583400  0.58868300  1
  O  923  1  0.87170700  0.78121800  0.57210300  1
  O  924  1  0.27643900  0.80320100  0.59439900  1
  O  945  1  0.33936700  0.61730400  0.21468400  1
  O  946  1  0.71838300  0.58863200  0.23260400  1
  O  947  1  0.87173900  0.57205200  0.22722100  1
  O  948  1  0.27639300  0.59434400  0.20522800  1
  O  969  1  0.34023300  0.39118200  0.79380800  1
  O  970  1  0.71881700  0.41971400  0.77593800  1
  O  971  1  0.87203100  0.43632300  0.78129900  1
  O  972  1  0.27697200  0.41412900  0.80326400  1
  O  993  1  0.68417100  0.79177600  0.38922500  1
  O  994  1  0.29899800  0.77526500  0.42096200  1
  O  995  1  0.14018700  0.78031700  0.43680700  1
  O  996  1  0.73787200  0.80132100  0.41252300  1
  O  1017  1  0.68535100  0.21667000  0.61938400  1
  O  1018  1  0.29949200  0.23319500  0.58739500  1
  O  1019  1  0.14037400  0.22813900  0.57160100  1
  O  1020  1  0.73833500  0.20712500  0.59605900  1
  O  1041  1  0.68418100  0.38917200  0.21669300  1
  O  1042  1  0.29897700  0.42093400  0.23319600  1
  O  1043  1  0.14014200  0.43677600  0.22814600  1
  O  1044  1  0.73778500  0.41247400  0.20714700  1
  O  1065  1  0.68530500  0.61928500  0.79180600  1
  O  1066  1  0.29955300  0.58736600  0.77526100  1
  O  1067  1  0.14050000  0.57156100  0.78032100  1
  O  1068  1  0.73855300  0.59597200  0.80135300  1
  O  1089  1  0.68561700  0.30148900  0.51533200  1
  O  1090  1  0.32409400  0.29713800  0.49397200  1
  O  1091  1  0.18735200  0.27763300  0.49476600  1
  O  1092  1  0.80587600  0.28030900  0.51479100  1
  O  1113  1  0.68569000  0.70697600  0.49315100  1
  O  1114  1  0.32414000  0.71125700  0.51451400  1
  O  1115  1  0.18747800  0.73077200  0.51373200  1
  O  1116  1  0.80608800  0.72814400  0.49370000  1
  O  1137  1  0.68562400  0.49310500  0.30150600  1
  O  1138  1  0.32408700  0.51446800  0.29719700  1
  O  1139  1  0.18738800  0.51367900  0.27768500  1
  O  1140  1  0.80595700  0.49365600  0.28033300  1
  O  1161  1  0.68563800  0.51528400  0.70697000  1
  O  1162  1  0.32410400  0.49392100  0.71133100  1
  O  1163  1  0.18734300  0.49471500  0.73083500  1
  O  1164  1  0.80588200  0.51474600  0.72815300  1
  O  1185  1  0.33525200  0.36612200  0.34972800  1
  O  1186  1  0.70939800  0.34559600  0.36253100  1
  O  1187  1  0.85134600  0.33252400  0.34886100  1
  O  1188  1  0.21482200  0.35092800  0.33498700  1
  O  1209  1  0.33527100  0.64227900  0.65874800  1
  O  1210  1  0.70925600  0.66273900  0.64592200  1
  O  1211  1  0.85107500  0.67583000  0.65959600  1
  O  1212  1  0.21474700  0.65746600  0.67348100  1
  O  1233  1  0.33507100  0.65873500  0.36614600  1
  O  1234  1  0.70915600  0.64588500  0.34568400  1
  O  1235  1  0.85099300  0.65955700  0.33259400  1
  O  1236  1  0.21449100  0.67345900  0.35095600  1
  O  1257  1  0.33543300  0.34971500  0.64230900  1
  O  1258  1  0.70945900  0.36249400  0.66282700  1
  O  1259  1  0.85138800  0.34882200  0.67590100  1
  O  1260  1  0.21504900  0.33496400  0.65749800  1
