# generated using pymatgen
data_H28C43N4
_symmetry_space_group_name_H-M   'P 1'
_cell_length_a   31.84880000
_cell_length_b   65.39200000
_cell_length_c   65.39170000
_cell_angle_alpha   119.99954472
_cell_angle_beta   90.00230000
_cell_angle_gamma   90.00000002
_symmetry_Int_Tables_number   1
_chemical_formula_structural   H28C43N4
_chemical_formula_sum   'H336 C516 N48'
_cell_volume   117943.21054356
_cell_formula_units_Z   12
loop_
 _symmetry_equiv_pos_site_id
 _symmetry_equiv_pos_as_xyz
  1  'x, y, z'
loop_
 _atom_site_type_symbol
 _atom_site_label
 _atom_site_symmetry_multiplicity
 _atom_site_fract_x
 _atom_site_fract_y
 _atom_site_fract_z
 _atom_site_occupancy
  H  25  1  0.75005300  0.80726400  0.24669800  1
  H  26  1  0.74396200  0.82002600  0.28715600  1
  H  27  1  0.74361000  0.83706200  0.32687600  1
  H  28  1  0.74873100  0.85860700  0.36765800  1
  H  29  1  0.74380800  0.92274500  0.36650300  1
  H  30  1  0.74854100  0.87816500  0.26146500  1
  H  31  1  0.83414700  0.89479700  0.31497900  1
  H  32  1  0.85525900  0.96168700  0.32159800  1
  H  33  1  0.78099000  0.96704800  0.32015800  1
  H  34  1  0.65194000  0.89470700  0.31476100  1
  H  35  1  0.70510300  0.96708800  0.32026200  1
  H  36  1  0.63084600  0.96171200  0.32166800  1
  H  66  1  0.75012700  0.38020200  0.13698200  1
  H  67  1  0.74397000  0.40789900  0.12422700  1
  H  68  1  0.74364600  0.43059100  0.10719400  1
  H  69  1  0.74876600  0.44982400  0.08564500  1
  H  70  1  0.74383600  0.38452700  0.02150800  1
  H  71  1  0.74854700  0.32406800  0.06607700  1
  H  72  1  0.83428100  0.36094400  0.04939800  1
  H  73  1  0.85516500  0.30061300  0.98250900  1
  H  74  1  0.78091500  0.29385100  0.97722100  1
  H  75  1  0.65188000  0.36079000  0.04948700  1
  H  76  1  0.70526300  0.29391100  0.97717700  1
  H  77  1  0.63101300  0.30063400  0.98248300  1
  H  107  1  0.75009700  0.69735500  0.56393000  1
  H  108  1  0.74402700  0.65683100  0.53621300  1
  H  109  1  0.74360400  0.61673400  0.51342100  1
  H  110  1  0.74824800  0.57579500  0.49432200  1
  H  111  1  0.74401300  0.57759100  0.55987100  1
  H  112  1  0.74855400  0.68262600  0.62006300  1
  H  113  1  0.83413000  0.62924200  0.58324700  1
  H  114  1  0.85551000  0.62265600  0.64351300  1
  H  115  1  0.78122500  0.62410800  0.65038300  1
  H  116  1  0.65200300  0.62944600  0.58343100  1
  H  117  1  0.70526100  0.62398700  0.65032300  1
  H  118  1  0.63099700  0.62258900  0.64356500  1
  H  148  1  0.25001000  0.11607700  0.71845400  1
  H  149  1  0.24392800  0.10330100  0.67799200  1
  H  150  1  0.24362900  0.08626100  0.63827000  1
  H  151  1  0.24873200  0.06470700  0.59748200  1
  H  152  1  0.24382700  0.00058200  0.59865200  1
  H  153  1  0.24849900  0.04518000  0.70370800  1
  H  154  1  0.33421400  0.02844300  0.65016000  1
  H  155  1  0.35502400  0.96154100  0.64357400  1
  H  156  1  0.28073900  0.95624900  0.64500000  1
  H  157  1  0.15211300  0.02880700  0.65051800  1
  H  158  1  0.20470800  0.95625900  0.64483900  1
  H  159  1  0.13044100  0.96181700  0.64351500  1
  H  189  1  0.25006300  0.54313900  0.82816400  1
  H  190  1  0.24398400  0.51545100  0.84094000  1
  H  191  1  0.24367600  0.49277300  0.85798800  1
  H  192  1  0.24876000  0.47354800  0.87954100  1
  H  193  1  0.24386200  0.53884800  0.94366800  1
  H  194  1  0.24854300  0.59928700  0.89906200  1
  H  195  1  0.33426400  0.56245700  0.91578900  1
  H  196  1  0.35512200  0.62278200  0.98268000  1
  H  197  1  0.28084900  0.62951700  0.98797600  1
  H  198  1  0.15204400  0.56250600  0.91553900  1
  H  199  1  0.20497200  0.62936600  0.98799900  1
  H  200  1  0.13071100  0.62255400  0.98253900  1
  H  230  1  0.25010100  0.22579200  0.40112100  1
  H  231  1  0.24402500  0.26625500  0.42880900  1
  H  232  1  0.24384300  0.30598500  0.45149200  1
  H  233  1  0.24890400  0.34677700  0.47071700  1
  H  234  1  0.24390600  0.34559000  0.40541900  1
  H  235  1  0.24859300  0.24054300  0.34497300  1
  H  236  1  0.33420700  0.29401600  0.38184100  1
  H  237  1  0.35545100  0.30065100  0.32159400  1
  H  238  1  0.28116900  0.29923600  0.31477500  1
  H  239  1  0.15201500  0.29384800  0.38170500  1
  H  240  1  0.20524800  0.29939400  0.31486200  1
  H  241  1  0.13098800  0.30076200  0.32160500  1
  H  271  1  0.25043000  0.54339700  0.71933400  1
  H  272  1  0.24493200  0.51406700  0.67843400  1
  H  273  1  0.24238000  0.48996300  0.63627100  1
  H  274  1  0.24320900  0.47156900  0.59422300  1
  H  275  1  0.24331500  0.53856000  0.59906600  1
  H  276  1  0.24416300  0.59726700  0.70175300  1
  H  277  1  0.15097000  0.55929900  0.64702700  1
  H  278  1  0.13225900  0.62303500  0.64649100  1
  H  279  1  0.20584500  0.62933000  0.64820000  1
  H  280  1  0.33469400  0.55924800  0.64720200  1
  H  281  1  0.28020800  0.62924600  0.64819500  1
  H  282  1  0.35371500  0.62288700  0.64650900  1
  H  312  1  0.25037700  0.22491000  0.82757300  1
  H  313  1  0.24490400  0.26580600  0.83913300  1
  H  314  1  0.24234500  0.30795600  0.85716900  1
  H  315  1  0.24315800  0.35000500  0.88080400  1
  H  316  1  0.24327500  0.34520000  0.94297500  1
  H  317  1  0.24410700  0.24250700  0.89902700  1
  H  318  1  0.15093200  0.29723900  0.91577700  1
  H  319  1  0.13222200  0.29776600  0.98004300  1
  H  320  1  0.20580400  0.29606700  0.98463500  1
  H  321  1  0.33465600  0.29706700  0.91555500  1
  H  322  1  0.28016800  0.29603700  0.98454400  1
  H  323  1  0.35368700  0.29772800  0.97987000  1
  H  353  1  0.25040500  0.11668900  0.40087200  1
  H  354  1  0.24488500  0.10510700  0.43018800  1
  H  355  1  0.24226700  0.08705000  0.45428000  1
  H  356  1  0.24312400  0.06339400  0.47267100  1
  H  357  1  0.24325900  0.00124900  0.40567700  1
  H  358  1  0.24412200  0.04525300  0.34698100  1
  H  359  1  0.15092300  0.02848300  0.38494000  1
  H  360  1  0.13214000  0.96422200  0.32124200  1
  H  361  1  0.20572500  0.95960800  0.31493400  1
  H  362  1  0.33462500  0.02870100  0.38499300  1
  H  363  1  0.28012700  0.95971100  0.31497400  1
  H  364  1  0.35364900  0.96438100  0.32134600  1
  H  394  1  0.75063100  0.37966100  0.24544500  1
  H  395  1  0.74493800  0.40900900  0.28627400  1
  H  396  1  0.74229900  0.43295100  0.32772800  1
  H  397  1  0.74325000  0.45171300  0.36969100  1
  H  398  1  0.74332700  0.38502000  0.36578900  1
  H  399  1  0.74419300  0.32582600  0.26313600  1
  H  400  1  0.65096300  0.36399000  0.31809200  1
  H  401  1  0.63220600  0.30032700  0.31875700  1
  H  402  1  0.70580800  0.29397600  0.31696100  1
  H  403  1  0.83463200  0.36403000  0.31786900  1
  H  404  1  0.78024200  0.29407400  0.31697800  1
  H  405  1  0.85375700  0.30047100  0.31867400  1
  H  435  1  0.75039000  0.69843300  0.13760700  1
  H  436  1  0.74486400  0.65753200  0.12603600  1
  H  437  1  0.74232800  0.61536700  0.10797600  1
  H  438  1  0.74317100  0.57331800  0.08432200  1
  H  439  1  0.74328100  0.57816200  0.02217400  1
  H  440  1  0.74413500  0.68084600  0.06615200  1
  H  441  1  0.65094800  0.62613100  0.04940200  1
  H  442  1  0.63222200  0.62556500  0.98511800  1
  H  443  1  0.70580600  0.62732300  0.98055200  1
  H  444  1  0.83464600  0.62628700  0.04961600  1
  H  445  1  0.78020100  0.62729800  0.98062300  1
  H  446  1  0.85371900  0.62559400  0.98530600  1
  H  476  1  0.75033000  0.80664600  0.56430700  1
  H  477  1  0.74481000  0.81821900  0.53498000  1
  H  478  1  0.74230800  0.83628000  0.51087800  1
  H  479  1  0.74312200  0.85993500  0.49248600  1
  H  480  1  0.74323400  0.92208200  0.55947600  1
  H  481  1  0.74410500  0.87809900  0.61818100  1
  H  482  1  0.65091900  0.89484700  0.58021600  1
  H  483  1  0.63218700  0.95911600  0.64394400  1
  H  484  1  0.70577400  0.96371800  0.65023700  1
  H  485  1  0.83462600  0.89465500  0.58015700  1
  H  486  1  0.78017800  0.96363700  0.65016200  1
  H  487  1  0.85370100  0.95895900  0.64377800  1
  H  498  1  0.74326200  0.95054400  0.49049200  1
  H  500  1  0.74390900  0.86929300  0.42788600  1
  H  501  1  0.74381800  0.87790700  0.46703400  1
  H  503  1  0.74278200  0.96554200  0.46467300  1
  H  504  1  0.71479600  0.94732300  0.43841700  1
  H  505  1  0.77066500  0.94745200  0.43837000  1
  H  507  1  0.74291500  0.93698800  0.51976200  1
  H  509  1  0.72261700  0.88115300  0.40196900  1
  H  515  1  0.74329700  0.48071500  0.99370900  1
  H  517  1  0.74394700  0.49935400  0.07495900  1
  H  518  1  0.74384800  0.52989100  0.06634600  1
  H  520  1  0.74281400  0.43989600  0.97870800  1
  H  521  1  0.71483700  0.43185900  0.99692800  1
  H  522  1  0.77070700  0.43168400  0.99679700  1
  H  524  1  0.74295400  0.52354400  0.00726800  1
  H  526  1  0.72263600  0.46158200  0.06309100  1
  H  532  1  0.74353500  0.45171100  0.46057100  1
  H  534  1  0.74404700  0.51655100  0.44527900  1
  H  535  1  0.74387600  0.47787800  0.41367800  1
  H  537  1  0.74491500  0.47506300  0.50070300  1
  H  538  1  0.71387300  0.50055100  0.50997000  1
  H  539  1  0.76974500  0.50256900  0.51110700  1
  H  541  1  0.74290900  0.42384200  0.41849700  1
  H  543  1  0.72220800  0.54133000  0.48303500  1
  H  549  1  0.24326200  0.97279100  0.47466800  1
  H  551  1  0.24390300  0.05404100  0.53728300  1
  H  552  1  0.24381100  0.04542800  0.49812900  1
  H  554  1  0.24276900  0.95779200  0.50048600  1
  H  555  1  0.21479000  0.97601300  0.52674300  1
  H  556  1  0.27066000  0.97587900  0.52678800  1
  H  558  1  0.24291000  0.98634500  0.44539900  1
  H  560  1  0.22245700  0.04214400  0.56317300  1
  H  566  1  0.24328100  0.44261700  0.97145300  1
  H  568  1  0.24392100  0.42401100  0.89021500  1
  H  569  1  0.24381100  0.39346800  0.89881000  1
  H  571  1  0.24280400  0.48343800  0.98647000  1
  H  572  1  0.21483700  0.49148800  0.96825500  1
  H  573  1  0.27070700  0.49166100  0.96839300  1
  H  575  1  0.24297300  0.39977400  0.95786800  1
  H  577  1  0.22268000  0.46177500  0.90208300  1
  H  583  1  0.24333700  0.46957700  0.50161900  1
  H  585  1  0.24398100  0.40695200  0.52023900  1
  H  586  1  0.24389000  0.44610500  0.55078600  1
  H  588  1  0.24284100  0.44376500  0.46080200  1
  H  589  1  0.21487200  0.41750300  0.45276100  1
  H  590  1  0.27074200  0.41746500  0.45258400  1
  H  592  1  0.24299200  0.49884200  0.54444500  1
  H  594  1  0.22243900  0.38108000  0.48244300  1
  H  600  1  0.99882000  0.92923700  0.34500600  1
  H  602  1  0.98717300  0.99268800  0.32781200  1
  H  603  1  0.93205500  0.96453600  0.31672800  1
  H  605  1  0.06346600  0.93948100  0.36152100  1
  H  606  1  0.07418200  0.96985900  0.37609900  1
  H  607  1  0.09392800  0.95077300  0.34709800  1
  H  609  1  0.94314400  0.90951500  0.31705900  1
  H  611  1  0.06733100  0.99047600  0.32807600  1
  H  617  1  0.99890400  0.35655300  0.01503600  1
  H  619  1  0.98721700  0.27589500  0.95157200  1
  H  620  1  0.93207300  0.29299600  0.97972100  1
  H  622  1  0.06353200  0.36283000  0.00477500  1
  H  623  1  0.07424800  0.34701300  0.97439900  1
  H  624  1  0.09401600  0.33712400  0.99350300  1
  H  626  1  0.94294200  0.34845800  0.03471900  1
  H  628  1  0.06754100  0.27831000  0.95363600  1
  H  634  1  0.99874700  0.59919000  0.58774900  1
  H  636  1  0.98726600  0.61645800  0.66842500  1
  H  637  1  0.93207400  0.62751000  0.65135400  1
  H  639  1  0.06343700  0.58274600  0.58145900  1
  H  640  1  0.07427900  0.56817200  0.59724800  1
  H  641  1  0.09390900  0.59719600  0.60716800  1
  H  643  1  0.94359600  0.62746000  0.59622700  1
  H  645  1  0.06759500  0.61609100  0.66595400  1
  H  651  1  0.49879400  0.99414500  0.62018400  1
  H  653  1  0.48723300  0.93066000  0.63736500  1
  H  654  1  0.43207300  0.95880300  0.64843500  1
  H  656  1  0.56345900  0.98388600  0.60363200  1
  H  657  1  0.57420400  0.95351000  0.58907100  1
  H  658  1  0.59392800  0.97260900  0.61807300  1
  H  660  1  0.44283300  0.01380700  0.64803300  1
  H  662  1  0.56749700  0.93283800  0.63704900  1
  H  668  1  0.49887900  0.56680400  0.95010600  1
  H  670  1  0.48725500  0.64746100  0.01360600  1
  H  671  1  0.43209500  0.63037800  0.98545400  1
  H  673  1  0.56353800  0.56052100  0.96037700  1
  H  674  1  0.57421300  0.57632900  0.99076200  1
  H  675  1  0.59402200  0.58623200  0.97168100  1
  H  677  1  0.44288600  0.57491900  0.93043300  1
  H  679  1  0.56758500  0.64486300  0.01119500  1
  H  685  1  0.49881600  0.32406100  0.37738200  1
  H  687  1  0.48726800  0.30697200  0.29675900  1
  H  688  1  0.43213600  0.29583500  0.31377600  1
  H  690  1  0.56345300  0.34060600  0.38371600  1
  H  691  1  0.57421300  0.35520900  0.36794600  1
  H  692  1  0.59397200  0.32620900  0.35802200  1
  H  694  1  0.44352100  0.29580900  0.36889200  1
  H  696  1  0.56753500  0.30718100  0.29928800  1
  H  702  1  0.98734100  0.99397000  0.62012100  1
  H  704  1  0.99872200  0.93052500  0.63730300  1
  H  705  1  0.05389500  0.95865700  0.64844000  1
  H  707  1  0.92264500  0.98380800  0.60365600  1
  H  708  1  0.91187500  0.95343100  0.58903300  1
  H  709  1  0.89216600  0.97248600  0.61804700  1
  H  711  1  0.04222100  0.01380900  0.64855100  1
  H  713  1  0.91842300  0.93280100  0.63701400  1
  H  719  1  0.98728300  0.56686600  0.95024300  1
  H  721  1  0.99872500  0.64750400  0.01369000  1
  H  722  1  0.05392100  0.63047700  0.98556800  1
  H  724  1  0.92256700  0.56059500  0.96043600  1
  H  725  1  0.91184400  0.57636900  0.99082000  1
  H  726  1  0.89211600  0.58632300  0.97176300  1
  H  728  1  0.04264900  0.57523600  0.93047300  1
  H  730  1  0.91842500  0.64490300  0.01132400  1
  H  736  1  0.98720600  0.32411800  0.37742000  1
  H  738  1  0.99874100  0.30695600  0.29679000  1
  H  739  1  0.05393000  0.29589000  0.31384300  1
  H  741  1  0.92250900  0.34061800  0.38367900  1
  H  742  1  0.91183100  0.35521900  0.36789100  1
  H  743  1  0.89206100  0.32622000  0.35795000  1
  H  745  1  0.04309100  0.29628800  0.36927700  1
  H  747  1  0.91844500  0.30718500  0.29936100  1
  H  753  1  0.48718000  0.92931400  0.34506400  1
  H  755  1  0.49866900  0.99274500  0.32783500  1
  H  756  1  0.55388900  0.96462600  0.31679500  1
  H  758  1  0.42247100  0.93952100  0.36153600  1
  H  759  1  0.41173900  0.96990100  0.37612000  1
  H  760  1  0.39201500  0.95082300  0.34711500  1
  H  762  1  0.54289600  0.90959400  0.31713600  1
  H  764  1  0.41820700  0.99053500  0.32816600  1
  H  770  1  0.48714900  0.35651400  0.01497500  1
  H  772  1  0.49870000  0.27586900  0.95150300  1
  H  773  1  0.55391700  0.29294900  0.97961300  1
  H  775  1  0.42246800  0.36278900  0.00473500  1
  H  776  1  0.41174600  0.34699200  0.97435600  1
  H  777  1  0.39200200  0.33706800  0.99343300  1
  H  779  1  0.54315400  0.34841600  0.03464000  1
  H  781  1  0.41822900  0.27839300  0.95370600  1
  H  787  1  0.48727700  0.59919200  0.58772200  1
  H  789  1  0.49870000  0.61643700  0.66839900  1
  H  790  1  0.55393300  0.62747900  0.65133100  1
  H  792  1  0.42253400  0.58271600  0.58145800  1
  H  793  1  0.41179000  0.56813300  0.59725800  1
  H  794  1  0.39210000  0.59714600  0.60719300  1
  H  796  1  0.54307900  0.62709200  0.59592100  1
  H  798  1  0.41830500  0.61612900  0.66580100  1
  H  804  1  0.68136300  0.77824100  0.19121600  1
  H  806  1  0.80080500  0.77504600  0.14446400  1
  H  807  1  0.78927300  0.80942200  0.18181800  1
  H  809  1  0.65308900  0.74336300  0.16269000  1
  H  810  1  0.69405400  0.72284500  0.15161100  1
  H  811  1  0.66995300  0.73260100  0.13347200  1
  H  813  1  0.69667900  0.81645600  0.21916900  1
  H  815  1  0.75745700  0.74520000  0.11025600  1
  H  821  1  0.68138200  0.35370900  0.16601100  1
  H  823  1  0.80092500  0.31018400  0.16917900  1
  H  824  1  0.78937100  0.31319400  0.13482800  1
  H  826  1  0.65308900  0.36001300  0.20086400  1
  H  827  1  0.69405600  0.36954300  0.22136900  1
  H  828  1  0.67006900  0.34163600  0.21169900  1
  H  830  1  0.69687400  0.34361400  0.12782500  1
  H  832  1  0.75757700  0.30567700  0.19886100  1
  H  838  1  0.68140100  0.75303900  0.59054600  1
  H  840  1  0.80085800  0.79979300  0.63407000  1
  H  841  1  0.78938100  0.76242300  0.63106800  1
  H  843  1  0.65310800  0.78156600  0.58420300  1
  H  844  1  0.69408800  0.79258900  0.57471300  1
  H  845  1  0.67002500  0.81078300  0.60260600  1
  H  847  1  0.69692900  0.72493000  0.60061400  1
  H  849  1  0.75752800  0.83400100  0.63842400  1
  H  855  1  0.18132600  0.14507100  0.77395400  1
  H  857  1  0.30082800  0.14828500  0.82067200  1
  H  858  1  0.28927000  0.11390000  0.78332900  1
  H  860  1  0.15309800  0.17995900  0.80247400  1
  H  861  1  0.19408600  0.20046600  0.81350600  1
  H  862  1  0.17001900  0.19075200  0.83168800  1
  H  864  1  0.19663500  0.10680700  0.74591800  1
  H  866  1  0.25758600  0.17813800  0.85488300  1
  H  872  1  0.18134400  0.56966500  0.79918600  1
  H  874  1  0.30088100  0.61314200  0.79596400  1
  H  875  1  0.28931100  0.61018800  0.83035000  1
  H  877  1  0.15314600  0.56326900  0.76428300  1
  H  878  1  0.19413600  0.55381600  0.74378000  1
  H  879  1  0.17004400  0.58170700  0.75350500  1
  H  881  1  0.19667600  0.57986800  0.83744000  1
  H  883  1  0.25759500  0.61750300  0.76610400  1
  H  889  1  0.18141400  0.17029000  0.37461100  1
  H  891  1  0.30091900  0.12358100  0.33109100  1
  H  892  1  0.28937000  0.16094700  0.33408900  1
  H  894  1  0.15317400  0.14176600  0.38096900  1
  H  895  1  0.19417400  0.13073400  0.39043300  1
  H  896  1  0.17007200  0.11255100  0.36254700  1
  H  898  1  0.19672700  0.19834300  0.36441000  1
  H  900  1  0.25776200  0.08932100  0.32676300  1
  C  1  1  0.70693800  0.91298500  0.31496300  1
  C  2  1  0.72142000  0.93397500  0.31664600  1
  C  3  1  0.76467700  0.93401500  0.31673800  1
  C  4  1  0.77915900  0.91312900  0.31529900  1
  C  5  1  0.82300100  0.90984800  0.31582600  1
  C  6  1  0.85110000  0.92780700  0.31828600  1
  C  7  1  0.83536600  0.94860900  0.31973600  1
  C  8  1  0.79206700  0.95179400  0.31884500  1
  C  9  1  0.69402500  0.95177400  0.31881000  1
  C  10  1  0.65072500  0.94858700  0.31969800  1
  C  11  1  0.63496600  0.92775900  0.31817500  1
  C  12  1  0.66308000  0.90973000  0.31554300  1
  C  13  1  0.74378800  0.87390900  0.29158800  1
  C  14  1  0.74239700  0.85664200  0.29818700  1
  C  15  1  0.74151400  0.86694600  0.32229100  1
  C  16  1  0.74230500  0.89151100  0.33299600  1
  C  17  1  0.74250700  0.85503700  0.33499400  1
  C  18  1  0.74480200  0.86821400  0.35943000  1
  C  19  1  0.74368800  0.89331800  0.37212200  1
  C  20  1  0.74297700  0.90475300  0.35825700  1
  C  21  1  0.74694700  0.86607000  0.26695900  1
  C  22  1  0.74835500  0.84140000  0.25002000  1
  C  23  1  0.74790700  0.82506600  0.25820800  1
  C  24  1  0.74416400  0.83240500  0.28202500  1
  C  37  1  0.74305500  0.89781700  0.31371600  1
  C  42  1  0.70695700  0.34274500  0.03127200  1
  C  43  1  0.72147000  0.32343500  0.01029700  1
  C  44  1  0.76470700  0.32349000  0.01026200  1
  C  45  1  0.77921600  0.34294100  0.03113500  1
  C  46  1  0.82308000  0.34671600  0.03438300  1
  C  47  1  0.85111600  0.33119600  0.01639200  1
  C  48  1  0.83532400  0.31184100  0.99561400  1
  C  49  1  0.79203000  0.30779700  0.99246300  1
  C  50  1  0.69414200  0.30777500  0.99247500  1
  C  51  1  0.65084400  0.31181000  0.99563200  1
  C  52  1  0.63502600  0.33110900  0.01644000  1
  C  53  1  0.66308000  0.34654700  0.03448900  1
  C  54  1  0.74381700  0.35845100  0.07034200  1
  C  55  1  0.74246100  0.38231900  0.08761100  1
  C  56  1  0.74154900  0.39611900  0.07730900  1
  C  57  1  0.74235500  0.38225500  0.05274300  1
  C  58  1  0.74256400  0.42072900  0.08921800  1
  C  59  1  0.74483800  0.43198800  0.07603900  1
  C  60  1  0.74371900  0.41957500  0.05093600  1
  C  61  1  0.74300400  0.39427400  0.03950000  1
  C  62  1  0.74697900  0.34165700  0.07817200  1
  C  63  1  0.74849200  0.34939100  0.10284000  1
  C  64  1  0.74798500  0.37391000  0.11917800  1
  C  65  1  0.74424500  0.39039100  0.11184500  1
  C  78  1  0.74309000  0.35667100  0.04643800  1
  C  83  1  0.70703400  0.62922700  0.60148200  1
  C  84  1  0.72154100  0.62760800  0.62082500  1
  C  85  1  0.76480200  0.62746500  0.62074300  1
  C  86  1  0.77922700  0.62886300  0.60126700  1
  C  87  1  0.82304800  0.62838100  0.59745600  1
  C  88  1  0.85121700  0.62592500  0.61292500  1
  C  89  1  0.83556100  0.62447100  0.63229100  1
  C  90  1  0.79225900  0.62536700  0.63640100  1
  C  91  1  0.69416600  0.62543100  0.63645900  1
  C  92  1  0.65086300  0.62456400  0.63240600  1
  C  93  1  0.63507300  0.62609300  0.61311000  1
  C  94  1  0.66316500  0.62868700  0.59768000  1
  C  95  1  0.74392400  0.65247200  0.58566400  1
  C  96  1  0.74256400  0.64578500  0.56176600  1
  C  97  1  0.74167600  0.62160100  0.54797400  1
  C  98  1  0.74242200  0.61097700  0.56191200  1
  C  99  1  0.74258800  0.60867900  0.52334800  1
  C  100  1  0.74462600  0.58417200  0.51218700  1
  C  101  1  0.74368500  0.57153600  0.52468200  1
  C  102  1  0.74311500  0.58568700  0.54999100  1
  C  103  1  0.74700700  0.67711900  0.60246700  1
  C  104  1  0.74848700  0.69406600  0.59474800  1
  C  105  1  0.74796800  0.68583800  0.57021600  1
  C  106  1  0.74431500  0.66198600  0.55372900  1
  C  119  1  0.74313400  0.63037200  0.58749300  1
  C  124  1  0.20693700  0.01037500  0.65019400  1
  C  125  1  0.22128300  0.98936100  0.64850200  1
  C  126  1  0.26455300  0.98929000  0.64840600  1
  C  127  1  0.27914100  0.01017300  0.64986900  1
  C  128  1  0.32300400  0.01341300  0.64934300  1
  C  129  1  0.35102400  0.99540900  0.64688100  1
  C  130  1  0.33518700  0.97464300  0.64544000  1
  C  131  1  0.29187300  0.97149000  0.64630500  1
  C  132  1  0.19373400  0.97159400  0.64629300  1
  C  133  1  0.15043900  0.97487400  0.64543900  1
  C  134  1  0.13484700  0.99576200  0.64702200  1
  C  135  1  0.16311800  0.01372300  0.64965600  1
  C  136  1  0.24384300  0.04942200  0.67357300  1
  C  137  1  0.24250500  0.06668500  0.66696600  1
  C  138  1  0.24155700  0.05638100  0.64286200  1
  C  139  1  0.24236100  0.03181600  0.63216000  1
  C  140  1  0.24253000  0.06828500  0.63015600  1
  C  141  1  0.24480100  0.05510800  0.60571800  1
  C  142  1  0.24363600  0.03000500  0.59302700  1
  C  143  1  0.24297000  0.01857400  0.60689700  1
  C  144  1  0.24696400  0.05727100  0.69820600  1
  C  145  1  0.24838900  0.08194300  0.71513700  1
  C  146  1  0.24791200  0.09827300  0.70694700  1
  C  147  1  0.24422900  0.09092300  0.68312300  1
  C  160  1  0.24309900  0.02551400  0.65144500  1
  C  165  1  0.20697500  0.58061100  0.93386400  1
  C  166  1  0.22139000  0.59991800  0.95487100  1
  C  167  1  0.26464400  0.59986100  0.95495100  1
  C  168  1  0.27920100  0.58044300  0.93406000  1
  C  169  1  0.32305800  0.57666100  0.93082100  1
  C  170  1  0.35109000  0.59219800  0.94880400  1
  C  171  1  0.33527800  0.61154600  0.96957900  1
  C  172  1  0.29197300  0.61557200  0.97273900  1
  C  173  1  0.19393500  0.61550100  0.97267400  1
  C  174  1  0.15064000  0.61141700  0.96943500  1
  C  175  1  0.13495000  0.59211400  0.94858000  1
  C  176  1  0.16313000  0.57674400  0.93058200  1
  C  177  1  0.24388700  0.56491200  0.89481900  1
  C  178  1  0.24255900  0.54104100  0.87755600  1
  C  179  1  0.24159500  0.52724600  0.88786400  1
  C  180  1  0.24236400  0.54111300  0.91243000  1
  C  181  1  0.24256800  0.50263800  0.87596300  1
  C  182  1  0.24479100  0.49138100  0.88914500  1
  C  183  1  0.24364500  0.50379700  0.91425000  1
  C  184  1  0.24299500  0.52909700  0.92567600  1
  C  185  1  0.24701400  0.58169500  0.88697300  1
  C  186  1  0.24844300  0.57395400  0.86229900  1
  C  187  1  0.24796900  0.54943500  0.84597000  1
  C  188  1  0.24428600  0.53296000  0.85331800  1
  C  201  1  0.24312400  0.56669600  0.91872900  1
  C  206  1  0.20703500  0.29401100  0.36361900  1
  C  207  1  0.22153700  0.29570800  0.34432000  1
  C  208  1  0.26479800  0.29587700  0.34441700  1
  C  209  1  0.27925400  0.29440800  0.36385000  1
  C  210  1  0.32308900  0.29491200  0.36765800  1
  C  211  1  0.35123200  0.29737300  0.35217700  1
  C  212  1  0.33552900  0.29884000  0.33282800  1
  C  213  1  0.29222500  0.29797500  0.32875100  1
  C  214  1  0.19415500  0.29789400  0.32869400  1
  C  215  1  0.15085400  0.29876500  0.33275100  1
  C  216  1  0.13506600  0.29723500  0.35204700  1
  C  217  1  0.16316800  0.29462400  0.36746300  1
  C  218  1  0.24392800  0.27067700  0.37935100  1
  C  219  1  0.24260900  0.27728400  0.40322100  1
  C  220  1  0.24162900  0.30138800  0.41702000  1
  C  221  1  0.24237000  0.31208700  0.40315300  1
  C  222  1  0.24256800  0.31409800  0.44163400  1
  C  223  1  0.24487300  0.33853600  0.45288600  1
  C  224  1  0.24371100  0.35122100  0.44046900  1
  C  225  1  0.24303900  0.33734800  0.41516900  1
  C  226  1  0.24706400  0.24604600  0.36256700  1
  C  227  1  0.24849000  0.22911200  0.37030500  1
  C  228  1  0.24801600  0.23730200  0.39482500  1
  C  229  1  0.24433900  0.26112500  0.41130100  1
  C  242  1  0.24314900  0.29280100  0.37756400  1
  C  247  1  0.27935100  0.57851200  0.64996900  1
  C  248  1  0.26455300  0.59857300  0.64984600  1
  C  249  1  0.22132400  0.59858900  0.64976800  1
  C  250  1  0.20635600  0.57854100  0.64984200  1
  C  251  1  0.16231700  0.57453400  0.64839500  1
  C  252  1  0.13420300  0.59130500  0.64812800  1
  C  253  1  0.15124900  0.61141200  0.64829100  1
  C  254  1  0.19450000  0.61512100  0.64895100  1
  C  255  1  0.29147100  0.61506300  0.64902100  1
  C  256  1  0.33470000  0.61131300  0.64837300  1
  C  257  1  0.35167700  0.59118800  0.64819300  1
  C  258  1  0.32343100  0.57450400  0.64858700  1
  C  259  1  0.24232900  0.56247300  0.67259600  1
  C  260  1  0.24208500  0.53870300  0.66637800  1
  C  261  1  0.24223800  0.52490400  0.64211400  1
  C  262  1  0.24267500  0.53926100  0.63187000  1
  C  263  1  0.24256500  0.50021000  0.62855500  1
  C  264  1  0.24307700  0.48960600  0.60394800  1
  C  265  1  0.24321800  0.50336900  0.59284300  1
  C  266  1  0.24310200  0.52839700  0.60687700  1
  C  267  1  0.24343200  0.57980000  0.69690700  1
  C  268  1  0.24536600  0.57294100  0.71438400  1
  C  269  1  0.24627300  0.54874300  0.70725100  1
  C  270  1  0.24364200  0.53151500  0.68331500  1
  C  283  1  0.24271600  0.56459700  0.65085400  1
  C  288  1  0.27930700  0.29430500  0.93205300  1
  C  289  1  0.26451200  0.29442700  0.95223700  1
  C  290  1  0.22128300  0.29448400  0.95232000  1
  C  291  1  0.20631600  0.29441400  0.93219900  1
  C  292  1  0.16227600  0.29586200  0.92963900  1
  C  293  1  0.13416500  0.29611800  0.94667200  1
  C  294  1  0.15120500  0.29593700  0.96660800  1
  C  295  1  0.19446000  0.29527200  0.96965500  1
  C  296  1  0.29142700  0.29521600  0.96953700  1
  C  297  1  0.33465000  0.29591800  0.96646000  1
  C  298  1  0.35162700  0.29609200  0.94651300  1
  C  299  1  0.32338400  0.29570300  0.92943700  1
  C  300  1  0.24229500  0.27166100  0.89338400  1
  C  301  1  0.24205000  0.27786900  0.87582600  1
  C  302  1  0.24219100  0.30213300  0.88628100  1
  C  303  1  0.24263100  0.31238500  0.91088200  1
  C  304  1  0.24252700  0.31567800  0.87513300  1
  C  305  1  0.24302300  0.34028700  0.88912600  1
  C  306  1  0.24317100  0.35140300  0.91399400  1
  C  307  1  0.24306100  0.33737900  0.92500100  1
  C  308  1  0.24341600  0.24734900  0.88640200  1
  C  309  1  0.24527200  0.22986300  0.86206600  1
  C  310  1  0.24615400  0.23699000  0.84499600  1
  C  311  1  0.24359800  0.26092900  0.85170300  1
  C  324  1  0.24267500  0.29340900  0.91724600  1
  C  329  1  0.27927600  0.01220200  0.36573100  1
  C  330  1  0.26447200  0.99201500  0.34567300  1
  C  331  1  0.22123900  0.99194200  0.34563500  1
  C  332  1  0.20628100  0.01205100  0.36569400  1
  C  333  1  0.16224500  0.01461100  0.36970300  1
  C  334  1  0.13406500  0.99760700  0.35294100  1
  C  335  1  0.15114600  0.97763700  0.33286300  1
  C  336  1  0.19439700  0.97459300  0.32911900  1
  C  337  1  0.29138900  0.97471600  0.32916200  1
  C  338  1  0.33461600  0.97779300  0.33294600  1
  C  339  1  0.35159900  0.99774100  0.35306500  1
  C  340  1  0.32335300  0.01481900  0.36974900  1
  C  341  1  0.24224800  0.05087400  0.38177000  1
  C  342  1  0.24192800  0.06842100  0.40554200  1
  C  343  1  0.24215100  0.05795300  0.41933800  1
  C  344  1  0.24260000  0.03335200  0.40497700  1
  C  345  1  0.24248000  0.06908800  0.44403100  1
  C  346  1  0.24299500  0.05508400  0.45463300  1
  C  347  1  0.24314900  0.03021700  0.44087000  1
  C  348  1  0.24303900  0.01922300  0.41584100  1
  C  349  1  0.24335900  0.05786800  0.36444900  1
  C  350  1  0.24526500  0.08220800  0.37131800  1
  C  351  1  0.24618800  0.09926300  0.39551900  1
  C  352  1  0.24356300  0.09254600  0.41273900  1
  C  365  1  0.24264000  0.02700600  0.37964300  1
  C  370  1  0.77932500  0.34472900  0.31505900  1
  C  371  1  0.76453900  0.32471300  0.31527200  1
  C  372  1  0.72129700  0.32467100  0.31530900  1
  C  373  1  0.70632000  0.34469600  0.31519100  1
  C  374  1  0.66228900  0.34875200  0.31672600  1
  C  375  1  0.63416500  0.33206400  0.31716100  1
  C  376  1  0.65120800  0.31192300  0.31692100  1
  C  377  1  0.69446300  0.30817900  0.31620000  1
  C  378  1  0.79148500  0.30826000  0.31615100  1
  C  379  1  0.83470900  0.31205600  0.31684600  1
  C  380  1  0.85171300  0.33215000  0.31696700  1
  C  381  1  0.82339400  0.34879000  0.31653500  1
  C  382  1  0.74227500  0.36059900  0.29222500  1
  C  383  1  0.74194800  0.38431200  0.29827400  1
  C  384  1  0.74216800  0.39814700  0.32238600  1
  C  385  1  0.74264100  0.38391700  0.33277600  1
  C  386  1  0.74252200  0.42283600  0.33557800  1
  C  387  1  0.74310000  0.43365100  0.36011200  1
  C  388  1  0.74325600  0.41998500  0.37127200  1
  C  389  1  0.74310700  0.39496000  0.35772600  1
  C  390  1  0.74342700  0.34328200  0.26795400  1
  C  391  1  0.74538900  0.35016700  0.25050300  1
  C  392  1  0.74634600  0.37433200  0.25752700  1
  C  393  1  0.74367200  0.39156300  0.28140800  1
  C  406  1  0.74267700  0.35855200  0.31400900  1
  C  411  1  0.77931900  0.62905000  0.03311500  1
  C  412  1  0.76452600  0.62894600  0.01294200  1
  C  413  1  0.72129100  0.62889800  0.01286300  1
  C  414  1  0.70632000  0.62894700  0.03297400  1
  C  415  1  0.66227900  0.62749800  0.03553200  1
  C  416  1  0.63415600  0.62715200  0.01845300  1
  C  417  1  0.65121800  0.62735300  0.99853500  1
  C  418  1  0.69446400  0.62806900  0.99550900  1
  C  419  1  0.79145600  0.62810200  0.99562300  1
  C  420  1  0.83468100  0.62740600  0.99871500  1
  C  421  1  0.85170300  0.62727600  0.01868100  1
  C  422  1  0.82339500  0.62764200  0.03572600  1
  C  423  1  0.74234500  0.65169100  0.07179000  1
  C  424  1  0.74201200  0.64547300  0.08934200  1
  C  425  1  0.74219300  0.62120900  0.07887800  1
  C  426  1  0.74263300  0.61096600  0.05427700  1
  C  427  1  0.74251900  0.60765100  0.09001300  1
  C  428  1  0.74303200  0.58304400  0.07601000  1
  C  429  1  0.74318100  0.57193800  0.05114100  1
  C  430  1  0.74306400  0.58597400  0.04014900  1
  C  431  1  0.74343600  0.67600100  0.07877400  1
  C  432  1  0.74533900  0.69348100  0.10311100  1
  C  433  1  0.74626200  0.68634900  0.12017600  1
  C  434  1  0.74369800  0.66241000  0.11346400  1
  C  447  1  0.74268500  0.62994900  0.04792400  1
  C  452  1  0.77929700  0.91114400  0.59942300  1
  C  453  1  0.76450300  0.93131700  0.61949100  1
  C  454  1  0.72126600  0.93139000  0.61952500  1
  C  455  1  0.70629500  0.91126700  0.59947400  1
  C  456  1  0.66225400  0.90870500  0.59545800  1
  C  457  1  0.63413100  0.92574100  0.61222700  1
  C  458  1  0.65118300  0.94569900  0.63231600  1
  C  459  1  0.69443300  0.94874400  0.63604200  1
  C  460  1  0.79143400  0.94862900  0.63597400  1
  C  461  1  0.83466100  0.94555100  0.63217900  1
  C  462  1  0.85168300  0.92559300  0.61208000  1
  C  463  1  0.82337400  0.90854400  0.59540400  1
  C  464  1  0.74231000  0.87246500  0.58338800  1
  C  465  1  0.74204700  0.85491400  0.55961800  1
  C  466  1  0.74216400  0.86537900  0.54581900  1
  C  467  1  0.74259400  0.88998100  0.56017900  1
  C  468  1  0.74248200  0.85424300  0.52112700  1
  C  469  1  0.74298200  0.86824700  0.51052200  1
  C  470  1  0.74312900  0.89311500  0.52428700  1
  C  471  1  0.74301500  0.90410900  0.54931400  1
  C  472  1  0.74343700  0.86548000  0.60071300  1
  C  473  1  0.74532300  0.84114400  0.59385300  1
  C  474  1  0.74621600  0.82407700  0.56965600  1
  C  475  1  0.74365800  0.83079000  0.55242800  1
  C  488  1  0.74266100  0.89633200  0.58551400  1
  C  493  1  0.74339300  0.91531700  0.48305300  1
  C  494  1  0.74348900  0.93336000  0.47706900  1
  C  495  1  0.74322300  0.92849000  0.45323600  1
  C  496  1  0.74280700  0.90467900  0.43431400  1
  C  497  1  0.74403500  0.88679300  0.44061500  1
  C  499  1  0.74389800  0.89184900  0.46409500  1
  C  502  1  0.74280100  0.94837800  0.44849600  1
  C  506  1  0.74315000  0.92040900  0.50661000  1
  C  508  1  0.73712800  0.89662000  0.41004800  1
  C  510  1  0.74343700  0.50850300  0.02893600  1
  C  511  1  0.74352600  0.48447600  0.01089200  1
  C  512  1  0.74326200  0.46551100  0.01576000  1
  C  513  1  0.74289400  0.47039900  0.03957100  1
  C  514  1  0.74407600  0.49458400  0.05745700  1
  C  516  1  0.74393700  0.51301100  0.05240400  1
  C  519  1  0.74284000  0.44088300  0.99587200  1
  C  523  1  0.74319300  0.52696800  0.02384500  1
  C  525  1  0.73716300  0.45419500  0.04762900  1
  C  527  1  0.74355200  0.46068500  0.43402800  1
  C  528  1  0.74379600  0.46569100  0.45763200  1
  C  529  1  0.74350000  0.48913400  0.47719900  1
  C  530  1  0.74292900  0.50886500  0.47344300  1
  C  531  1  0.74414700  0.50337600  0.44943800  1
  C  533  1  0.74400300  0.48019400  0.43034300  1
  C  536  1  0.74295200  0.49193600  0.50106200  1
  C  540  1  0.74323300  0.43730700  0.41553100  1
  C  542  1  0.73715900  0.53316600  0.49019800  1
  C  544  1  0.24340000  0.00802000  0.48210800  1
  C  545  1  0.24348500  0.98997500  0.48809100  1
  C  546  1  0.24322100  0.99484500  0.51192600  1
  C  547  1  0.24285100  0.01865400  0.53084900  1
  C  548  1  0.24403800  0.03654300  0.52455100  1
  C  550  1  0.24390600  0.03148800  0.50107000  1
  C  553  1  0.24279400  0.97495600  0.51666300  1
  C  557  1  0.24315500  0.00292600  0.45855100  1
  C  559  1  0.23707300  0.02670400  0.55510500  1
  C  561  1  0.24342500  0.41484200  0.93622100  1
  C  562  1  0.24351000  0.43886400  0.95427200  1
  C  563  1  0.24325600  0.45783600  0.94941300  1
  C  564  1  0.24293900  0.45296400  0.92560600  1
  C  565  1  0.24407800  0.42877700  0.90771400  1
  C  567  1  0.24391200  0.41034500  0.91275700  1
  C  570  1  0.24283500  0.48245900  0.96930900  1
  C  574  1  0.24319000  0.39636300  0.94129400  1
  C  576  1  0.23718600  0.46916900  0.91755000  1
  C  578  1  0.24349100  0.46213100  0.52940300  1
  C  579  1  0.24357000  0.45615300  0.50537800  1
  C  580  1  0.24330300  0.43232100  0.48641300  1
  C  581  1  0.24297300  0.41339000  0.49129000  1
  C  582  1  0.24412200  0.41968700  0.51547700  1
  C  584  1  0.24399000  0.44316800  0.53390600  1
  C  587  1  0.24287300  0.42758600  0.46178600  1
  C  591  1  0.24323400  0.48569000  0.54787100  1
  C  593  1  0.23712400  0.38914000  0.47508300  1
  C  595  1  0.95970800  0.94436300  0.33034400  1
  C  596  1  0.99583400  0.94323300  0.34218900  1
  C  597  1  0.02938900  0.95950300  0.34868600  1
  C  598  1  0.02671100  0.97856400  0.34390500  1
  C  599  1  0.98955300  0.98013500  0.33275200  1
  C  601  1  0.95673600  0.96348200  0.32613500  1
  C  604  1  0.06724000  0.95459200  0.35888900  1
  C  608  1  0.93182200  0.92535200  0.32154500  1
  C  610  1  0.06206800  0.99118700  0.34344400  1
  C  612  1  0.95981700  0.32675700  0.99992300  1
  C  613  1  0.99594000  0.33973200  0.00105200  1
  C  614  1  0.02948000  0.32996000  0.98477400  1
  C  615  1  0.02676700  0.30610200  0.96574000  1
  C  616  1  0.98960700  0.29338300  0.96413300  1
  C  618  1  0.95683400  0.30342600  0.98080800  1
  C  621  1  0.06731800  0.34508200  0.98967400  1
  C  625  1  0.93180900  0.33700100  0.01887000  1
  C  627  1  0.06214100  0.29306600  0.95313300  1
  C  629  1  0.95966100  0.61385700  0.61754900  1
  C  630  1  0.99578300  0.60200400  0.60456200  1
  C  631  1  0.02938600  0.59552800  0.61432200  1
  C  632  1  0.02674800  0.60038200  0.63819100  1
  C  633  1  0.98960200  0.61150000  0.65092700  1
  C  635  1  0.95677800  0.61812500  0.64089900  1
  C  638  1  0.06725200  0.58537500  0.59919800  1
  C  642  1  0.93197000  0.62280600  0.60739100  1
  C  644  1  0.06217500  0.60083000  0.65120500  1
  C  646  1  0.45976600  0.97901300  0.63487400  1
  C  647  1  0.49586500  0.98016000  0.62302000  1
  C  648  1  0.52939500  0.96387000  0.61647200  1
  C  649  1  0.52671400  0.94483900  0.62129200  1
  C  650  1  0.48961000  0.94322800  0.63244600  1
  C  652  1  0.45681800  0.95989300  0.63908400  1
  C  655  1  0.56724900  0.96878100  0.60627400  1
  C  659  1  0.43173100  0.99793200  0.64360000  1
  C  661  1  0.56211200  0.93226200  0.62174700  1
  C  663  1  0.45985700  0.59662700  0.96521200  1
  C  664  1  0.49594300  0.58362800  0.96408700  1
  C  665  1  0.52947700  0.59338200  0.98037000  1
  C  666  1  0.52677000  0.61722500  0.99941300  1
  C  667  1  0.48964800  0.62997800  0.00102700  1
  C  669  1  0.45685600  0.61994600  0.98435700  1
  C  672  1  0.56731200  0.57826400  0.97548700  1
  C  676  1  0.43179000  0.58638300  0.94629000  1
  C  678  1  0.56217800  0.63026100  0.01199600  1
  C  680  1  0.45979400  0.30937300  0.34755600  1
  C  681  1  0.49588100  0.32124200  0.36056500  1
  C  682  1  0.52944500  0.32778900  0.35084200  1
  C  683  1  0.52678900  0.32299400  0.32699600  1
  C  684  1  0.48964200  0.31187600  0.31424300  1
  C  686  1  0.45682100  0.30522100  0.32424800  1
  C  689  1  0.56727100  0.33799200  0.36598300  1
  C  693  1  0.43200100  0.30046000  0.35770400  1
  C  695  1  0.56215300  0.32254700  0.31390500  1
  C  697  1  0.02638700  0.97885600  0.63482400  1
  C  698  1  0.99028800  0.97997400  0.62294100  1
  C  699  1  0.95668800  0.96371800  0.61641800  1
  C  700  1  0.95924500  0.94463900  0.62117600  1
  C  701  1  0.99641400  0.94304900  0.63232600  1
  C  703  1  0.02923800  0.95973300  0.63902800  1
  C  706  1  0.91884400  0.96867500  0.60625200  1
  C  710  1  0.05403400  0.99801500  0.64384100  1
  C  712  1  0.92378000  0.93204300  0.62164100  1
  C  714  1  0.02635300  0.59667400  0.96536300  1
  C  715  1  0.99022800  0.58368800  0.96422900  1
  C  716  1  0.95665100  0.59343600  0.98049400  1
  C  717  1  0.95923800  0.61727200  0.99957000  1
  C  718  1  0.99638900  0.63001200  0.00113900  1
  C  720  1  0.02924500  0.62000200  0.98449000  1
  C  723  1  0.91879300  0.57832900  0.97556500  1
  C  727  1  0.05416900  0.58648500  0.94629200  1
  C  729  1  0.92376900  0.63031800  0.01215100  1
  C  731  1  0.02631800  0.30946600  0.34763600  1
  C  732  1  0.99017300  0.32129800  0.36060600  1
  C  733  1  0.95660200  0.32780600  0.35084100  1
  C  734  1  0.95922100  0.32305700  0.32700800  1
  C  735  1  0.99637400  0.31188600  0.31427800  1
  C  737  1  0.02921000  0.30525200  0.32430100  1
  C  740  1  0.91874900  0.33800600  0.36594300  1
  C  744  1  0.05431900  0.30070900  0.35785800  1
  C  746  1  0.92377900  0.32259900  0.31394700  1
  C  748  1  0.52627700  0.94443600  0.33039400  1
  C  749  1  0.49013800  0.94330300  0.34223600  1
  C  750  1  0.45654800  0.95955900  0.34872600  1
  C  751  1  0.45917600  0.97860500  0.34391800  1
  C  752  1  0.49633000  0.98019900  0.33278400  1
  C  754  1  0.52916600  0.96354400  0.32616100  1
  C  757  1  0.41869100  0.95463800  0.35891300  1
  C  761  1  0.55421200  0.92542700  0.32160100  1
  C  763  1  0.42369000  0.99116600  0.34347700  1
  C  765  1  0.52624000  0.32672000  0.99984600  1
  C  766  1  0.49010000  0.33969600  0.00098700  1
  C  767  1  0.45653800  0.32993900  0.98470700  1
  C  768  1  0.45917300  0.30608500  0.96566000  1
  C  769  1  0.49631700  0.29335500  0.96406900  1
  C  771  1  0.52913500  0.30338200  0.98073400  1
  C  774  1  0.41868800  0.34505000  0.98962200  1
  C  778  1  0.55429700  0.33695500  0.01879400  1
  C  780  1  0.42370800  0.29307800  0.95308500  1
  C  782  1  0.52633400  0.61388100  0.61753400  1
  C  783  1  0.49020700  0.60203300  0.60454600  1
  C  784  1  0.45663600  0.59550800  0.61429200  1
  C  785  1  0.45925100  0.60032200  0.63814100  1
  C  786  1  0.49635800  0.61149500  0.65090700  1
  C  788  1  0.52920700  0.61811400  0.64087800  1
  C  791  1  0.41876000  0.58533800  0.59919800  1
  C  795  1  0.55432200  0.62264900  0.60731900  1
  C  797  1  0.42376200  0.60078100  0.65114600  1
  C  799  1  0.73304000  0.79767800  0.18988100  1
  C  800  1  0.70662100  0.77760500  0.18121800  1
  C  801  1  0.71271800  0.75688400  0.15908300  1
  C  802  1  0.74784500  0.75549000  0.14496100  1
  C  803  1  0.77565300  0.77509400  0.15423700  1
  C  805  1  0.76871800  0.79563700  0.17622500  1
  C  808  1  0.68069100  0.73792300  0.15126700  1
  C  812  1  0.72401000  0.81719700  0.21206800  1
  C  814  1  0.75185900  0.73878300  0.12089500  1
  C  816  1  0.73305400  0.33293100  0.14656800  1
  C  817  1  0.70662800  0.34433100  0.16663500  1
  C  818  1  0.71275400  0.34292100  0.18735200  1
  C  819  1  0.74791000  0.33019000  0.18871100  1
  C  820  1  0.77574200  0.31989300  0.16912800  1
  C  822  1  0.76877000  0.32133700  0.14859400  1
  C  825  1  0.68073500  0.35407900  0.20632200  1
  C  829  1  0.72415400  0.33573600  0.12714300  1
  C  831  1  0.75194000  0.32273000  0.20531600  1
  C  833  1  0.73309800  0.75436900  0.61130600  1
  C  834  1  0.70664500  0.76304700  0.59992400  1
  C  835  1  0.71275200  0.78517500  0.60132300  1
  C  836  1  0.74791900  0.79929500  0.61400400  1
  C  837  1  0.77571100  0.79001400  0.62434000  1
  C  839  1  0.76875800  0.76803700  0.62292600  1
  C  842  1  0.68073200  0.79297400  0.59015700  1
  C  846  1  0.72423600  0.73210200  0.60845900  1
  C  848  1  0.75191000  0.82336100  0.62137300  1
  C  850  1  0.23301700  0.12563700  0.77527800  1
  C  851  1  0.20660100  0.14570900  0.78394600  1
  C  852  1  0.21274000  0.16643700  0.80607100  1
  C  853  1  0.24790900  0.16786800  0.82018800  1
  C  854  1  0.27566800  0.14823600  0.81090200  1
  C  856  1  0.26870700  0.12768000  0.78892600  1
  C  859  1  0.18072300  0.18540200  0.81388000  1
  C  863  1  0.22392100  0.10614900  0.75309500  1
  C  865  1  0.25192200  0.18456200  0.84425600  1
  C  867  1  0.23303200  0.59042600  0.81862400  1
  C  868  1  0.20663900  0.57900400  0.79854300  1
  C  869  1  0.21277400  0.58039900  0.77781500  1
  C  870  1  0.24794700  0.59308200  0.77638600  1
  C  871  1  0.27571200  0.60342500  0.79601400  1
  C  873  1  0.26875700  0.60199800  0.81656600  1
  C  876  1  0.18076000  0.56924400  0.75884500  1
  C  880  1  0.22395500  0.58770800  0.83810000  1
  C  882  1  0.25195900  0.60045100  0.75968800  1
  C  884  1  0.23306400  0.16895700  0.35382300  1
  C  885  1  0.20668000  0.16029600  0.36524600  1
  C  886  1  0.21279600  0.13816100  0.36383100  1
  C  887  1  0.24790600  0.12403000  0.35107600  1
  C  888  1  0.27574000  0.13334100  0.34079600  1
  C  890  1  0.26877900  0.15532700  0.34224000  1
  C  893  1  0.18079200  0.13035600  0.37499800  1
  C  897  1  0.22399900  0.19116100  0.35656000  1
  C  899  1  0.25198800  0.09998400  0.34379200  1
  N  38  1  0.74780200  0.90476200  0.39621300  1
  N  39  1  0.59407900  0.92625000  0.31980200  1
  N  40  1  0.89196000  0.92621200  0.31981900  1
  N  41  1  0.75286600  0.83058200  0.22648600  1
  N  79  1  0.74784800  0.43221900  0.03949200  1
  N  80  1  0.59412900  0.33418700  0.01780500  1
  N  81  1  0.89198300  0.33425700  0.01782600  1
  N  82  1  0.75291900  0.33666000  0.11364800  1
  N  120  1  0.74812100  0.54730200  0.51211500  1
  N  121  1  0.59417600  0.62443200  0.61000500  1
  N  122  1  0.89205900  0.62455700  0.60971600  1
  N  123  1  0.75295400  0.71763300  0.60748900  1
  N  161  1  0.24782100  0.01857500  0.56894100  1
  N  162  1  0.09398200  0.99768400  0.64568200  1
  N  163  1  0.39189600  0.99689700  0.64528300  1
  N  164  1  0.25281700  0.09278200  0.73868300  1
  N  202  1  0.24782700  0.49115200  0.92569300  1
  N  203  1  0.09407300  0.58892600  0.94691100  1
  N  204  1  0.39196500  0.58914400  0.94737000  1
  N  205  1  0.25285700  0.58666600  0.85146800  1
  N  243  1  0.24794400  0.37530000  0.45313000  1
  N  244  1  0.09417000  0.29891400  0.35516000  1
  N  245  1  0.39209600  0.29875900  0.35531700  1
  N  246  1  0.25289800  0.20556700  0.35759100  1
  N  284  1  0.24328100  0.49091400  0.56956500  1
  N  285  1  0.39204900  0.58679500  0.64168800  1
  N  286  1  0.09390600  0.58692600  0.64160900  1
  N  287  1  0.24933100  0.58880100  0.73705000  1
  N  325  1  0.24323100  0.37467800  0.92480600  1
  N  326  1  0.39199600  0.30259400  0.94862900  1
  N  327  1  0.09387800  0.30265400  0.94882300  1
  N  328  1  0.24927200  0.20719900  0.85526500  1
  N  366  1  0.24320500  0.01939200  0.45332200  1
  N  367  1  0.39197700  0.99562700  0.35744800  1
  N  368  1  0.09378400  0.99549600  0.35735000  1
  N  369  1  0.24929700  0.08904900  0.35549100  1
  N  407  1  0.74333000  0.43290500  0.39422700  1
  N  408  1  0.89208000  0.33656900  0.32346500  1
  N  409  1  0.59382500  0.33647500  0.32357600  1
  N  410  1  0.74935400  0.33427800  0.22792800  1
  N  448  1  0.74324000  0.54866100  0.04031700  1
  N  449  1  0.89207700  0.62079200  0.01659900  1
  N  450  1  0.59382500  0.62072200  0.01643700  1
  N  451  1  0.74926300  0.71614500  0.10990900  1
  N  489  1  0.74319200  0.90393900  0.51183400  1
  N  490  1  0.89206700  0.92768200  0.60769300  1
  N  491  1  0.59384300  0.92787800  0.60783000  1
  N  492  1  0.74928000  0.83433900  0.60971300  1
