# generated using pymatgen
data_H5(C7N3)2
_symmetry_space_group_name_H-M   'P 1'
_cell_length_a   37.15560000
_cell_length_b   61.34250000
_cell_length_c   61.34250000
_cell_angle_alpha   90.00000000
_cell_angle_beta   90.00000000
_cell_angle_gamma   90.00000000
_symmetry_Int_Tables_number   1
_chemical_formula_structural   H5(C7N3)2
_chemical_formula_sum   'H320 C896 N384'
_cell_volume   139812.89293010
_cell_formula_units_Z   64
loop_
 _symmetry_equiv_pos_site_id
 _symmetry_equiv_pos_as_xyz
  1  'x, y, z'
loop_
 _atom_site_type_symbol
 _atom_site_label
 _atom_site_symmetry_multiplicity
 _atom_site_fract_x
 _atom_site_fract_y
 _atom_site_fract_z
 _atom_site_occupancy
  H  7  1  0.03033200  0.12028400  0.29370200  1
  H  8  1  0.14139200  0.11872700  0.30785800  1
  H  9  1  0.07132500  0.15765200  0.34507100  1
  H  16  1  0.05664700  0.11886500  0.25766500  1
  H  17  1  0.08173300  0.05521400  0.23848700  1
  H  18  1  0.12222800  0.07938100  0.29769600  1
  H  29  1  0.03023900  0.88103700  0.81138300  1
  H  30  1  0.14126900  0.88271400  0.79715200  1
  H  31  1  0.07126800  0.84366800  0.76002600  1
  H  38  1  0.05661200  0.88254100  0.84740700  1
  H  39  1  0.08179800  0.94619000  0.86656100  1
  H  40  1  0.12211900  0.92201300  0.80731000  1
  H  51  1  0.03019500  0.75961700  0.17220000  1
  H  52  1  0.14122400  0.74538800  0.17051500  1
  H  53  1  0.07123300  0.70826700  0.20957100  1
  H  60  1  0.05653000  0.79562800  0.17067100  1
  H  61  1  0.08162500  0.81474800  0.10700200  1
  H  62  1  0.12207900  0.75554600  0.13123100  1
  H  73  1  0.03035900  0.24187500  0.93294700  1
  H  74  1  0.14143900  0.25597100  0.93441400  1
  H  75  1  0.07136200  0.29321300  0.89553200  1
  H  82  1  0.05671400  0.20580000  0.93436300  1
  H  83  1  0.08190700  0.18668600  0.99802400  1
  H  84  1  0.12227800  0.24590300  0.97378000  1
  H  95  1  0.81627500  0.88116200  0.29370200  1
  H  96  1  0.70521500  0.88272100  0.30785800  1
  H  97  1  0.77528000  0.84379500  0.34507100  1
  H  104  1  0.78996100  0.88258200  0.25766500  1
  H  105  1  0.76487500  0.94623300  0.23848700  1
  H  106  1  0.72438000  0.92206500  0.29769600  1
  H  117  1  0.81636700  0.12042100  0.81139000  1
  H  118  1  0.70533900  0.11874100  0.79715200  1
  H  119  1  0.77533900  0.15779400  0.76003400  1
  H  126  1  0.78998600  0.11890500  0.84741400  1
  H  127  1  0.76480200  0.05525000  0.86654800  1
  H  128  1  0.72449100  0.07944300  0.80730000  1
  H  139  1  0.81641200  0.24183600  0.17220000  1
  H  140  1  0.70538200  0.25606100  0.17051500  1
  H  141  1  0.77537100  0.29318500  0.20956900  1
  H  148  1  0.79008000  0.20582300  0.17067100  1
  H  149  1  0.76498300  0.18670100  0.10700400  1
  H  150  1  0.72452800  0.24590300  0.13123200  1
  H  161  1  0.81625100  0.75957000  0.93294800  1
  H  162  1  0.70516900  0.74547500  0.93441600  1
  H  163  1  0.77524500  0.70823300  0.89553100  1
  H  170  1  0.78989900  0.79564400  0.93436700  1
  H  171  1  0.76471100  0.81475600  0.99802900  1
  H  172  1  0.72433200  0.75554300  0.97378100  1
  H  183  1  0.80231500  0.88598100  0.80153900  1
  H  184  1  0.69577100  0.88404900  0.77758000  1
  H  185  1  0.78024300  0.85674800  0.74114700  1
  H  192  1  0.76511200  0.87646200  0.83328800  1
  H  193  1  0.69215700  0.91704600  0.86618700  1
  H  194  1  0.69703100  0.91848400  0.79792100  1
  H  205  1  0.80229100  0.11545200  0.30343700  1
  H  206  1  0.69576300  0.11735500  0.32742500  1
  H  207  1  0.78027200  0.14456100  0.36389600  1
  H  214  1  0.76515000  0.12499000  0.27170600  1
  H  215  1  0.69218300  0.08445600  0.23875000  1
  H  216  1  0.69699300  0.08296200  0.30702400  1
  H  227  1  0.80247600  0.25171100  0.93785000  1
  H  228  1  0.69590800  0.27562600  0.93582400  1
  H  229  1  0.78037700  0.31204800  0.90850700  1
  H  236  1  0.76531400  0.21994400  0.92831900  1
  H  237  1  0.69228600  0.18703500  0.96886600  1
  H  238  1  0.69714600  0.25532200  0.97029000  1
  H  249  1  0.80232800  0.74981600  0.16707800  1
  H  250  1  0.69575500  0.72591100  0.16904800  1
  H  251  1  0.78020200  0.68942400  0.19629800  1
  H  258  1  0.76519000  0.78156200  0.17666400  1
  H  259  1  0.69212400  0.81457200  0.13624100  1
  H  260  1  0.69696100  0.74629800  0.13463200  1
  H  271  1  0.04429300  0.11546800  0.80153900  1
  H  272  1  0.15083300  0.11739700  0.77757300  1
  H  273  1  0.06636000  0.14470200  0.74114700  1
  H  280  1  0.08150000  0.12498400  0.83328700  1
  H  281  1  0.15445600  0.08439600  0.86617900  1
  H  282  1  0.14957200  0.08296200  0.79791300  1
  H  293  1  0.04431600  0.88599400  0.30343700  1
  H  294  1  0.15084200  0.88409200  0.32742500  1
  H  295  1  0.06633200  0.85688500  0.36389600  1
  H  302  1  0.08145600  0.87645700  0.27170400  1
  H  303  1  0.15442400  0.91699200  0.23875000  1
  H  304  1  0.14961300  0.91848500  0.30702400  1
  H  315  1  0.04413200  0.74973300  0.93785000  1
  H  316  1  0.15069900  0.72581800  0.93582400  1
  H  317  1  0.06622900  0.68939600  0.90850700  1
  H  324  1  0.08129400  0.78149900  0.92832000  1
  H  325  1  0.15432100  0.81440900  0.96886800  1
  H  326  1  0.14946400  0.74612200  0.97029000  1
  H  337  1  0.04427400  0.25162600  0.16706000  1
  H  338  1  0.15084900  0.27553000  0.16904800  1
  H  339  1  0.06639200  0.31201500  0.19629100  1
  H  346  1  0.08141600  0.21988000  0.17665600  1
  H  347  1  0.15449100  0.18687000  0.13623900  1
  H  348  1  0.14965000  0.25514600  0.13462800  1
  H  359  1  0.52491400  0.62357700  0.80021700  1
  H  360  1  0.62781600  0.60095400  0.81761400  1
  H  361  1  0.57062400  0.64224500  0.85967800  1
  H  368  1  0.54665500  0.61846200  0.76549200  1
  H  369  1  0.56350600  0.55685200  0.73796900  1
  H  370  1  0.60439100  0.57029500  0.80017900  1
  H  381  1  0.52468000  0.37769200  0.30477200  1
  H  382  1  0.62742100  0.40050400  0.28726400  1
  H  383  1  0.57038000  0.35903800  0.24529500  1
  H  390  1  0.54639700  0.38292400  0.33946000  1
  H  391  1  0.56330100  0.44452500  0.36698900  1
  H  392  1  0.60404900  0.43111000  0.30473800  1
  H  403  1  0.52475800  0.25306800  0.67566700  1
  H  404  1  0.62737200  0.23549200  0.65271000  1
  H  405  1  0.57037700  0.19357500  0.69424400  1
  H  412  1  0.54637200  0.28772900  0.67033400  1
  H  413  1  0.56312600  0.31519400  0.60869500  1
  H  414  1  0.60401600  0.25299300  0.62216200  1
  H  425  1  0.52476600  0.74843900  0.42962700  1
  H  426  1  0.62753400  0.76603500  0.45231900  1
  H  427  1  0.57012700  0.80801400  0.41105400  1
  H  434  1  0.54661200  0.71375100  0.43473900  1
  H  435  1  0.56351400  0.68624200  0.49634900  1
  H  436  1  0.60423700  0.74849600  0.48291600  1
  H  447  1  0.32169300  0.37787000  0.80021700  1
  H  448  1  0.21879000  0.40049400  0.81761400  1
  H  449  1  0.27598300  0.35920300  0.85967800  1
  H  456  1  0.29995200  0.38298600  0.76549200  1
  H  457  1  0.28310100  0.44459500  0.73796800  1
  H  458  1  0.24221500  0.43115300  0.80017900  1
  H  469  1  0.32191600  0.62375700  0.30477700  1
  H  470  1  0.21917700  0.60094900  0.28726700  1
  H  471  1  0.27622500  0.64241300  0.24529800  1
  H  478  1  0.30020000  0.61852400  0.33946400  1
  H  479  1  0.28328200  0.55692200  0.36699200  1
  H  480  1  0.24254200  0.57034200  0.30474000  1
  H  491  1  0.32184600  0.74838300  0.67566500  1
  H  492  1  0.21923200  0.76595500  0.65270700  1
  H  493  1  0.27622200  0.80787200  0.69424400  1
  H  500  1  0.30022900  0.71372200  0.67033600  1
  H  501  1  0.28348900  0.68625500  0.60869700  1
  H  502  1  0.24259400  0.74845500  0.62215700  1
  H  513  1  0.32184100  0.25300900  0.42962700  1
  H  514  1  0.21907200  0.23541300  0.45231900  1
  H  515  1  0.27648000  0.19343400  0.41105300  1
  H  522  1  0.29999500  0.28769600  0.43474100  1
  H  523  1  0.28309300  0.31520600  0.49634900  1
  H  524  1  0.24236900  0.25295300  0.48291600  1
  H  535  1  0.30458100  0.37865400  0.29880300  1
  H  536  1  0.21269900  0.40642500  0.26926500  1
  H  537  1  0.29662800  0.38213500  0.23095600  1
  H  544  1  0.26764300  0.37233100  0.32672400  1
  H  545  1  0.19867800  0.40883600  0.36635400  1
  H  546  1  0.20727700  0.42441700  0.30032200  1
  H  557  1  0.30466500  0.62282300  0.80619100  1
  H  558  1  0.21280500  0.59506200  0.83576100  1
  H  559  1  0.29684900  0.61925700  0.87404200  1
  H  566  1  0.26770600  0.62919000  0.77830200  1
  H  567  1  0.19865500  0.59275200  0.73866600  1
  H  568  1  0.20730800  0.57710600  0.80468200  1
  H  579  1  0.30456500  0.75444900  0.43034600  1
  H  580  1  0.21283700  0.78397000  0.45831800  1
  H  581  1  0.29665000  0.82229100  0.43390300  1
  H  588  1  0.26766800  0.72652100  0.42409400  1
  H  589  1  0.19876900  0.68685600  0.46061500  1
  H  590  1  0.20738100  0.75288900  0.47623900  1
  H  601  1  0.30461100  0.24707500  0.67456500  1
  H  602  1  0.21281000  0.21748700  0.64675100  1
  H  603  1  0.29683500  0.17923100  0.67100600  1
  H  610  1  0.26764200  0.27496900  0.68090500  1
  H  611  1  0.19858800  0.31458600  0.64444700  1
  H  612  1  0.20727500  0.24856700  0.62881500  1
  H  623  1  0.54202300  0.62279200  0.29880400  1
  H  624  1  0.63389900  0.59501800  0.26926400  1
  H  625  1  0.54996500  0.61930600  0.23095700  1
  H  632  1  0.57896500  0.62911500  0.32672400  1
  H  633  1  0.64793400  0.59261200  0.36635300  1
  H  634  1  0.63933000  0.57702900  0.30032000  1
  H  645  1  0.54194000  0.37862500  0.80619100  1
  H  646  1  0.63380200  0.40638400  0.83576100  1
  H  647  1  0.54975800  0.38218800  0.87404200  1
  H  654  1  0.57890000  0.37225700  0.77830200  1
  H  655  1  0.64795100  0.40869500  0.73866600  1
  H  656  1  0.63929800  0.42434000  0.80468200  1
  H  667  1  0.54204200  0.24699700  0.43034800  1
  H  668  1  0.63376700  0.21747600  0.45832000  1
  H  669  1  0.54995700  0.17915600  0.43390100  1
  H  676  1  0.57893800  0.27492500  0.42409700  1
  H  677  1  0.64783800  0.31458900  0.46061900  1
  H  678  1  0.63922800  0.24855700  0.47624100  1
  H  689  1  0.54199300  0.75437200  0.67456500  1
  H  690  1  0.63379400  0.78396200  0.64675200  1
  H  691  1  0.54976900  0.82221600  0.67100800  1
  H  698  1  0.57896200  0.72647800  0.68090500  1
  H  699  1  0.64801500  0.68686100  0.64444700  1
  H  700  1  0.63932700  0.75288200  0.62881700  1
  H  716  1  0.22007500  0.95464600  0.27424900  1
  H  718  1  0.08080000  0.02523800  0.27069800  1
  H  730  1  0.22003100  0.04674800  0.83064600  1
  H  732  1  0.08076200  0.97616500  0.83430400  1
  H  744  1  0.21994200  0.77886800  0.00646200  1
  H  746  1  0.08066000  0.78247000  0.07705700  1
  H  758  1  0.22017700  0.22219200  0.09856700  1
  H  760  1  0.08091100  0.21900300  0.02796700  1
  H  772  1  0.62653000  0.04680100  0.27424700  1
  H  774  1  0.76580600  0.97620900  0.27069800  1
  H  786  1  0.62657000  0.95469000  0.83065900  1
  H  788  1  0.76582800  0.02527500  0.83431700  1
  H  800  1  0.62666700  0.22257600  0.00646200  1
  H  802  1  0.76594600  0.21897700  0.07705900  1
  H  814  1  0.62643800  0.77925200  0.09857000  1
  H  816  1  0.76570400  0.78244100  0.02797000  1
  H  828  1  0.70989300  0.45425800  0.76772700  1
  H  830  1  0.58448000  0.52731100  0.79589500  1
  H  842  1  0.70983600  0.54704200  0.33727000  1
  H  844  1  0.58433200  0.47408900  0.30902100  1
  H  856  1  0.70971000  0.28553800  0.50619900  1
  H  858  1  0.58415400  0.25727300  0.57914300  1
  H  870  1  0.70994100  0.71584300  0.59891900  1
  H  872  1  0.58465700  0.74426400  0.52587300  1
  H  884  1  0.13671300  0.54719000  0.76772700  1
  H  886  1  0.26212500  0.47413600  0.79589500  1
  H  898  1  0.13676800  0.45440300  0.33727300  1
  H  900  1  0.26229700  0.52735500  0.30903500  1
  H  912  1  0.13689800  0.71590600  0.50619700  1
  H  914  1  0.26242600  0.74418500  0.57914700  1
  H  926  1  0.13666200  0.28560500  0.59891900  1
  H  928  1  0.26194800  0.25718400  0.52587300  1
  H  940  1  0.18768900  0.17331700  0.43906600  1
  H  942  1  0.13794700  0.17707800  0.33813300  1
  H  954  1  0.18754300  0.82796700  0.66595300  1
  H  956  1  0.13792900  0.82432900  0.76694400  1
  H  968  1  0.18737000  0.61423300  0.22529100  1
  H  970  1  0.13800000  0.71523300  0.22889300  1
  H  982  1  0.18689300  0.38718200  0.87955800  1
  H  984  1  0.13805700  0.28612000  0.87605000  1
  H  996  1  0.65891500  0.82813200  0.43906700  1
  H  998  1  0.70866000  0.82437000  0.33813400  1
  H  1010  1  0.65905500  0.17347800  0.66595400  1
  H  1012  1  0.70867600  0.17713000  0.76694600  1
  H  1024  1  0.65923600  0.38721800  0.22528900  1
  H  1026  1  0.70860600  0.28621900  0.22889300  1
  H  1038  1  0.65971200  0.61426600  0.87955800  1
  H  1040  1  0.70855000  0.71532800  0.87605200  1
  H  1052  1  0.63543300  0.84900800  0.64406200  1
  H  1054  1  0.71516800  0.83260200  0.74040000  1
  H  1066  1  0.63560000  0.15244000  0.46098700  1
  H  1068  1  0.71508200  0.16875100  0.36455100  1
  H  1080  1  0.63556200  0.40912700  0.90077300  1
  H  1082  1  0.71526200  0.31278100  0.88434900  1
  H  1094  1  0.63572400  0.59234500  0.20423200  1
  H  1096  1  0.71511400  0.68878300  0.22048300  1
  H  1108  1  0.21117100  0.15244000  0.64406100  1
  H  1110  1  0.13143600  0.16884500  0.74039800  1
  H  1122  1  0.21100400  0.84900500  0.46098700  1
  H  1124  1  0.13152200  0.83269700  0.36455100  1
  H  1136  1  0.21104600  0.59231700  0.90077300  1
  H  1138  1  0.13134400  0.68866300  0.88434900  1
  H  1150  1  0.21086900  0.40909600  0.20423400  1
  H  1152  1  0.13146900  0.31266100  0.22048500  1
  H  1164  1  0.14259600  0.16089600  0.16574300  1
  H  1166  1  0.01456100  0.09667800  0.20447600  1
  H  1178  1  0.14249100  0.84045100  0.93938100  1
  H  1180  1  0.01466200  0.90477200  0.90064000  1
  H  1192  1  0.14257400  0.88747900  0.21271900  1
  H  1194  1  0.01443400  0.84879100  0.14851200  1
  H  1206  1  0.14261600  0.11379800  0.89226900  1
  H  1208  1  0.01484700  0.15255700  0.95657800  1
  H  1220  1  0.70401500  0.84054800  0.16574800  1
  H  1222  1  0.83204700  0.90476900  0.20447800  1
  H  1234  1  0.70410900  0.16099700  0.93937600  1
  H  1236  1  0.83192500  0.09666300  0.90064300  1
  H  1248  1  0.70403400  0.11396800  0.21271700  1
  H  1250  1  0.83217300  0.15266000  0.14851500  1
  H  1262  1  0.70399900  0.88763900  0.89227000  1
  H  1264  1  0.83177200  0.84888600  0.95658100  1
  H  1276  1  0.63785200  0.66604200  0.67759000  1
  H  1278  1  0.50155300  0.60536600  0.71031700  1
  H  1290  1  0.63769400  0.33541200  0.42746900  1
  H  1292  1  0.50140500  0.39601400  0.39468400  1
  H  1304  1  0.63770200  0.37559300  0.71781100  1
  H  1306  1  0.50118700  0.34285400  0.65727700  1
  H  1318  1  0.63782300  0.62577200  0.38716100  1
  H  1320  1  0.50161700  0.65854000  0.44783800  1
  H  1332  1  0.20875100  0.33540700  0.67758900  1
  H  1334  1  0.34505400  0.39607900  0.71031700  1
  H  1346  1  0.20891100  0.66603700  0.42746200  1
  H  1348  1  0.34518900  0.60542800  0.39468900  1
  H  1360  1  0.20890500  0.62585500  0.71780900  1
  H  1362  1  0.34542300  0.65859700  0.65728200  1
  H  1374  1  0.20878900  0.37567400  0.38716100  1
  H  1376  1  0.34499200  0.34290700  0.44784000  1
  H  1388  1  0.00733100  0.15986400  0.35230400  1
  H  1390  1  0.83380100  0.16203900  0.31719400  1
  H  1402  1  0.00728700  0.84163500  0.75269700  1
  H  1404  1  0.83369400  0.83919100  0.78762300  1
  H  1416  1  0.00724100  0.70092300  0.21156800  1
  H  1418  1  0.83364500  0.73585300  0.21388800  1
  H  1430  1  0.00744600  0.30050900  0.89337400  1
  H  1432  1  0.83365900  0.26619900  0.89059800  1
  H  1444  1  0.83927600  0.84158300  0.35230500  1
  H  1446  1  0.01280400  0.83940600  0.31719600  1
  H  1458  1  0.83931900  0.15982400  0.75270500  1
  H  1460  1  0.01291500  0.16225600  0.78763200  1
  H  1472  1  0.83935900  0.30053400  0.21156100  1
  H  1474  1  0.01297100  0.26566100  0.21392200  1
  H  1486  1  0.83916000  0.70093600  0.89337200  1
  H  1488  1  0.01294800  0.73524900  0.89059900  1
  H  1500  1  0.50971000  0.66017400  0.86189000  1
  H  1502  1  0.33791100  0.65678800  0.82089700  1
  H  1514  1  0.50940900  0.34131300  0.24297300  1
  H  1516  1  0.33777100  0.34467300  0.28413100  1
  H  1528  1  0.50950800  0.19131100  0.71205900  1
  H  1530  1  0.33786300  0.23241500  0.70853500  1
  H  1542  1  0.50938700  0.80999900  0.39280600  1
  H  1544  1  0.33757800  0.76910100  0.39631600  1
  H  1556  1  0.33689400  0.34127600  0.86189000  1
  H  1558  1  0.50869300  0.34465800  0.82089700  1
  H  1570  1  0.33719300  0.66013800  0.24298000  1
  H  1572  1  0.50883300  0.65677100  0.28413200  1
  H  1584  1  0.33709600  0.81013800  0.71205800  1
  H  1586  1  0.50873900  0.76903400  0.70853500  1
  H  1598  1  0.33722000  0.19144800  0.39280600  1
  H  1600  1  0.50902900  0.23234800  0.39631700  1
  C  1  1  0.08699700  0.11783000  0.29723400  1
  C  2  1  0.05218900  0.12585500  0.30225200  1
  C  3  1  0.04606100  0.14042500  0.31955500  1
  C  4  1  0.07557700  0.14744600  0.33213300  1
  C  5  1  0.11076400  0.13989500  0.32768000  1
  C  6  1  0.11605900  0.12464200  0.31065200  1
  C  10  1  0.09071900  0.10220200  0.27997700  1
  C  11  1  0.07117800  0.10491700  0.26024500  1
  C  12  1  0.06814400  0.08793900  0.24486800  1
  C  13  1  0.08512700  0.06791000  0.24914500  1
  C  14  1  0.10574600  0.06483900  0.26823800  1
  C  15  1  0.10891500  0.08214000  0.28334700  1
  C  23  1  0.08688800  0.88356000  0.80780800  1
  C  24  1  0.05209800  0.87548100  0.80282700  1
  C  25  1  0.04598600  0.86089600  0.78553400  1
  C  26  1  0.07550100  0.85391400  0.77293400  1
  C  27  1  0.11067500  0.86149600  0.77736800  1
  C  28  1  0.11595000  0.87676600  0.79438100  1
  C  32  1  0.09059100  0.89921500  0.82504800  1
  C  33  1  0.07106700  0.89651200  0.84478400  1
  C  34  1  0.06814100  0.91347400  0.86018700  1
  C  35  1  0.08511200  0.93350100  0.85588300  1
  C  36  1  0.10569500  0.93656600  0.83677500  1
  C  37  1  0.10881800  0.91926300  0.82166300  1
  C  45  1  0.08685400  0.75606800  0.16969500  1
  C  46  1  0.05206500  0.75108400  0.17777700  1
  C  47  1  0.04595600  0.73379500  0.19236700  1
  C  48  1  0.07547000  0.72118800  0.19934000  1
  C  49  1  0.11063900  0.72561400  0.19174600  1
  C  50  1  0.11591100  0.74262900  0.17647500  1
  C  54  1  0.09054200  0.77328300  0.15401200  1
  C  55  1  0.07098200  0.79301300  0.15669800  1
  C  56  1  0.06797400  0.80839200  0.13971300  1
  C  57  1  0.08497200  0.80408300  0.11969800  1
  C  58  1  0.10559600  0.78499100  0.11664600  1
  C  59  1  0.10874300  0.76989400  0.13395600  1
  C  67  1  0.08703700  0.24536500  0.93533700  1
  C  68  1  0.05221900  0.25039100  0.92733100  1
  C  69  1  0.04608300  0.26770800  0.91277500  1
  C  70  1  0.07560700  0.28027100  0.90573200  1
  C  71  1  0.11080300  0.27578600  0.91324900  1
  C  72  1  0.11610100  0.25877000  0.92850900  1
  C  76  1  0.09076300  0.22814700  0.95100600  1
  C  77  1  0.07124400  0.20840400  0.94830800  1
  C  78  1  0.06826300  0.19303400  0.96530000  1
  C  79  1  0.08524700  0.19734400  0.98532300  1
  C  80  1  0.10584200  0.21644900  0.98837000  1
  C  81  1  0.10896700  0.23154600  0.97105700  1
  C  89  1  0.75960800  0.88361700  0.29723400  1
  C  90  1  0.79441800  0.87559200  0.30225200  1
  C  91  1  0.80054400  0.86102300  0.31955500  1
  C  92  1  0.77103000  0.85400200  0.33213300  1
  C  93  1  0.73584300  0.86155300  0.32768000  1
  C  94  1  0.73054900  0.87680600  0.31065200  1
  C  98  1  0.75588800  0.89924600  0.27997900  1
  C  99  1  0.77543100  0.89653000  0.26024700  1
  C  100  1  0.77846400  0.91350800  0.24486800  1
  C  101  1  0.76148100  0.93353700  0.24914700  1
  C  102  1  0.74086200  0.93660800  0.26823800  1
  C  103  1  0.73769200  0.91930700  0.28334700  1
  C  111  1  0.75971600  0.11789600  0.80781300  1
  C  112  1  0.79450700  0.12597800  0.80283300  1
  C  113  1  0.80061900  0.14056500  0.78554300  1
  C  114  1  0.77110600  0.14754700  0.77294200  1
  C  115  1  0.73593200  0.13996300  0.77737300  1
  C  116  1  0.73065700  0.12469100  0.79438400  1
  C  120  1  0.75601200  0.10223600  0.82504600  1
  C  121  1  0.77553300  0.10493500  0.84478600  1
  C  122  1  0.77845800  0.08796900  0.86018300  1
  C  123  1  0.76148900  0.06794100  0.85587300  1
  C  124  1  0.74091100  0.06488200  0.83676200  1
  C  125  1  0.73778900  0.08218800  0.82165500  1
  C  133  1  0.75975300  0.24538300  0.16969500  1
  C  134  1  0.79454200  0.25036800  0.17777700  1
  C  135  1  0.80065200  0.26765800  0.19236600  1
  C  136  1  0.77113500  0.28026400  0.19934000  1
  C  137  1  0.73596700  0.27583600  0.19174600  1
  C  138  1  0.73069400  0.25882200  0.17647500  1
  C  142  1  0.75606600  0.22816800  0.15401300  1
  C  143  1  0.77562700  0.20843800  0.15669900  1
  C  144  1  0.77863300  0.19305900  0.13971500  1
  C  145  1  0.76163500  0.19736600  0.11970000  1
  C  146  1  0.74101100  0.21645800  0.11664700  1
  C  147  1  0.73786400  0.23155700  0.13395700  1
  C  155  1  0.75957300  0.75608100  0.93533800  1
  C  156  1  0.79439100  0.75105500  0.92733100  1
  C  157  1  0.80052500  0.73373800  0.91277500  1
  C  158  1  0.77100100  0.72117500  0.90573200  1
  C  159  1  0.73580500  0.72566000  0.91325100  1
  C  160  1  0.73050900  0.74267600  0.92851100  1
  C  164  1  0.75584800  0.77329900  0.95100800  1
  C  165  1  0.77536900  0.79304100  0.94831100  1
  C  166  1  0.77835100  0.80840800  0.96530300  1
  C  167  1  0.76136800  0.80409800  0.98532600  1
  C  168  1  0.74077100  0.78499400  0.98837200  1
  C  169  1  0.73764400  0.76989800  0.97105900  1
  C  177  1  0.74706600  0.88698500  0.79265400  1
  C  178  1  0.78391400  0.88165900  0.78988500  1
  C  179  1  0.79605500  0.87038200  0.77125000  1
  C  180  1  0.77137500  0.86465000  0.75484400  1
  C  181  1  0.73450300  0.86955400  0.75725800  1
  C  182  1  0.72270400  0.88095500  0.77589900  1
  C  186  1  0.73457300  0.89682800  0.81240600  1
  C  187  1  0.74675700  0.88892800  0.83281100  1
  C  188  1  0.73164200  0.89616200  0.85260800  1
  C  189  1  0.70446400  0.91228100  0.85205000  1
  C  190  1  0.69270300  0.92108100  0.83202700  1
  C  191  1  0.70730900  0.91297700  0.81239700  1
  C  199  1  0.74704700  0.11444200  0.31233200  1
  C  200  1  0.78389800  0.11975700  0.31510300  1
  C  201  1  0.79606000  0.13099400  0.33376000  1
  C  202  1  0.77139400  0.13669300  0.35018500  1
  C  203  1  0.73451600  0.13180100  0.34776900  1
  C  204  1  0.72269600  0.12045700  0.32909800  1
  C  208  1  0.73452400  0.10464300  0.29256500  1
  C  209  1  0.74670500  0.11257100  0.27217000  1
  C  210  1  0.73164200  0.10533700  0.25236200  1
  C  211  1  0.70442100  0.08924200  0.25290100  1
  C  212  1  0.69266000  0.08041500  0.27291200  1
  C  213  1  0.70726600  0.08849200  0.29255200  1
  C  221  1  0.74721100  0.26057100  0.93879600  1
  C  222  1  0.78406700  0.26335100  0.93349800  1
  C  223  1  0.79620300  0.28197200  0.92219400  1
  C  224  1  0.77150700  0.29835400  0.91641000  1
  C  225  1  0.73463200  0.29593700  0.92130400  1
  C  226  1  0.72283800  0.27730200  0.93271500  1
  C  230  1  0.73471500  0.24082800  0.94865200  1
  C  231  1  0.74689400  0.22041800  0.94075200  1
  C  232  1  0.73182200  0.20061600  0.94800700  1
  C  233  1  0.70456100  0.20117400  0.96407700  1
  C  234  1  0.69280800  0.22120700  0.97284700  1
  C  235  1  0.70742700  0.24084400  0.96478400  1
  C  243  1  0.74706900  0.74095800  0.16608700  1
  C  244  1  0.78391900  0.73816500  0.17139500  1
  C  245  1  0.79604700  0.71951900  0.18266300  1
  C  246  1  0.77135000  0.70312300  0.18839500  1
  C  247  1  0.73447900  0.70555600  0.18350200  1
  C  248  1  0.72269300  0.72421200  0.17212000  1
  C  252  1  0.73457500  0.76072700  0.15628300  1
  C  253  1  0.74679400  0.78111400  0.16421900  1
  C  254  1  0.73165800  0.80093100  0.15705300  1
  C  255  1  0.70440500  0.80041700  0.14097600  1
  C  256  1  0.69263000  0.78040800  0.13215000  1
  C  257  1  0.70726600  0.76075800  0.14016300  1
  C  265  1  0.09953900  0.11446200  0.79265100  1
  C  266  1  0.06269300  0.11979000  0.78988300  1
  C  267  1  0.05055000  0.13106900  0.77124800  1
  C  268  1  0.07523000  0.13680000  0.75484200  1
  C  269  1  0.11210200  0.13189600  0.75725500  1
  C  270  1  0.12390000  0.12049300  0.77589400  1
  C  274  1  0.11203600  0.10461800  0.81240100  1
  C  275  1  0.09985300  0.11251600  0.83280700  1
  C  276  1  0.11497100  0.10528300  0.85260300  1
  C  277  1  0.14214900  0.08916100  0.85204400  1
  C  278  1  0.15390500  0.08036400  0.83201800  1
  C  279  1  0.13929700  0.08846800  0.81239100  1
  C  287  1  0.09955900  0.88700500  0.31233200  1
  C  288  1  0.06270800  0.88169000  0.31510300  1
  C  289  1  0.05054700  0.87045200  0.33375900  1
  C  290  1  0.07521300  0.86475400  0.35018500  1
  C  291  1  0.11208800  0.86964500  0.34776900  1
  C  292  1  0.12391000  0.88098900  0.32909800  1
  C  296  1  0.11208200  0.89680400  0.29256500  1
  C  297  1  0.09990100  0.88887600  0.27217000  1
  C  298  1  0.11496300  0.89611100  0.25236200  1
  C  299  1  0.14218400  0.91220600  0.25290100  1
  C  300  1  0.15394500  0.92103200  0.27291200  1
  C  301  1  0.13934100  0.91295400  0.29255200  1
  C  309  1  0.09939500  0.74087300  0.93879600  1
  C  310  1  0.06254000  0.73809300  0.93349800  1
  C  311  1  0.05040500  0.71947200  0.92219400  1
  C  312  1  0.07510000  0.70309000  0.91641000  1
  C  313  1  0.11197400  0.70550700  0.92130400  1
  C  314  1  0.12376900  0.72414200  0.93271500  1
  C  318  1  0.11189200  0.76061600  0.94865200  1
  C  319  1  0.09971300  0.78102600  0.94075200  1
  C  320  1  0.11478500  0.80082800  0.94800800  1
  C  321  1  0.14204800  0.80027000  0.96407700  1
  C  322  1  0.15380100  0.78023700  0.97284600  1
  C  323  1  0.13918200  0.76060000  0.96478400  1
  C  331  1  0.09953400  0.26048500  0.16607900  1
  C  332  1  0.06268300  0.26327700  0.17138000  1
  C  333  1  0.05055100  0.28192200  0.18264800  1
  C  334  1  0.07524800  0.29831700  0.18839000  1
  C  335  1  0.11212100  0.29588300  0.18350100  1
  C  336  1  0.12391100  0.27722900  0.17211700  1
  C  340  1  0.11203000  0.24071600  0.15627500  1
  C  341  1  0.09981500  0.22032800  0.16421100  1
  C  342  1  0.11495200  0.20051300  0.15704700  1
  C  343  1  0.14220800  0.20102700  0.14097200  1
  C  344  1  0.15398300  0.22103600  0.13214600  1
  C  345  1  0.13934400  0.24068600  0.14015800  1
  C  353  1  0.57756800  0.61114100  0.80479400  1
  C  354  1  0.54721500  0.62411200  0.81002100  1
  C  355  1  0.54490600  0.63616900  0.82952600  1
  C  356  1  0.57353600  0.63532300  0.84461300  1
  C  357  1  0.60427500  0.62261600  0.84001600  1
  C  358  1  0.60593300  0.61072800  0.82028400  1
  C  362  1  0.57700000  0.59719800  0.78585300  1
  C  363  1  0.55847000  0.60344000  0.76654800  1
  C  364  1  0.55348600  0.58886700  0.74900900  1
  C  365  1  0.56808900  0.56775300  0.75032600  1
  C  366  1  0.58738900  0.56110500  0.76890600  1
  C  367  1  0.59159300  0.57578700  0.78648700  1
  C  375  1  0.57723400  0.39025100  0.30012600  1
  C  376  1  0.54695400  0.37719500  0.29494400  1
  C  377  1  0.54466100  0.36512400  0.27544800  1
  C  378  1  0.57321600  0.36606600  0.26031500  1
  C  379  1  0.60393300  0.37879400  0.26489100  1
  C  380  1  0.60555600  0.39070900  0.28460700  1
  C  384  1  0.57664000  0.40421100  0.31906100  1
  C  385  1  0.55813600  0.39796500  0.33837500  1
  C  386  1  0.55322200  0.41252300  0.35593400  1
  C  387  1  0.56779800  0.43364200  0.35460200  1
  C  388  1  0.58708800  0.44029200  0.33602000  1
  C  389  1  0.59125400  0.42561700  0.31842800  1
  C  397  1  0.57728300  0.24841000  0.66305400  1
  C  398  1  0.54705600  0.24326000  0.67617400  1
  C  399  1  0.54479500  0.22378600  0.68829400  1
  C  400  1  0.57328600  0.20861600  0.68726700  1
  C  401  1  0.60393800  0.21315100  0.67446700  1
  C  402  1  0.60556100  0.23286500  0.66255200  1
  C  406  1  0.57661500  0.26732200  0.64905900  1
  C  407  1  0.55808300  0.28663300  0.65528500  1
  C  408  1  0.55307400  0.30416800  0.64070300  1
  C  409  1  0.56766100  0.30282300  0.61959000  1
  C  410  1  0.58699100  0.28425100  0.61295500  1
  C  411  1  0.59118700  0.26667500  0.62764300  1
  C  419  1  0.57740700  0.75308900  0.44206200  1
  C  420  1  0.54704800  0.75825700  0.42906500  1
  C  421  1  0.54462000  0.77777500  0.41703100  1
  C  422  1  0.57314100  0.79294000  0.41793500  1
  C  423  1  0.60384700  0.78840100  0.43069500  1
  C  424  1  0.60566400  0.76864600  0.44252200  1
  C  428  1  0.57686600  0.73415300  0.45601800  1
  C  429  1  0.55840600  0.71482400  0.44976600  1
  C  430  1  0.55345900  0.69728200  0.46434000  1
  C  431  1  0.56804100  0.69861500  0.48545600  1
  C  432  1  0.58730300  0.71720900  0.49210700  1
  C  433  1  0.59145600  0.73479700  0.47742900  1
  C  441  1  0.26903700  0.39030700  0.80479400  1
  C  442  1  0.29938900  0.37733500  0.81002100  1
  C  443  1  0.30169900  0.36527800  0.82952600  1
  C  444  1  0.27307000  0.36612500  0.84461500  1
  C  445  1  0.24233100  0.37883400  0.84001600  1
  C  446  1  0.24067400  0.39072100  0.82028400  1
  C  450  1  0.26960400  0.40425000  0.78585300  1
  C  451  1  0.28813700  0.39800800  0.76654800  1
  C  452  1  0.29312100  0.41258000  0.74900900  1
  C  453  1  0.27851500  0.43369300  0.75032600  1
  C  454  1  0.25921700  0.44034200  0.76890600  1
  C  455  1  0.25501300  0.42566100  0.78648700  1
  C  463  1  0.26936200  0.61119900  0.30013100  1
  C  464  1  0.29964500  0.62425400  0.29494900  1
  C  465  1  0.30194100  0.63632700  0.27545500  1
  C  466  1  0.27338500  0.63538500  0.26032000  1
  C  467  1  0.24266700  0.62265600  0.26489500  1
  C  468  1  0.24104100  0.61074300  0.28461000  1
  C  472  1  0.26995400  0.59724000  0.31906400  1
  C  473  1  0.28846000  0.60348200  0.33837900  1
  C  474  1  0.29336900  0.58892300  0.35593800  1
  C  475  1  0.27879000  0.56780500  0.35460600  1
  C  476  1  0.25949900  0.56115900  0.33602100  1
  C  477  1  0.25533700  0.57583400  0.31843200  1
  C  485  1  0.26932400  0.75303900  0.66305200  1
  C  486  1  0.29954800  0.75818900  0.67617200  1
  C  487  1  0.30180900  0.77766300  0.68829300  1
  C  488  1  0.27331500  0.79283400  0.68726600  1
  C  489  1  0.24266400  0.78829700  0.67446500  1
  C  490  1  0.24104500  0.76858300  0.66255000  1
  C  494  1  0.26999200  0.73412700  0.64905700  1
  C  495  1  0.28852400  0.71481400  0.65528500  1
  C  496  1  0.29353300  0.69728000  0.64070400  1
  C  497  1  0.27895400  0.69862500  0.61959000  1
  C  498  1  0.25962200  0.71719600  0.61295300  1
  C  499  1  0.25542400  0.73477300  0.62764000  1
  C  507  1  0.26920000  0.24835800  0.44206200  1
  C  508  1  0.29955900  0.24319000  0.42906500  1
  C  509  1  0.30198700  0.22367200  0.41703100  1
  C  510  1  0.27346300  0.20851000  0.41793500  1
  C  511  1  0.24276000  0.21304800  0.43069500  1
  C  512  1  0.24094300  0.23280100  0.44252200  1
  C  516  1  0.26974100  0.26729600  0.45601800  1
  C  517  1  0.28820100  0.28662300  0.44976800  1
  C  518  1  0.29314800  0.30416600  0.46434000  1
  C  519  1  0.27856600  0.30283100  0.48545800  1
  C  520  1  0.25930300  0.28423800  0.49210700  1
  C  521  1  0.25515000  0.26665000  0.47742900  1
  C  529  1  0.25532500  0.39280600  0.28816600  1
  C  530  1  0.28903600  0.38212000  0.28552500  1
  C  531  1  0.30348600  0.37712700  0.26478900  1
  C  532  1  0.28522700  0.38423800  0.24602000  1
  C  533  1  0.25186300  0.39488000  0.24786900  1
  C  534  1  0.23710100  0.39880000  0.26867500  1
  C  538  1  0.24092500  0.39779400  0.30956000  1
  C  539  1  0.25057700  0.38530900  0.32821900  1
  C  540  1  0.23590800  0.38926700  0.34905500  1
  C  541  1  0.21035700  0.40609700  0.35149500  1
  C  542  1  0.20039200  0.41911900  0.33361400  1
  C  543  1  0.21565000  0.41489200  0.31298400  1
  C  551  1  0.25541600  0.60867700  0.81684600  1
  C  552  1  0.28914300  0.61934700  0.81947700  1
  C  553  1  0.30364700  0.62430100  0.84020900  1
  C  554  1  0.28543200  0.61715800  0.85897900  1
  C  555  1  0.25203700  0.60655200  0.85714500  1
  C  556  1  0.23722600  0.60266400  0.83634500  1
  C  560  1  0.24096000  0.60373100  0.79545700  1
  C  561  1  0.25058800  0.61623700  0.77680900  1
  C  562  1  0.23591500  0.61229500  0.75597000  1
  C  563  1  0.21033700  0.59548100  0.75352600  1
  C  564  1  0.20038300  0.58244300  0.77139800  1
  C  565  1  0.21566900  0.58664200  0.79202700  1
  C  573  1  0.25538200  0.76507300  0.44460000  1
  C  574  1  0.28902500  0.76772200  0.43383500  1
  C  575  1  0.30348000  0.78846300  0.42885900  1
  C  576  1  0.28526500  0.80722300  0.43602900  1
  C  577  1  0.25195600  0.80537000  0.44672900  1
  C  578  1  0.23720700  0.78456200  0.45065800  1
  C  582  1  0.24098000  0.74367400  0.44957700  1
  C  583  1  0.25059200  0.72502300  0.43706600  1
  C  584  1  0.23594300  0.70417900  0.44101900  1
  C  585  1  0.21042600  0.70172100  0.45786500  1
  C  586  1  0.20048400  0.71960500  0.47088200  1
  C  587  1  0.21573100  0.74024000  0.46668900  1
  C  595  1  0.25537600  0.23641400  0.66040700  1
  C  596  1  0.28907600  0.23378900  0.67111000  1
  C  597  1  0.30358800  0.21306300  0.67608300  1
  C  598  1  0.28539400  0.19428900  0.66892100  1
  C  599  1  0.25203500  0.19612200  0.65827100  1
  C  600  1  0.23720400  0.21691300  0.65438300  1
  C  604  1  0.24092900  0.25780300  0.65543900  1
  C  605  1  0.25056000  0.27646100  0.66793300  1
  C  606  1  0.23585300  0.29729100  0.66399600  1
  C  607  1  0.21027900  0.29972900  0.64717900  1
  C  608  1  0.20036600  0.28184700  0.63414100  1
  C  609  1  0.21563700  0.26122200  0.63835000  1
  C  617  1  0.59127800  0.60863800  0.28816600  1
  C  618  1  0.55756600  0.61932400  0.28552600  1
  C  619  1  0.54311300  0.62431600  0.26479000  1
  C  620  1  0.56136900  0.61720300  0.24602200  1
  C  621  1  0.59473400  0.60656100  0.24786900  1
  C  622  1  0.60949900  0.60264200  0.26867300  1
  C  626  1  0.60568200  0.60365200  0.30956000  1
  C  627  1  0.59603100  0.61613700  0.32821900  1
  C  628  1  0.61070200  0.61218100  0.34905300  1
  C  629  1  0.63625400  0.59535100  0.35149400  1
  C  630  1  0.64621700  0.58232900  0.33361200  1
  C  631  1  0.63095700  0.58655400  0.31298200  1
  C  639  1  0.59118900  0.39276800  0.81684600  1
  C  640  1  0.55746100  0.38209900  0.81947700  1
  C  641  1  0.54296000  0.37714500  0.84020900  1
  C  642  1  0.56117500  0.38428800  0.85898000  1
  C  643  1  0.59457000  0.39489400  0.85714500  1
  C  644  1  0.60938000  0.39878200  0.83634500  1
  C  648  1  0.60564700  0.39771600  0.79545700  1
  C  649  1  0.59601800  0.38521100  0.77680700  1
  C  650  1  0.61068800  0.38915300  0.75597000  1
  C  651  1  0.63626700  0.40596600  0.75352600  1
  C  652  1  0.64622300  0.41900500  0.77139800  1
  C  653  1  0.63093600  0.41480500  0.79202700  1
  C  661  1  0.59122400  0.23637300  0.44460000  1
  C  662  1  0.55758200  0.23372400  0.43383600  1
  C  663  1  0.54312700  0.21298300  0.42886100  1
  C  664  1  0.56133900  0.19422300  0.43602900  1
  C  665  1  0.59464800  0.19607600  0.44672900  1
  C  666  1  0.60939900  0.21688200  0.45066000  1
  C  670  1  0.60562600  0.25777200  0.44958100  1
  C  671  1  0.59601200  0.27642300  0.43706900  1
  C  672  1  0.61066100  0.29726700  0.44102400  1
  C  673  1  0.63618100  0.29972500  0.45786800  1
  C  674  1  0.64612300  0.28184000  0.47088400  1
  C  675  1  0.63087600  0.26120400  0.46669100  1
  C  683  1  0.59122700  0.76503400  0.66040700  1
  C  684  1  0.55752800  0.76765900  0.67111200  1
  C  685  1  0.54301600  0.78838600  0.67608300  1
  C  686  1  0.56121000  0.80716000  0.66892300  1
  C  687  1  0.59457000  0.80532600  0.65827300  1
  C  688  1  0.60939900  0.78453400  0.65438500  1
  C  692  1  0.60567400  0.74364400  0.65543900  1
  C  693  1  0.59604200  0.72498700  0.66793500  1
  C  694  1  0.61075000  0.70415800  0.66399800  1
  C  695  1  0.63632400  0.70171900  0.64717900  1
  C  696  1  0.64623600  0.71960200  0.63414100  1
  C  697  1  0.63096500  0.74022600  0.63835000  1
  C  705  1  0.17185700  0.97066000  0.27257800  1
  C  707  1  0.11589400  0.98771100  0.28253000  1
  C  708  1  0.12793400  0.00797200  0.27404500  1
  C  710  1  0.18370200  0.99089500  0.26390800  1
  C  711  1  0.21459200  0.99411800  0.25442600  1
  C  712  1  0.08468000  0.98474100  0.29166400  1
  C  715  1  0.19369600  0.95226300  0.27354600  1
  C  717  1  0.10729000  0.02675600  0.27260200  1
  C  719  1  0.17181200  0.03074300  0.83236900  1
  C  721  1  0.11586300  0.01367500  0.82241700  1
  C  722  1  0.12789500  0.99342700  0.83093800  1
  C  724  1  0.18364800  0.01052100  0.84107400  1
  C  725  1  0.21453600  0.00731200  0.85056500  1
  C  726  1  0.08465300  0.01663200  0.81327300  1
  C  729  1  0.19365500  0.04913500  0.83137000  1
  C  731  1  0.10725100  0.97464400  0.83239500  1
  C  733  1  0.17172900  0.78057800  0.02247500  1
  C  735  1  0.11577400  0.77063000  0.03953600  1
  C  736  1  0.12780300  0.77914800  0.05978700  1
  C  738  1  0.18356500  0.78927800  0.04269800  1
  C  739  1  0.21445800  0.79876300  0.04591200  1
  C  740  1  0.08457400  0.76147400  0.03657800  1
  C  743  1  0.19356500  0.77958700  0.00407900  1
  C  745  1  0.10715400  0.78058400  0.07857000  1
  C  747  1  0.17196300  0.22069700  0.08253200  1
  C  749  1  0.11609500  0.23083000  0.06547500  1
  C  750  1  0.12807100  0.22232100  0.04521100  1
  C  752  1  0.18373800  0.21199000  0.06230000  1
  C  753  1  0.21453000  0.20238700  0.05908600  1
  C  754  1  0.08495900  0.24006400  0.06844200  1
  C  757  1  0.19378900  0.22157900  0.10093800  1
  C  759  1  0.10739600  0.22091700  0.02643600  1
  C  761  1  0.67474900  0.03078800  0.27257800  1
  C  763  1  0.73071300  0.01373700  0.28253000  1
  C  764  1  0.71867200  0.99347600  0.27404500  1
  C  766  1  0.66290400  0.01055300  0.26390800  1
  C  767  1  0.63201500  0.00732800  0.25442600  1
  C  768  1  0.76192800  0.01670600  0.29166400  1
  C  771  1  0.65291100  0.04918400  0.27354600  1
  C  773  1  0.73931800  0.97469100  0.27260200  1
  C  775  1  0.67478600  0.97070200  0.83236700  1
  C  777  1  0.73074000  0.98776700  0.82242000  1
  C  778  1  0.71869100  0.00802500  0.83090500  1
  C  780  1  0.66294400  0.99092800  0.84105600  1
  C  781  1  0.63205500  0.99414100  0.85054600  1
  C  782  1  0.76196000  0.98480300  0.81329100  1
  C  785  1  0.65294800  0.95230700  0.83137800  1
  C  787  1  0.73934500  0.02680200  0.83238900  1
  C  789  1  0.67487800  0.22086800  0.02247600  1
  C  791  1  0.73083400  0.23081500  0.03953700  1
  C  792  1  0.71880400  0.22230100  0.05978800  1
  C  794  1  0.66304400  0.21216900  0.04269900  1
  C  795  1  0.63214900  0.20268500  0.04591300  1
  C  796  1  0.76203300  0.23997200  0.03657800  1
  C  799  1  0.65304500  0.22185800  0.00407900  1
  C  801  1  0.73945200  0.22086500  0.07857200  1
  C  803  1  0.67465200  0.78074700  0.08253500  1
  C  805  1  0.73052000  0.77061200  0.06547800  1
  C  806  1  0.71854300  0.77912200  0.04521400  1
  C  808  1  0.66287700  0.78945400  0.06230300  1
  C  809  1  0.63208500  0.79905900  0.05909000  1
  C  810  1  0.76165300  0.76137900  0.06844500  1
  C  813  1  0.65282500  0.77986500  0.10094200  1
  C  815  1  0.73921800  0.78052600  0.02643900  1
  C  817  1  0.66122700  0.46935500  0.77138500  1
  C  819  1  0.60984300  0.48581600  0.78869400  1
  C  820  1  0.61806800  0.50625600  0.77903600  1
  C  822  1  0.66919900  0.48972900  0.76153200  1
  C  823  1  0.69630900  0.49344700  0.74860600  1
  C  824  1  0.58260900  0.48241100  0.80157000  1
  C  827  1  0.68381100  0.45138200  0.76964700  1
  C  829  1  0.59948700  0.52559500  0.78258000  1
  C  831  1  0.66114600  0.53197900  0.33359600  1
  C  833  1  0.60973800  0.51556600  0.31626500  1
  C  834  1  0.61790400  0.49511800  0.32592100  1
  C  836  1  0.66907500  0.51159100  0.34343200  1
  C  837  1  0.69617200  0.50784500  0.35636100  1
  C  838  1  0.58251200  0.51900200  0.30339000  1
  C  841  1  0.68376200  0.54993300  0.33535000  1
  C  843  1  0.59929600  0.47579200  0.32235200  1
  C  845  1  0.66103600  0.28183400  0.52127100  1
  C  847  1  0.60959000  0.26452800  0.53766800  1
  C  848  1  0.61779400  0.27414600  0.55812800  1
  C  850  1  0.66897800  0.29165100  0.54166500  1
  C  851  1  0.69609400  0.30456400  0.54542100  1
  C  852  1  0.58234300  0.25167200  0.53422200  1
  C  855  1  0.68363800  0.28359900  0.50331000  1
  C  857  1  0.59916100  0.27059000  0.57744800  1
  C  859  1  0.66131300  0.71961400  0.58380400  1
  C  861  1  0.60994600  0.73696900  0.56737700  1
  C  862  1  0.61813300  0.72732400  0.54692600  1
  C  864  1  0.66926100  0.70978200  0.56341700  1
  C  865  1  0.69636000  0.69685300  0.55967400  1
  C  866  1  0.58272500  0.74985200  0.57080500  1
  C  869  1  0.68387000  0.71782000  0.60178300  1
  C  871  1  0.59955400  0.73090600  0.52759500  1
  C  873  1  0.18537700  0.53209300  0.77138500  1
  C  875  1  0.23676100  0.51563100  0.78869300  1
  C  876  1  0.22853800  0.49519200  0.77903600  1
  C  878  1  0.17740600  0.51171900  0.76153200  1
  C  879  1  0.15029500  0.50800000  0.74860600  1
  C  880  1  0.26399600  0.51903600  0.80157000  1
  C  883  1  0.16279400  0.55006400  0.76964700  1
  C  885  1  0.24711900  0.47585100  0.78258000  1
  C  887  1  0.18545500  0.46946900  0.33359600  1
  C  889  1  0.23686800  0.48588200  0.31627200  1
  C  890  1  0.22868600  0.50633200  0.32591600  1
  C  892  1  0.17752000  0.48985800  0.34342900  1
  C  893  1  0.15042100  0.49360200  0.35635800  1
  C  894  1  0.26410100  0.48244400  0.30340300  1
  C  897  1  0.16284400  0.45151100  0.33535100  1
  C  899  1  0.24730700  0.52565500  0.32235700  1
  C  901  1  0.18557500  0.71961200  0.52126800  1
  C  903  1  0.23701200  0.73692100  0.53766600  1
  C  904  1  0.22882200  0.72729500  0.55812500  1
  C  906  1  0.17763500  0.70979200  0.54166200  1
  C  907  1  0.15052200  0.69687700  0.54541800  1
  C  908  1  0.26425400  0.74978300  0.53422200  1
  C  911  1  0.16297100  0.71784600  0.50330800  1
  C  913  1  0.24744100  0.73086000  0.57744600  1
  C  915  1  0.18528900  0.28183600  0.58380200  1
  C  917  1  0.23665900  0.26447900  0.56737700  1
  C  918  1  0.22847200  0.27412300  0.54692600  1
  C  920  1  0.17734400  0.29166600  0.56341500  1
  C  921  1  0.15024600  0.30459500  0.55967400  1
  C  922  1  0.26387800  0.25159600  0.57080500  1
  C  925  1  0.16273500  0.28362900  0.60178300  1
  C  927  1  0.24705200  0.27054200  0.52759500  1
  C  929  1  0.19708300  0.17625800  0.40643100  1
  C  931  1  0.18150500  0.18966600  0.37081500  1
  C  932  1  0.16993100  0.16856300  0.36425300  1
  C  934  1  0.18773900  0.15492100  0.39947200  1
  C  935  1  0.18859900  0.13765600  0.41180900  1
  C  936  1  0.17875500  0.20712100  0.35888200  1
  C  939  1  0.20188000  0.18169000  0.42822200  1
  C  941  1  0.14878400  0.16444100  0.34592800  1
  C  943  1  0.19690300  0.82508700  0.69859500  1
  C  945  1  0.18143400  0.81173200  0.73424600  1
  C  946  1  0.16982600  0.83283400  0.74078300  1
  C  948  1  0.18747200  0.84642400  0.70551400  1
  C  949  1  0.18830000  0.86366700  0.69314600  1
  C  950  1  0.17883600  0.79430400  0.74623300  1
  C  953  1  0.20173100  0.81961400  0.67681600  1
  C  955  1  0.14872300  0.83696400  0.75912400  1
  C  957  1  0.19692100  0.64685600  0.22811900  1
  C  959  1  0.18138100  0.68248600  0.24149000  1
  C  960  1  0.16981900  0.68903400  0.22037600  1
  C  962  1  0.18761200  0.65379300  0.20677300  1
  C  963  1  0.18852600  0.64143100  0.18952900  1
  C  964  1  0.17858600  0.69441100  0.25894900  1
  C  967  1  0.20163100  0.62507700  0.23362300  1
  C  969  1  0.14874000  0.70738900  0.21625800  1
  C  971  1  0.19665800  0.35457800  0.87678200  1
  C  973  1  0.18142400  0.31889300  0.86343500  1
  C  974  1  0.16991600  0.31230700  0.88454600  1
  C  976  1  0.18735600  0.34763800  0.89812600  1
  C  977  1  0.18797400  0.36003600  0.91535100  1
  C  978  1  0.17881800  0.30691900  0.84600100  1
  C  981  1  0.20126300  0.37636200  0.87126500  1
  C  983  1  0.14891800  0.29391700  0.88867200  1
  C  985  1  0.64952200  0.82519000  0.40643300  1
  C  987  1  0.66510000  0.81178300  0.37081500  1
  C  988  1  0.67667600  0.83288600  0.36425500  1
  C  990  1  0.65886700  0.84652700  0.39947300  1
  C  991  1  0.65800600  0.86379200  0.41180900  1
  C  992  1  0.66785100  0.79432700  0.35888300  1
  C  995  1  0.64472600  0.81975800  0.42822200  1
  C  997  1  0.69782200  0.83700700  0.34592800  1
  C  999  1  0.64970300  0.17636400  0.69859700  1
  C  1001  1  0.66517300  0.18972200  0.73424600  1
  C  1002  1  0.67678100  0.16862000  0.74078500  1
  C  1004  1  0.65913300  0.15502700  0.70551700  1
  C  1005  1  0.65830700  0.13778300  0.69315100  1
  C  1006  1  0.66776700  0.20715200  0.74623100  1
  C  1009  1  0.64486900  0.18183300  0.67681800  1
  C  1011  1  0.69788400  0.16449300  0.75912800  1
  C  1013  1  0.64968400  0.35459400  0.22811700  1
  C  1015  1  0.66522400  0.31896500  0.24148800  1
  C  1016  1  0.67678600  0.31241600  0.22037600  1
  C  1018  1  0.65899300  0.34765800  0.20677300  1
  C  1019  1  0.65808100  0.36002000  0.18952800  1
  C  1020  1  0.66801800  0.30704000  0.25894800  1
  C  1023  1  0.64497400  0.37637500  0.23362100  1
  C  1025  1  0.69786500  0.29406200  0.21625600  1
  C  1027  1  0.64994800  0.64687000  0.87678200  1
  C  1029  1  0.66518300  0.68255600  0.86343500  1
  C  1030  1  0.67669200  0.68914000  0.88454800  1
  C  1032  1  0.65924900  0.65380900  0.89812600  1
  C  1033  1  0.65863300  0.64141200  0.91535100  1
  C  1034  1  0.66778900  0.69453000  0.84600100  1
  C  1037  1  0.64534300  0.62508700  0.87126500  1
  C  1039  1  0.69769000  0.70753100  0.88867200  1
  C  1041  1  0.64458600  0.84074600  0.67598500  1
  C  1043  1  0.66708900  0.82333800  0.70841900  1
  C  1044  1  0.68149900  0.84340900  0.71590300  1
  C  1046  1  0.65816700  0.86091800  0.68376400  1
  C  1047  1  0.65580700  0.87943400  0.67349900  1
  C  1048  1  0.66991000  0.80486600  0.71870100  1
  C  1051  1  0.62940400  0.83809100  0.65541500  1
  C  1053  1  0.70345000  0.84574500  0.73405000  1
  C  1055  1  0.64467000  0.16065800  0.42904500  1
  C  1057  1  0.66712100  0.17803800  0.39658500  1
  C  1058  1  0.68151200  0.15795900  0.38910500  1
  C  1060  1  0.65824500  0.14047900  0.42127900  1
  C  1061  1  0.65588200  0.12197300  0.43156000  1
  C  1062  1  0.66990700  0.19649800  0.38627900  1
  C  1065  1  0.62952800  0.16333500  0.44962300  1
  C  1067  1  0.70342500  0.15560800  0.37094500  1
  C  1069  1  0.64468600  0.37720200  0.89252300  1
  C  1071  1  0.66717200  0.34476900  0.87510600  1
  C  1072  1  0.68162000  0.33728800  0.89516900  1
  C  1074  1  0.65828800  0.36942400  0.91269000  1
  C  1075  1  0.65591700  0.37968400  0.93120700  1
  C  1076  1  0.66998500  0.33449200  0.85662900  1
  C  1079  1  0.62950400  0.39777000  0.88986700  1
  C  1081  1  0.70356000  0.31913600  0.89749300  1
  C  1083  1  0.64469900  0.62429800  0.21243300  1
  C  1085  1  0.66712100  0.65677000  0.22980300  1
  C  1086  1  0.68143400  0.66427500  0.20971400  1
  C  1088  1  0.65819100  0.63208500  0.19224400  1
  C  1089  1  0.65585800  0.62179200  0.17374200  1
  C  1090  1  0.66995800  0.66706300  0.24826800  1
  C  1093  1  0.62962000  0.60370700  0.21512300  1
  C  1095  1  0.70334200  0.68243900  0.20735700  1
  C  1097  1  0.20201900  0.16070200  0.67598100  1
  C  1099  1  0.17951600  0.17811100  0.70841600  1
  C  1100  1  0.16510500  0.15804000  0.71590000  1
  C  1102  1  0.18843700  0.14052900  0.68376100  1
  C  1103  1  0.19079800  0.12201500  0.67349500  1
  C  1104  1  0.17669500  0.19658300  0.71869700  1
  C  1107  1  0.21720000  0.16335700  0.65541300  1
  C  1109  1  0.14315400  0.15570400  0.73404700  1
  C  1111  1  0.20193500  0.84078700  0.42904500  1
  C  1113  1  0.17948400  0.82340800  0.39658500  1
  C  1114  1  0.16509300  0.84348700  0.38910500  1
  C  1116  1  0.18836100  0.86096700  0.42127900  1
  C  1117  1  0.19072400  0.87947300  0.43156000  1
  C  1118  1  0.17669900  0.80494700  0.38627900  1
  C  1121  1  0.21707500  0.83811000  0.44962300  1
  C  1123  1  0.14317900  0.84583800  0.37094500  1
  C  1125  1  0.20192200  0.62424200  0.89252300  1
  C  1127  1  0.17943400  0.65667500  0.87510600  1
  C  1128  1  0.16498800  0.66415600  0.89516900  1
  C  1130  1  0.18832000  0.63202000  0.91269000  1
  C  1131  1  0.19069000  0.62176000  0.93120700  1
  C  1132  1  0.17662300  0.66695300  0.85663100  1
  C  1135  1  0.21710300  0.60367400  0.88986700  1
  C  1137  1  0.14304800  0.68230800  0.89749300  1
  C  1139  1  0.20189500  0.37714300  0.21243500  1
  C  1141  1  0.17946700  0.34467300  0.22980500  1
  C  1142  1  0.16515700  0.33716600  0.20971600  1
  C  1144  1  0.18840500  0.36935600  0.19224500  1
  C  1145  1  0.19074200  0.37964700  0.17374400  1
  C  1146  1  0.17662900  0.33438000  0.24827200  1
  C  1149  1  0.21697400  0.39773400  0.21512500  1
  C  1151  1  0.14324800  0.31900400  0.20735900  1
  C  1153  1  0.09903300  0.14800000  0.18245700  1
  C  1155  1  0.04364100  0.13847600  0.20058000  1
  C  1156  1  0.05726100  0.11743400  0.20523800  1
  C  1158  1  0.11261100  0.12693400  0.18745100  1
  C  1159  1  0.14412800  0.11975800  0.18164100  1
  C  1160  1  0.01158500  0.14517600  0.20590600  1
  C  1163  1  0.11764300  0.16383400  0.17074500  1
  C  1165  1  0.03638100  0.10049500  0.21297800  1
  C  1167  1  0.09898300  0.85337200  0.92263400  1
  C  1169  1  0.04360800  0.86294800  0.90452000  1
  C  1170  1  0.05729100  0.88396900  0.89983900  1
  C  1172  1  0.11262000  0.87442100  0.91762500  1
  C  1173  1  0.14417600  0.88155700  0.92340900  1
  C  1174  1  0.01153100  0.85627900  0.89920200  1
  C  1177  1  0.11754500  0.83752500  0.93435900  1
  C  1179  1  0.03644300  0.90093200  0.89211400  1
  C  1181  1  0.09899400  0.87078100  0.19981900  1
  C  1183  1  0.04353100  0.85275600  0.19026400  1
  C  1184  1  0.05717300  0.84804500  0.16923700  1
  C  1186  1  0.11260500  0.86572300  0.17877500  1
  C  1187  1  0.14419500  0.87143500  0.17163500  1
  C  1188  1  0.01142900  0.84750900  0.19695000  1
  C  1191  1  0.11761200  0.88248900  0.21565300  1
  C  1193  1  0.03626100  0.84029200  0.15231600  1
  C  1195  1  0.09915200  0.13060100  0.90517300  1
  C  1197  1  0.04383500  0.14878400  0.91473400  1
  C  1198  1  0.05747800  0.15342200  0.93577700  1
  C  1200  1  0.11275800  0.13555100  0.92624300  1
  C  1201  1  0.14423600  0.12966100  0.93342000  1
  C  1202  1  0.01178700  0.15415000  0.90805100  1
  C  1205  1  0.11771100  0.11888200  0.88932100  1
  C  1207  1  0.03661100  0.16110100  0.95274700  1
  C  1209  1  0.74757700  0.85344400  0.18246100  1
  C  1211  1  0.80296900  0.86296900  0.20058400  1
  C  1212  1  0.78934800  0.88401200  0.20523900  1
  C  1214  1  0.73399900  0.87451100  0.18745400  1
  C  1215  1  0.70248100  0.88168500  0.18164200  1
  C  1216  1  0.83502600  0.85627100  0.20590900  1
  C  1219  1  0.72896900  0.83760800  0.17074900  1
  C  1221  1  0.81022800  0.90095100  0.21298000  1
  C  1223  1  0.74761800  0.14807200  0.92263100  1
  C  1225  1  0.80299000  0.13849200  0.90451800  1
  C  1226  1  0.78930500  0.11747100  0.89983800  1
  C  1228  1  0.73397500  0.12702300  0.91762300  1
  C  1229  1  0.70241900  0.11988900  0.92340900  1
  C  1230  1  0.83506900  0.14515900  0.89920000  1
  C  1233  1  0.72905800  0.16392100  0.93435500  1
  C  1235  1  0.81014900  0.10050700  0.89211500  1
  C  1237  1  0.74761200  0.13066700  0.19981900  1
  C  1239  1  0.80307700  0.14869300  0.19026600  1
  C  1240  1  0.78943400  0.15340600  0.16923800  1
  C  1242  1  0.73400200  0.13572600  0.17877500  1
  C  1243  1  0.70241300  0.13001500  0.17163500  1
  C  1244  1  0.83517700  0.15394100  0.19695200  1
  C  1247  1  0.72899300  0.11895900  0.21565300  1
  C  1249  1  0.81034600  0.16115800  0.15231800  1
  C  1251  1  0.74746400  0.87084000  0.90517700  1
  C  1253  1  0.80278300  0.85265800  0.91473800  1
  C  1254  1  0.78914100  0.84802000  0.93578000  1
  C  1256  1  0.73385700  0.86588900  0.92624700  1
  C  1257  1  0.70238100  0.87177900  0.93342300  1
  C  1258  1  0.83482900  0.84729300  0.90805500  1
  C  1261  1  0.72890500  0.88255800  0.88932500  1
  C  1263  1  0.81000700  0.84034100  0.95275000  1
  C  1265  1  0.59279300  0.65402900  0.69338400  1
  C  1267  1  0.53579500  0.64550000  0.71007400  1
  C  1268  1  0.54695100  0.62368000  0.71339900  1
  C  1270  1  0.60406200  0.63223000  0.69724200  1
  C  1271  1  0.63482700  0.62415000  0.69113200  1
  C  1272  1  0.50412600  0.65301200  0.71516300  1
  C  1275  1  0.61272000  0.66944400  0.68193500  1
  C  1277  1  0.52377600  0.60702600  0.71912400  1
  C  1279  1  0.59264300  0.34738900  0.41164100  1
  C  1281  1  0.53564200  0.35589200  0.39494500  1
  C  1282  1  0.54679200  0.37770500  0.39154700  1
  C  1284  1  0.60389300  0.36918400  0.40776300  1
  C  1285  1  0.63466600  0.37727300  0.41384800  1
  C  1286  1  0.50398000  0.34836500  0.38985900  1
  C  1289  1  0.61258000  0.33198300  0.42310000  1
  C  1291  1  0.52360100  0.39435600  0.38584800  1
  C  1293  1  0.59262400  0.35977800  0.70584800  1
  C  1295  1  0.53553100  0.34319400  0.69734300  1
  C  1296  1  0.54666300  0.33981200  0.67552300  1
  C  1298  1  0.60387600  0.35585300  0.68406100  1
  C  1299  1  0.63471200  0.36184400  0.67598800  1
  C  1300  1  0.50383200  0.33819100  0.70487300  1
  C  1303  1  0.61259900  0.37121400  0.72125300  1
  C  1305  1  0.52342800  0.33405500  0.65891000  1
  C  1307  1  0.59279100  0.64159300  0.39917500  1
  C  1309  1  0.53583000  0.65832500  0.40769800  1
  C  1310  1  0.54698900  0.66168600  0.42951300  1
  C  1312  1  0.60407600  0.64546400  0.42096600  1
  C  1313  1  0.63479500  0.63929600  0.42906500  1
  C  1314  1  0.50416100  0.66341800  0.40018700  1
  C  1317  1  0.61268300  0.63011100  0.38376600  1
  C  1319  1  0.52381300  0.66737200  0.44617700  1
  C  1321  1  0.25381000  0.34742000  0.69338400  1
  C  1323  1  0.31080900  0.35594700  0.71007400  1
  C  1324  1  0.29965600  0.37776700  0.71339900  1
  C  1326  1  0.24254400  0.36921700  0.69724200  1
  C  1327  1  0.21177800  0.37730000  0.69113200  1
  C  1328  1  0.34247900  0.34843500  0.71516300  1
  C  1331  1  0.23388300  0.33200300  0.68193300  1
  C  1333  1  0.32282900  0.39442100  0.71912400  1
  C  1335  1  0.25396200  0.65405900  0.41163600  1
  C  1337  1  0.31096000  0.64555900  0.39493200  1
  C  1338  1  0.29981200  0.62374500  0.39155100  1
  C  1340  1  0.24271900  0.63225800  0.40776900  1
  C  1341  1  0.21195000  0.62416900  0.41386300  1
  C  1342  1  0.34261600  0.65308500  0.38983600  1
  C  1345  1  0.23402400  0.66946400  0.42309300  1
  C  1347  1  0.32299600  0.60708800  0.38585300  1
  C  1349  1  0.25398200  0.64166900  0.70585000  1
  C  1351  1  0.31107500  0.65825500  0.69734700  1
  C  1352  1  0.29994400  0.66163700  0.67552700  1
  C  1354  1  0.24273200  0.64559500  0.68406100  1
  C  1355  1  0.21189700  0.63960500  0.67598800  1
  C  1356  1  0.34277200  0.66325800  0.70487700  1
  C  1359  1  0.23400600  0.63023300  0.72125300  1
  C  1361  1  0.32318100  0.66739400  0.65891300  1
  C  1363  1  0.25381900  0.35985500  0.39917500  1
  C  1365  1  0.31078200  0.34312300  0.40769900  1
  C  1366  1  0.29962100  0.33976100  0.42951500  1
  C  1368  1  0.24253400  0.35598200  0.42096600  1
  C  1369  1  0.21181200  0.36215000  0.42906500  1
  C  1370  1  0.34245200  0.33803100  0.40018900  1
  C  1373  1  0.23392800  0.37133500  0.38376600  1
  C  1375  1  0.32279600  0.33407300  0.44617800  1
  C  1377  1  0.95788200  0.15636900  0.33726200  1
  C  1379  1  0.90729000  0.16172000  0.31345500  1
  C  1380  1  0.88353500  0.15465500  0.33010400  1
  C  1382  1  0.93405300  0.15014500  0.35419200  1
  C  1383  1  0.94421800  0.14394400  0.37352200  1
  C  1384  1  0.89746900  0.16692700  0.29376200  1
  C  1387  1  0.99491800  0.15534000  0.33870100  1
  C  1389  1  0.84691100  0.15201200  0.32720200  1
  C  1391  1  0.95785800  0.84497000  0.76777600  1
  C  1393  1  0.90717900  0.83954200  0.79150000  1
  C  1394  1  0.88348400  0.84666900  0.77484800  1
  C  1396  1  0.93408800  0.85128400  0.75084800  1
  C  1397  1  0.94431800  0.85754700  0.73154800  1
  C  1398  1  0.89728000  0.83421900  0.81114700  1
  C  1401  1  0.99490500  0.84594700  0.76637700  1
  C  1403  1  0.84684600  0.84928200  0.77770000  1
  C  1405  1  0.95780700  0.71599300  0.20821300  1
  C  1407  1  0.90712000  0.73970900  0.21364500  1
  C  1408  1  0.88344400  0.72307900  0.20643900  1
  C  1410  1  0.93405300  0.69908500  0.20182700  1
  C  1411  1  0.94430100  0.67980100  0.19553000  1
  C  1412  1  0.89722900  0.75936400  0.21894900  1
  C  1415  1  0.99485900  0.71460400  0.20725800  1
  C  1417  1  0.84681400  0.72595000  0.20378500  1
  C  1419  1  0.95793300  0.28558200  0.89686600  1
  C  1421  1  0.90720600  0.26188700  0.89148100  1
  C  1422  1  0.88353000  0.27864200  0.89838200  1
  C  1424  1  0.93417900  0.30260600  0.90294300  1
  C  1425  1  0.94444400  0.32193000  0.90910700  1
  C  1426  1  0.89724800  0.24220100  0.88634300  1
  C  1429  1  0.99497800  0.28694300  0.89795000  1
  C  1431  1  0.84686800  0.27588000  0.90089200  1
  C  1433  1  0.88872200  0.84507800  0.33726400  1
  C  1435  1  0.93931700  0.83972600  0.31345600  1
  C  1436  1  0.96307100  0.84679100  0.33010600  1
  C  1438  1  0.91255400  0.85130200  0.35419200  1
  C  1439  1  0.90238900  0.85750300  0.37352400  1
  C  1440  1  0.94913800  0.83451900  0.29376200  1
  C  1443  1  0.85168800  0.84610700  0.33870300  1
  C  1445  1  0.99969600  0.84943400  0.32720400  1
  C  1447  1  0.88874900  0.15648700  0.76778400  1
  C  1449  1  0.93943000  0.16191300  0.79150700  1
  C  1450  1  0.96312200  0.15478500  0.77485400  1
  C  1452  1  0.91251900  0.15017200  0.75085500  1
  C  1453  1  0.90228400  0.14391000  0.73155600  1
  C  1454  1  0.94932900  0.16723300  0.81115500  1
  C  1457  1  0.85170200  0.15551200  0.76638500  1
  C  1459  1  0.99976000  0.15216900  0.77770700  1
  C  1461  1  0.88879700  0.28546900  0.20820600  1
  C  1463  1  0.93949500  0.26176300  0.21364800  1
  C  1464  1  0.96316300  0.27839100  0.20643100  1
  C  1466  1  0.91254600  0.30237900  0.20181600  1
  C  1467  1  0.90228900  0.32165900  0.19551400  1
  C  1468  1  0.94939600  0.24211300  0.21896100  1
  C  1471  1  0.85174500  0.28685300  0.20725300  1
  C  1473  1  0.99979200  0.27553200  0.20379000  1
  C  1475  1  0.88867600  0.71586400  0.89686600  1
  C  1477  1  0.93940300  0.73955900  0.89148100  1
  C  1478  1  0.96307700  0.72280400  0.89838400  1
  C  1480  1  0.91242700  0.69884000  0.90294300  1
  C  1481  1  0.90216500  0.67951600  0.90910500  1
  C  1482  1  0.94935900  0.75924500  0.88634300  1
  C  1485  1  0.85163200  0.71450300  0.89794800  1
  C  1487  1  0.99974100  0.72556500  0.90089400  1
  C  1489  1  0.46025100  0.65820300  0.84613900  1
  C  1491  1  0.41119200  0.66138100  0.82071000  1
  C  1492  1  0.38667400  0.65412200  0.83687200  1
  C  1494  1  0.43545500  0.65221800  0.86263800  1
  C  1495  1  0.44442000  0.64676000  0.88240400  1
  C  1496  1  0.40283000  0.66516800  0.80045000  1
  C  1499  1  0.49715500  0.65613600  0.84818800  1
  C  1501  1  0.35102400  0.64903000  0.83271800  1
  C  1503  1  0.46008100  0.34311600  0.25883700  1
  C  1505  1  0.41098200  0.33987400  0.28422700  1
  C  1506  1  0.38651000  0.34729300  0.26811300  1
  C  1508  1  0.43533900  0.34930800  0.24238300  1
  C  1509  1  0.44435500  0.35487000  0.22265600  1
  C  1510  1  0.40256400  0.33588900  0.30444100  1
  C  1513  1  0.49702000  0.34505900  0.25681000  1
  C  1515  1  0.35086000  0.35239200  0.27227400  1
  C  1517  1  0.46014900  0.20712600  0.71018900  1
  C  1519  1  0.41103900  0.23250800  0.71341700  1
  C  1520  1  0.38660400  0.21640600  0.70592500  1
  C  1522  1  0.43543900  0.19067700  0.70394900  1
  C  1523  1  0.44448700  0.17096000  0.69837100  1
  C  1524  1  0.40264700  0.25274000  0.71733600  1
  C  1527  1  0.49709600  0.20513200  0.70827700  1
  C  1529  1  0.35097000  0.22057800  0.70079600  1
  C  1531  1  0.45992200  0.79433000  0.39490900  1
  C  1533  1  0.41089400  0.76886500  0.39187700  1
  C  1534  1  0.38632100  0.78510300  0.39889300  1
  C  1536  1  0.43509400  0.81089400  0.40065200  1
  C  1537  1  0.44404300  0.83069300  0.40599100  1
  C  1538  1  0.40255800  0.74856400  0.38828500  1
  C  1541  1  0.49681900  0.79636800  0.39706900  1
  C  1543  1  0.35065800  0.78099500  0.40397800  1
  C  1545  1  0.38635600  0.34324500  0.84614100  1
  C  1547  1  0.43541500  0.34006600  0.82071000  1
  C  1548  1  0.45993300  0.34732400  0.83687200  1
  C  1550  1  0.41115200  0.34922800  0.86263800  1
  C  1551  1  0.40218400  0.35468700  0.88240400  1
  C  1552  1  0.44377400  0.33627700  0.80045000  1
  C  1555  1  0.34945200  0.34531200  0.84818800  1
  C  1557  1  0.49558300  0.35241600  0.83271800  1
  C  1559  1  0.38652000  0.65833100  0.25884200  1
  C  1561  1  0.43562200  0.66157200  0.28423200  1
  C  1562  1  0.46009200  0.65415300  0.26811600  1
  C  1564  1  0.41126200  0.65214000  0.24238800  1
  C  1565  1  0.40224600  0.64657800  0.22266100  1
  C  1566  1  0.44404100  0.66555600  0.30444600  1
  C  1569  1  0.34958400  0.65639000  0.25681700  1
  C  1571  1  0.49574200  0.64905400  0.27227800  1
  C  1573  1  0.38645300  0.79432500  0.71018800  1
  C  1575  1  0.43556300  0.76894100  0.71341700  1
  C  1576  1  0.45999800  0.78504300  0.70592500  1
  C  1578  1  0.41116500  0.81077200  0.70394700  1
  C  1579  1  0.40211700  0.83048900  0.69837100  1
  C  1580  1  0.44395400  0.74870900  0.71733600  1
  C  1583  1  0.34950600  0.79631700  0.70827600  1
  C  1585  1  0.49563200  0.78087000  0.70079600  1
  C  1587  1  0.38668500  0.20711700  0.39490900  1
  C  1589  1  0.43571100  0.23258400  0.39187700  1
  C  1590  1  0.46028300  0.21634600  0.39889300  1
  C  1592  1  0.41151000  0.19055500  0.40065200  1
  C  1593  1  0.40256100  0.17075400  0.40598900  1
  C  1594  1  0.44404600  0.25288300  0.38828500  1
  C  1597  1  0.34978800  0.20508000  0.39706900  1
  C  1599  1  0.49594900  0.22045200  0.40397900  1
  N  19  1  0.12187400  0.04580900  0.27182600  1
  N  20  1  0.04308100  0.08836000  0.22952800  1
  N  21  1  0.13688700  0.14517000  0.34157700  1
  N  22  1  0.01209600  0.14582200  0.32325400  1
  N  41  1  0.12183400  0.95559000  0.83317800  1
  N  42  1  0.04313300  0.91306200  0.87555900  1
  N  43  1  0.13678700  0.85623200  0.76345800  1
  N  44  1  0.01203500  0.85543800  0.78186200  1
  N  63  1  0.12174000  0.78139500  0.09762200  1
  N  64  1  0.04293400  0.82374000  0.14017800  1
  N  65  1  0.13674400  0.71169700  0.19699900  1
  N  66  1  0.01199800  0.73010400  0.19779600  1
  N  85  1  0.12198300  0.22006600  0.00738800  1
  N  86  1  0.04327200  0.17765000  0.96489000  1
  N  87  1  0.13692100  0.28967500  0.90794500  1
  N  88  1  0.01210300  0.27145100  0.90743100  1
  N  107  1  0.72473300  0.95563700  0.27182600  1
  N  108  1  0.80352600  0.91308800  0.22952800  1
  N  109  1  0.70972000  0.85627700  0.34157900  1
  N  110  1  0.83450900  0.85562500  0.32325500  1
  N  129  1  0.72477300  0.04585900  0.83315300  1
  N  130  1  0.80346100  0.08837800  0.87555900  1
  N  131  1  0.70982000  0.14522700  0.76346200  1
  N  132  1  0.83457100  0.14602200  0.78187200  1
  N  151  1  0.72486800  0.22005500  0.09762300  1
  N  152  1  0.80367400  0.17770900  0.14018000  1
  N  153  1  0.70986000  0.28975300  0.19699900  1
  N  154  1  0.83460900  0.27135200  0.19779300  1
  N  173  1  0.72463100  0.78137800  0.00739100  1
  N  174  1  0.80334300  0.82379300  0.96489500  1
  N  175  1  0.70968600  0.71177200  0.90794600  1
  N  176  1  0.83450400  0.72999500  0.90743100  1
  N  195  1  0.66220400  0.93213800  0.83128800  1
  N  196  1  0.74304300  0.88618300  0.87054600  1
  N  197  1  0.71141100  0.86473100  0.74154100  1
  N  198  1  0.83046400  0.86548100  0.76887000  1
  N  217  1  0.66216600  0.06935200  0.27363200  1
  N  218  1  0.74311500  0.11529300  0.23442800  1
  N  219  1  0.71144600  0.13661300  0.36349300  1
  N  220  1  0.83046700  0.13589800  0.33614700  1
  N  239  1  0.66230400  0.22194600  0.98391300  1
  N  240  1  0.74322800  0.18268100  0.93802500  1
  N  241  1  0.71154300  0.31165000  0.91648000  1
  N  242  1  0.83062600  0.28435100  0.91733300  1
  N  261  1  0.66210500  0.77977700  0.12110500  1
  N  262  1  0.74311500  0.81884800  0.16704400  1
  N  263  1  0.71136000  0.68986600  0.18835200  1
  N  264  1  0.83045300  0.71713200  0.18757100  1
  N  283  1  0.18440300  0.06930300  0.83127700  1
  N  284  1  0.10357300  0.11526000  0.87054300  1
  N  285  1  0.13519000  0.13671600  0.74153800  1
  N  286  1  0.01614100  0.13597100  0.76887100  1
  N  305  1  0.18444100  0.93209600  0.27363200  1
  N  306  1  0.10349200  0.88615500  0.23442800  1
  N  307  1  0.13516100  0.86483300  0.36349300  1
  N  308  1  0.01613900  0.86554800  0.33614700  1
  N  327  1  0.18430500  0.77949900  0.98391300  1
  N  328  1  0.10337800  0.81876300  0.93802700  1
  N  329  1  0.13506400  0.68979400  0.91648000  1
  N  330  1  0.01598300  0.71709300  0.91733300  1
  N  349  1  0.18450900  0.22166700  0.12110200  1
  N  350  1  0.10349700  0.18259400  0.16703900  1
  N  351  1  0.13523800  0.31157300  0.18835400  1
  N  352  1  0.01614200  0.28430700  0.18754900  1
  N  371  1  0.60175300  0.54132100  0.76878500  1
  N  372  1  0.52873600  0.59257100  0.73394000  1
  N  373  1  0.62700600  0.61682200  0.85557800  1
  N  374  1  0.51299100  0.64473200  0.83355100  1
  N  393  1  0.60148700  0.46006600  0.33615200  1
  N  394  1  0.52852000  0.40881100  0.37103000  1
  N  395  1  0.62660500  0.38461300  0.24930700  1
  N  396  1  0.51280300  0.35645100  0.27147700  1
  N  415  1  0.60139200  0.28437700  0.59318200  1
  N  416  1  0.52834500  0.31923400  0.64446000  1
  N  417  1  0.62651400  0.19753500  0.66859800  1
  N  418  1  0.51289400  0.21980800  0.69690500  1
  N  437  1  0.60168300  0.71708300  0.51188600  1
  N  438  1  0.52875200  0.68218600  0.46063500  1
  N  439  1  0.62641100  0.80405700  0.43647900  1
  N  440  1  0.51266000  0.78177300  0.40851900  1
  N  459  1  0.24485200  0.46012500  0.76878500  1
  N  460  1  0.31787100  0.40887600  0.73394000  1
  N  461  1  0.21960000  0.38462700  0.85557800  1
  N  462  1  0.33361600  0.35671500  0.83355100  1
  N  481  1  0.24509400  0.54138600  0.33615000  1
  N  482  1  0.31807000  0.59263300  0.37103500  1
  N  483  1  0.21999900  0.61683800  0.24931000  1
  N  484  1  0.33379900  0.64499800  0.27148200  1
  N  503  1  0.24522800  0.71706900  0.59317900  1
  N  504  1  0.31826400  0.68221500  0.64446200  1
  N  505  1  0.22008700  0.80391200  0.66859700  1
  N  506  1  0.33370700  0.78164200  0.69690300  1
  N  525  1  0.24492300  0.28436400  0.51188600  1
  N  526  1  0.31785800  0.31926000  0.46063700  1
  N  527  1  0.22019400  0.19739000  0.43647900  1
  N  528  1  0.33394400  0.21967500  0.40851900  1
  N  547  1  0.17109700  0.43120000  0.33541700  1
  N  548  1  0.24810500  0.37737100  0.36561100  1
  N  549  1  0.23755700  0.40436400  0.23057700  1
  N  550  1  0.33585200  0.36838700  0.26223900  1
  N  569  1  0.17107700  0.57037100  0.76959400  1
  N  570  1  0.24813100  0.62419400  0.73942200  1
  N  571  1  0.23775400  0.59706400  0.87443900  1
  N  572  1  0.33602700  0.63302600  0.84274500  1
  N  591  1  0.17121900  0.71778400  0.48299600  1
  N  592  1  0.24816600  0.68763100  0.42912300  1
  N  593  1  0.23768300  0.82266100  0.45623300  1
  N  594  1  0.33578000  0.79100900  0.42003200  1
  N  613  1  0.17104300  0.28369600  0.62208700  1
  N  614  1  0.24805300  0.31384900  0.67589000  1
  N  615  1  0.23780300  0.17880400  0.64879300  1
  N  616  1  0.33596500  0.21052900  0.68480900  1
  N  635  1  0.67551000  0.57024600  0.33541500  1
  N  636  1  0.59850700  0.62407500  0.36561100  1
  N  637  1  0.60903600  0.59707700  0.23057700  1
  N  638  1  0.51074700  0.63305900  0.26224200  1
  N  657  1  0.67552900  0.43107600  0.76959400  1
  N  658  1  0.59847200  0.37725400  0.73942200  1
  N  659  1  0.60885600  0.40438200  0.87443900  1
  N  660  1  0.51058000  0.36842000  0.84274500  1
  N  679  1  0.67538900  0.28366000  0.48299800  1
  N  680  1  0.59844000  0.31381500  0.42912800  1
  N  681  1  0.60892300  0.17878500  0.45623300  1
  N  682  1  0.51082500  0.21043800  0.42003200  1
  N  701  1  0.67556100  0.71775200  0.62208700  1
  N  702  1  0.59855000  0.68760000  0.67589000  1
  N  703  1  0.60880200  0.82264500  0.64879500  1
  N  704  1  0.51063900  0.79091800  0.68480900  1
  N  706  1  0.13839900  0.97024600  0.28160700  1
  N  709  1  0.16127700  0.00828300  0.26493000  1
  N  713  1  0.05715000  0.98212800  0.29975300  1
  N  714  1  0.24178500  0.99696400  0.24600600  1
  N  720  1  0.13836300  0.03114200  0.82332500  1
  N  723  1  0.16122800  0.99313000  0.84006500  1
  N  727  1  0.05712800  0.01923500  0.80517600  1
  N  728  1  0.24172800  0.00447900  0.85899000  1
  N  734  1  0.13827900  0.77153700  0.02207100  1
  N  737  1  0.16114300  0.78826700  0.06008900  1
  N  741  1  0.05705900  0.75336700  0.03397300  1
  N  742  1  0.24165400  0.80718100  0.04874900  1
  N  748  1  0.13858300  0.22983400  0.08294400  1
  N  751  1  0.16132400  0.21308400  0.04491000  1
  N  755  1  0.05749900  0.24823900  0.07105400  1
  N  756  1  0.24163600  0.19386200  0.05624900  1
  N  762  1  0.70820800  0.03120100  0.28160700  1
  N  765  1  0.68533100  0.99316400  0.26493000  1
  N  769  1  0.78945500  0.01932000  0.29975300  1
  N  770  1  0.60482100  0.00448200  0.24600600  1
  N  776  1  0.70824300  0.97029800  0.82333300  1
  N  779  1  0.68536100  0.00832000  0.84003900  1
  N  783  1  0.78949600  0.98219500  0.80520800  1
  N  784  1  0.60486200  0.99697600  0.85897000  1
  N  790  1  0.70832900  0.22990900  0.02207200  1
  N  793  1  0.68546600  0.21318200  0.06009000  1
  N  797  1  0.78955000  0.24807900  0.03397300  1
  N  798  1  0.60495300  0.19426700  0.04875000  1
  N  804  1  0.70803000  0.77161000  0.08294700  1
  N  807  1  0.68529100  0.78836000  0.04491400  1
  N  811  1  0.78911400  0.75320400  0.07105600  1
  N  812  1  0.60498000  0.80758400  0.05625300  1
  N  818  1  0.63178600  0.46854900  0.78456000  1
  N  821  1  0.64752300  0.50692700  0.76588600  1
  N  825  1  0.55853700  0.47935800  0.81290100  1
  N  826  1  0.72022500  0.49673900  0.73722300  1
  N  832  1  0.63171300  0.53281500  0.32041400  1
  N  835  1  0.64735800  0.49441200  0.33906800  1
  N  839  1  0.55844900  0.52208200  0.29206000  1
  N  840  1  0.72007700  0.50452900  0.36774800  1
  N  846  1  0.63157100  0.26867800  0.52042100  1
  N  849  1  0.64726200  0.28728200  0.55884100  1
  N  853  1  0.55826000  0.24036000  0.53113400  1
  N  854  1  0.72001200  0.31593600  0.54874500  1
  N  860  1  0.63188800  0.73280000  0.58463500  1
  N  863  1  0.64757600  0.71416700  0.54622800  1
  N  867  1  0.55866900  0.76118800  0.57387600  1
  N  868  1  0.72026500  0.68546800  0.55636300  1
  N  874  1  0.21481800  0.53289800  0.78456000  1
  N  877  1  0.19908400  0.49451800  0.76588600  1
  N  881  1  0.28806700  0.52209000  0.81290100  1
  N  882  1  0.12638000  0.50470700  0.73722100  1
  N  888  1  0.21489500  0.46863100  0.32042100  1
  N  891  1  0.19923300  0.50703700  0.33906300  1
  N  895  1  0.28817200  0.47936400  0.29207800  1
  N  896  1  0.12651500  0.49691800  0.36774300  1
  N  902  1  0.21503200  0.73277200  0.52041900  1
  N  905  1  0.19935300  0.71416100  0.55883800  1
  N  909  1  0.28833300  0.76110000  0.53113600  1
  N  910  1  0.12660300  0.68550500  0.54874300  1
  N  916  1  0.21471500  0.26864700  0.58463500  1
  N  919  1  0.19902700  0.28728000  0.54622800  1
  N  923  1  0.28793500  0.24025900  0.57387600  1
  N  924  1  0.12634100  0.31598200  0.55636100  1
  N  930  1  0.19340700  0.19255700  0.39157500  1
  N  933  1  0.17395400  0.15231400  0.37917100  1
  N  937  1  0.17641900  0.22252600  0.34834900  1
  N  938  1  0.18935200  0.12244300  0.42270200  1
  N  944  1  0.19332400  0.80881400  0.71348700  1
  N  947  1  0.17374900  0.84905700  0.72582800  1
  N  951  1  0.17663300  0.77892300  0.75681100  1
  N  952  1  0.18902400  0.87886000  0.68222300  1
  N  958  1  0.19323400  0.66171900  0.24441000  1
  N  961  1  0.17386700  0.67410000  0.20414400  1
  N  965  1  0.17621100  0.70493500  0.27435800  1
  N  966  1  0.18932500  0.63051400  0.17433400  1
  N  972  1  0.19313600  0.33968600  0.86050400  1
  N  975  1  0.17374700  0.32729500  0.90075400  1
  N  979  1  0.17660900  0.29634900  0.83061200  1
  N  980  1  0.18851500  0.37098400  0.93052600  1
  N  986  1  0.65319900  0.80889100  0.39157700  1
  N  989  1  0.67265200  0.84913400  0.37917100  1
  N  993  1  0.67018700  0.77892200  0.34835100  1
  N  994  1  0.65725500  0.87900500  0.42270400  1
  N  1000  1  0.65327900  0.19263800  0.71348700  1
  N  1003  1  0.67285900  0.15239700  0.72583100  1
  N  1007  1  0.66997100  0.22253400  0.75680800  1
  N  1008  1  0.65758300  0.12258900  0.68223000  1
  N  1014  1  0.65336800  0.33973200  0.24440800  1
  N  1017  1  0.67273800  0.32735000  0.20414200  1
  N  1021  1  0.67039100  0.29651500  0.27435800  1
  N  1022  1  0.65728200  0.37093700  0.17433300  1
  N  1028  1  0.65347100  0.66176100  0.86050400  1
  N  1031  1  0.67285900  0.67415200  0.90075400  1
  N  1035  1  0.66999800  0.70509800  0.83061300  1
  N  1036  1  0.65809200  0.63046200  0.93052600  1
  N  1042  1  0.64988600  0.82299400  0.68889700  1
  N  1045  1  0.67608600  0.86114500  0.70299200  1
  N  1049  1  0.67226700  0.78856900  0.72779200  1
  N  1050  1  0.65376100  0.89576900  0.66444800  1
  N  1056  1  0.64994800  0.17839800  0.41611300  1
  N  1059  1  0.67612100  0.14023400  0.40203800  1
  N  1063  1  0.67223200  0.21278600  0.37716600  1
  N  1064  1  0.65383400  0.10564500  0.44062300  1
  N  1070  1  0.64996900  0.36429100  0.87476700  1
  N  1073  1  0.67620700  0.35019800  0.91290900  1
  N  1077  1  0.67233200  0.32540200  0.84033100  1
  N  1078  1  0.65386400  0.38873000  0.94754400  1
  N  1084  1  0.64999600  0.63722400  0.23017600  1
  N  1087  1  0.67604100  0.65133600  0.19199200  1
  N  1091  1  0.67232900  0.67616600  0.26455900  1
  N  1092  1  0.65383700  0.61271900  0.15742000  1
  N  1098  1  0.19671900  0.17845500  0.68889400  1
  N  1101  1  0.17051700  0.14030300  0.70298900  1
  N  1105  1  0.17433800  0.21288000  0.72778900  1
  N  1106  1  0.19284300  0.10568000  0.66444500  1
  N  1112  1  0.19665700  0.82304800  0.41611300  1
  N  1115  1  0.17048300  0.86121200  0.40203800  1
  N  1119  1  0.17437200  0.78866000  0.37716400  1
  N  1120  1  0.19277100  0.89580100  0.44062300  1
  N  1126  1  0.19663900  0.63715500  0.87476700  1
  N  1129  1  0.17039900  0.65124700  0.91290900  1
  N  1133  1  0.17427500  0.67604200  0.84033100  1
  N  1134  1  0.19274300  0.61271400  0.94754400  1
  N  1140  1  0.19659300  0.36421700  0.23017800  1
  N  1143  1  0.17055500  0.35010500  0.19199400  1
  N  1147  1  0.17425500  0.32527900  0.26456200  1
  N  1148  1  0.19276500  0.38872100  0.15742000  1
  N  1154  1  0.06506300  0.15255200  0.18952300  1
  N  1157  1  0.09101200  0.11265700  0.19818700  1
  N  1161  1  0.98334000  0.15109300  0.21066100  1
  N  1162  1  0.17190900  0.11339100  0.17648400  1
  N  1168  1  0.06499500  0.84885300  0.91557900  1
  N  1171  1  0.09106200  0.88871300  0.90687800  1
  N  1175  1  0.98326700  0.85038700  0.89445500  1
  N  1176  1  0.17199000  0.88789000  0.92854000  1
  N  1182  1  0.06497300  0.86379400  0.20434400  1
  N  1185  1  0.09098800  0.85500400  0.16449400  1
  N  1189  1  0.98314600  0.84282200  0.20285400  1
  N  1190  1  0.17203900  0.87650100  0.16530000  1
  N  1196  1  0.06520500  0.13771500  0.90064000  1
  N  1199  1  0.09119500  0.14629300  0.94053500  1
  N  1203  1  0.98355000  0.15894000  0.90214900  1
  N  1204  1  0.17198100  0.12443700  0.93978500  1
  N  1210  1  0.78154800  0.84889300  0.18952600  1
  N  1213  1  0.75559800  0.88878800  0.19818900  1
  N  1217  1  0.86326900  0.85035300  0.21066600  1
  N  1218  1  0.67470000  0.88805300  0.17648400  1
  N  1224  1  0.78160500  0.15258700  0.91557700  1
  N  1227  1  0.75553300  0.11272900  0.90687800  1
  N  1231  1  0.86333400  0.15104800  0.89445100  1
  N  1232  1  0.67460300  0.11355900  0.92854000  1
  N  1238  1  0.78163400  0.13765500  0.20434600  1
  N  1241  1  0.75561900  0.14644500  0.16449600  1
  N  1245  1  0.86346000  0.15862700  0.20285800  1
  N  1246  1  0.67456800  0.12494700  0.16530000  1
  N  1252  1  0.78141100  0.86372700  0.90064300  1
  N  1255  1  0.75542300  0.85514900  0.94053900  1
  N  1259  1  0.86306700  0.84250400  0.90215300  1
  N  1260  1  0.67463300  0.87700400  0.93978900  1
  N  1266  1  0.55902500  0.65939900  0.70019600  1
  N  1269  1  0.58049600  0.61811300  0.70657000  1
  N  1273  1  0.47620800  0.65963600  0.71969300  1
  N  1274  1  0.66191100  0.61697000  0.68569100  1
  N  1280  1  0.55887400  0.34200800  0.40483700  1
  N  1283  1  0.58032700  0.38327700  0.39839900  1
  N  1287  1  0.47607100  0.34172900  0.38533300  1
  N  1288  1  0.66176000  0.38445800  0.41926900  1
  N  1294  1  0.55881200  0.35305000  0.71122600  1
  N  1297  1  0.58026200  0.34654100  0.66996100  1
  N  1301  1  0.47589000  0.33374100  0.71151100  1
  N  1302  1  0.66186000  0.36717800  0.66881700  1
  N  1308  1  0.55903300  0.64841800  0.39380400  1
  N  1311  1  0.58051500  0.65481000  0.43507300  1
  N  1315  1  0.47624300  0.66794800  0.39356600  1
  N  1316  1  0.66184100  0.63380200  0.43625900  1
  N  1322  1  0.28758000  0.34204800  0.70019600  1
  N  1325  1  0.26611000  0.38333400  0.70657000  1
  N  1329  1  0.37039600  0.34181200  0.71969200  1
  N  1330  1  0.18469400  0.38447900  0.68569100  1
  N  1336  1  0.28772500  0.65944300  0.40482400  1
  N  1339  1  0.26628500  0.61816300  0.39840600  1
  N  1343  1  0.37052300  0.65972200  0.38530200  1
  N  1344  1  0.18486400  0.61698200  0.41929200  1
  N  1350  1  0.28779200  0.64839900  0.71122800  1
  N  1353  1  0.26634500  0.65490800  0.66996100  1
  N  1357  1  0.37071400  0.66771000  0.71151600  1
  N  1358  1  0.18474900  0.63427000  0.66881700  1
  N  1364  1  0.28758000  0.35302900  0.39380500  1
  N  1367  1  0.26609500  0.34663600  0.43507500  1
  N  1371  1  0.37036900  0.33350100  0.39356900  1
  N  1372  1  0.18476600  0.36764200  0.43625900  1
  N  1378  1  0.94308200  0.16185300  0.31772600  1
  N  1381  1  0.89831100  0.14930900  0.34970500  1
  N  1385  1  0.88875700  0.17152100  0.27640200  1
  N  1386  1  0.95323100  0.13849700  0.39057600  1
  N  1392  1  0.94298500  0.83940200  0.78726800  1
  N  1395  1  0.89833000  0.85209800  0.75529000  1
  N  1399  1  0.88849800  0.82952800  0.82846800  1
  N  1400  1  0.95338800  0.86304800  0.71452400  1
  N  1406  1  0.94292600  0.73547900  0.21380100  1
  N  1409  1  0.89830000  0.70353500  0.20098000  1
  N  1413  1  0.88845000  0.77668800  0.22362600  1
  N  1414  1  0.95338800  0.66278800  0.19000000  1
  N  1420  1  0.94303400  0.26605900  0.89143400  1
  N  1423  1  0.89839700  0.29822400  0.90369500  1
  N  1427  1  0.88841200  0.22484900  0.88181300  1
  N  1428  1  0.95354400  0.33897700  0.91451900  1
  N  1434  1  0.90352400  0.83959400  0.31772700  1
  N  1437  1  0.94829500  0.85213800  0.34970500  1
  N  1441  1  0.95785000  0.82992500  0.27640400  1
  N  1442  1  0.89337500  0.86295000  0.39057700  1
  N  1448  1  0.90362400  0.16205500  0.78727600  1
  N  1451  1  0.94827700  0.14935600  0.75529700  1
  N  1455  1  0.95811600  0.17192600  0.82847400  1
  N  1456  1  0.89321400  0.13841000  0.71453200  1
  N  1462  1  0.90368600  0.26598800  0.21380300  1
  N  1465  1  0.94829800  0.29793400  0.20096800  1
  N  1469  1  0.95818400  0.22479200  0.22364400  1
  N  1470  1  0.89319700  0.33866900  0.18997900  1
  N  1476  1  0.90357500  0.73538700  0.89143400  1
  N  1479  1  0.94820900  0.70322400  0.90369500  1
  N  1483  1  0.95819700  0.77659800  0.88181400  1
  N  1484  1  0.89306600  0.66246700  0.91451800  1
  N  1490  1  0.44658400  0.66246600  0.82598500  1
  N  1493  1  0.40027900  0.65006000  0.85709100  1
  N  1497  1  0.39547500  0.66849100  0.78257600  1
  N  1498  1  0.45236200  0.64197900  0.89984700  1
  N  1504  1  0.44636900  0.33872100  0.27895300  1
  N  1507  1  0.40016800  0.35148200  0.24793200  1
  N  1511  1  0.39516200  0.33239600  0.32227600  1
  N  1512  1  0.45233800  0.35974600  0.20524600  1
  N  1518  1  0.44642800  0.22724000  0.71458300  1
  N  1521  1  0.40027600  0.19623100  0.70173000  1
  N  1525  1  0.39526700  0.27058700  0.72077100  1
  N  1526  1  0.45250200  0.15355900  0.69348300  1
  N  1532  1  0.44629300  0.77412700  0.39082800  1
  N  1535  1  0.39991000  0.80535700  0.40279400  1
  N  1539  1  0.39522700  0.73065600  0.38513600  1
  N  1540  1  0.45197200  0.84816700  0.41066800  1
  N  1546  1  0.40002300  0.33898200  0.82598500  1
  N  1549  1  0.44632800  0.35138600  0.85709100  1
  N  1553  1  0.45113000  0.33295500  0.78257600  1
  N  1554  1  0.39424500  0.35946800  0.89984700  1
  N  1560  1  0.40023600  0.66272600  0.27895800  1
  N  1563  1  0.44643300  0.64996400  0.24793700  1
  N  1567  1  0.45144500  0.66905000  0.32227900  1
  N  1568  1  0.39426100  0.64170300  0.20525100  1
  N  1574  1  0.40017400  0.77420900  0.71458100  1
  N  1577  1  0.44632600  0.80521800  0.70173000  1
  N  1581  1  0.45133400  0.73086200  0.72077100  1
  N  1582  1  0.39410200  0.84789000  0.69348200  1
  N  1588  1  0.40031400  0.22732200  0.39082800  1
  N  1591  1  0.44669700  0.19609100  0.40279400  1
  N  1595  1  0.45138000  0.27079300  0.38513700  1
  N  1596  1  0.39463200  0.15328100  0.41066600  1
