# generated using pymatgen
data_H24C39(N4O)2
_symmetry_space_group_name_H-M   'P 1'
_cell_length_a   52.37185000
_cell_length_b   52.37180000
_cell_length_c   59.05260000
_cell_angle_alpha   90.00000000
_cell_angle_beta   90.00000000
_cell_angle_gamma   119.99990526
_symmetry_Int_Tables_number   1
_chemical_formula_structural   H24C39(N4O)2
_chemical_formula_sum   'H576 C936 N192 O48'
_cell_volume   140270.22256480
_cell_formula_units_Z   24
loop_
 _symmetry_equiv_pos_site_id
 _symmetry_equiv_pos_as_xyz
  1  'x, y, z'
loop_
 _atom_site_type_symbol
 _atom_site_label
 _atom_site_symmetry_multiplicity
 _atom_site_fract_x
 _atom_site_fract_y
 _atom_site_fract_z
 _atom_site_occupancy
  H  25  1  0.74896100  0.49931100  0.91594300  1
  H  26  1  0.70937600  0.45051000  0.92248100  1
  H  27  1  0.66464300  0.40628200  0.92969600  1
  H  28  1  0.61923400  0.36124100  0.92537200  1
  H  29  1  0.58574600  0.40474500  0.88508000  1
  H  30  1  0.68985200  0.52164600  0.88499900  1
  H  31  1  0.62630400  0.47508600  0.93764600  1
  H  32  1  0.58645800  0.52384700  0.91565700  1
  H  33  1  0.59186800  0.51391100  0.87763300  1
  H  34  1  0.65217700  0.44684000  0.84535700  1
  H  35  1  0.59234800  0.49388000  0.84328500  1
  H  36  1  0.60290300  0.47750300  0.80934100  1
  H  66  1  0.84440300  0.34940200  0.91601200  1
  H  67  1  0.83513100  0.38895800  0.92251100  1
  H  68  1  0.83562000  0.43369100  0.92973600  1
  H  69  1  0.83596900  0.47908600  0.92542400  1
  H  70  1  0.91295900  0.51262100  0.88511800  1
  H  71  1  0.92580600  0.40853600  0.88501900  1
  H  72  1  0.94274000  0.47204900  0.93764700  1
  H  73  1  0.03134900  0.51187400  0.91565300  1
  H  74  1  0.01600300  0.50651200  0.87763000  1
  H  75  1  0.88861800  0.44614700  0.84536600  1
  H  76  1  0.99548500  0.50598700  0.84327500  1
  H  77  1  0.96854100  0.49538100  0.80932900  1
  H  107  1  0.59900600  0.25406400  0.91588800  1
  H  108  1  0.64780400  0.26326600  0.92244000  1
  H  109  1  0.69206800  0.26270200  0.92971600  1
  H  110  1  0.73710000  0.26228800  0.92528300  1
  H  111  1  0.69339700  0.18522900  0.88512000  1
  H  112  1  0.57663700  0.17257600  0.88499600  1
  H  113  1  0.62319900  0.15556800  0.93764700  1
  H  114  1  0.57445500  0.06695900  0.91564700  1
  H  115  1  0.58440200  0.08231200  0.87762400  1
  H  116  1  0.65144900  0.20970700  0.84537200  1
  H  117  1  0.60442900  0.10284400  0.84327700  1
  H  118  1  0.62080500  0.12979200  0.80933800  1
  H  148  1  0.37926500  0.56900700  0.41601900  1
  H  149  1  0.41880500  0.61783600  0.42251500  1
  H  150  1  0.46358000  0.66211900  0.42974600  1
  H  151  1  0.50899300  0.70717100  0.42534700  1
  H  152  1  0.54239900  0.66360300  0.38507600  1
  H  153  1  0.43840300  0.54676700  0.38497900  1
  H  154  1  0.50189200  0.59333000  0.43762400  1
  H  155  1  0.54171600  0.54454800  0.41562700  1
  H  156  1  0.53630800  0.55449000  0.37759900  1
  H  157  1  0.47602000  0.62159600  0.34535400  1
  H  158  1  0.53584100  0.57455100  0.34325200  1
  H  159  1  0.52526400  0.59092500  0.30931300  1
  H  189  1  0.28387300  0.71904300  0.41600400  1
  H  190  1  0.29303300  0.67939800  0.42252900  1
  H  191  1  0.29257200  0.63448800  0.42951900  1
  H  192  1  0.29197200  0.58893100  0.42496400  1
  H  193  1  0.21475100  0.55588400  0.38506200  1
  H  194  1  0.20242200  0.66002600  0.38502000  1
  H  195  1  0.18531300  0.59645700  0.43763900  1
  H  196  1  0.09670100  0.55653200  0.41563000  1
  H  197  1  0.11206600  0.56198000  0.37760500  1
  H  198  1  0.23949100  0.62230400  0.34539300  1
  H  199  1  0.13262600  0.56250700  0.34325700  1
  H  200  1  0.15959700  0.57305200  0.30933000  1
  H  230  1  0.52915400  0.81448800  0.41600200  1
  H  231  1  0.48032200  0.80523800  0.42246600  1
  H  232  1  0.43599600  0.80568600  0.42954100  1
  H  233  1  0.39106700  0.80622400  0.42529200  1
  H  234  1  0.43474300  0.88329700  0.38511100  1
  H  235  1  0.55150700  0.89592300  0.38502200  1
  H  236  1  0.50496800  0.91291500  0.43761700  1
  H  237  1  0.55369700  0.00152700  0.41561800  1
  H  238  1  0.54377400  0.98617400  0.37759300  1
  H  239  1  0.47667500  0.85876200  0.34535500  1
  H  240  1  0.52375400  0.96562900  0.34324000  1
  H  241  1  0.50735700  0.93867100  0.30930600  1
  H  271  1  0.28355300  0.56966900  0.06738600  1
  H  272  1  0.29249100  0.61840000  0.06074000  1
  H  273  1  0.29211000  0.66314700  0.05403200  1
  H  274  1  0.29167000  0.70818300  0.05966300  1
  H  275  1  0.21345500  0.66256200  0.09825900  1
  H  276  1  0.20143000  0.54660200  0.09744600  1
  H  277  1  0.18459900  0.59450200  0.04499600  1
  H  278  1  0.09561700  0.55284200  0.06635700  1
  H  279  1  0.11063700  0.55900100  0.10457500  1
  H  280  1  0.23847000  0.62032400  0.13688000  1
  H  281  1  0.13133400  0.56861900  0.13996900  1
  H  282  1  0.15870500  0.58256000  0.17412700  1
  H  312  1  0.52866400  0.71820000  0.06733200  1
  H  313  1  0.47994800  0.67843600  0.06067200  1
  H  314  1  0.43522300  0.63337400  0.05396300  1
  H  315  1  0.39014500  0.58791100  0.05956800  1
  H  316  1  0.43563000  0.55525000  0.09825200  1
  H  317  1  0.55167200  0.65913700  0.09745600  1
  H  318  1  0.50377600  0.59443800  0.04498400  1
  H  319  1  0.54546500  0.54714400  0.06634500  1
  H  320  1  0.53929400  0.55599200  0.10456300  1
  H  321  1  0.47792400  0.62245600  0.13686700  1
  H  322  1  0.52971800  0.56711100  0.13995700  1
  H  323  1  0.51578000  0.58054500  0.17411700  1
  H  353  1  0.38004100  0.81472000  0.06735100  1
  H  354  1  0.41986800  0.80582500  0.06066500  1
  H  355  1  0.46511100  0.80613100  0.05413900  1
  H  356  1  0.51067900  0.80665700  0.06003400  1
  H  357  1  0.54301900  0.88510700  0.09825000  1
  H  358  1  0.43905000  0.89681300  0.09745300  1
  H  359  1  0.50379100  0.91371400  0.04498600  1
  H  360  1  0.55118500  0.00268600  0.06634200  1
  H  361  1  0.54232800  0.98767400  0.10456300  1
  H  362  1  0.47573800  0.85982900  0.13685300  1
  H  363  1  0.53120200  0.96696500  0.13996200  1
  H  364  1  0.51779300  0.93958000  0.17411700  1
  H  394  1  0.84473000  0.49885600  0.56725200  1
  H  395  1  0.83577300  0.45010600  0.56062600  1
  H  396  1  0.83604000  0.40512800  0.55413200  1
  H  397  1  0.83654700  0.36008200  0.56003300  1
  H  398  1  0.91500300  0.40616700  0.59825200  1
  H  399  1  0.92676200  0.52187400  0.59744600  1
  H  400  1  0.94359100  0.47395800  0.54501400  1
  H  401  1  0.03257400  0.51553800  0.56637300  1
  H  402  1  0.01756200  0.50945800  0.60459500  1
  H  403  1  0.88972500  0.44821900  0.63688800  1
  H  404  1  0.99686000  0.49987700  0.63998900  1
  H  405  1  0.96948100  0.48594100  0.67414500  1
  H  435  1  0.59943000  0.35020800  0.56730800  1
  H  436  1  0.64816800  0.38999500  0.56066300  1
  H  437  1  0.69309800  0.43525700  0.55405400  1
  H  438  1  0.73814900  0.48079400  0.55994200  1
  H  439  1  0.69213100  0.51317600  0.59821600  1
  H  440  1  0.57640100  0.40924900  0.59744400  1
  H  441  1  0.62431500  0.47399000  0.54499600  1
  H  442  1  0.58273600  0.52139100  0.56636000  1
  H  443  1  0.58881400  0.51245200  0.60458200  1
  H  444  1  0.65010100  0.44590100  0.63687000  1
  H  445  1  0.59835100  0.50128800  0.63997200  1
  H  446  1  0.61228600  0.48784500  0.67412800  1
  H  476  1  0.74809100  0.25363900  0.56733700  1
  H  477  1  0.70829300  0.26257600  0.56068700  1
  H  478  1  0.66303200  0.26223100  0.55407800  1
  H  479  1  0.61748400  0.26172300  0.55994900  1
  H  480  1  0.58512400  0.18333100  0.59822500  1
  H  481  1  0.68905800  0.17154600  0.59744600  1
  H  482  1  0.62431700  0.15469100  0.54499600  1
  H  483  1  0.57694400  0.06571500  0.56636700  1
  H  484  1  0.58583300  0.08074000  0.60458500  1
  H  485  1  0.65239400  0.20858200  0.63686600  1
  H  486  1  0.59694500  0.10144800  0.63997900  1
  H  487  1  0.61035600  0.12883300  0.67413000  1
  H  499  1  0.52009700  0.24633300  0.92446200  1
  H  502  1  0.62772800  0.34085000  0.84681100  1
  H  503  1  0.62385100  0.34225800  0.87645500  1
  H  504  1  0.60359600  0.35211900  0.85748900  1
  H  506  1  0.54768900  0.33449200  0.87611800  1
  H  508  1  0.51817000  0.20434500  0.89709900  1
  H  515  1  0.82017500  0.57820000  0.92450700  1
  H  518  1  0.80705600  0.47059900  0.84683800  1
  H  519  1  0.81232900  0.47447400  0.87648300  1
  H  520  1  0.84245700  0.49471100  0.85752500  1
  H  522  1  0.88071000  0.55053800  0.87609800  1
  H  524  1  0.78010100  0.58012600  0.89717400  1
  H  531  1  0.85217400  0.27806900  0.92436000  1
  H  534  1  0.75734600  0.29121500  0.84684800  1
  H  535  1  0.75562700  0.28555600  0.87645500  1
  H  536  1  0.74647800  0.25579000  0.85727800  1
  H  538  1  0.76460400  0.21725600  0.87669600  1
  H  540  1  0.89411000  0.31831400  0.89719300  1
  H  547  1  0.60834000  0.82226400  0.42431900  1
  H  550  1  0.50030500  0.72741200  0.34683700  1
  H  551  1  0.50427100  0.72566700  0.37643800  1
  H  552  1  0.52492100  0.71659900  0.35722900  1
  H  554  1  0.58133300  0.73456300  0.37658700  1
  H  556  1  0.60998900  0.86420400  0.39720700  1
  H  563  1  0.30795100  0.48987500  0.42431400  1
  H  566  1  0.32084400  0.59792500  0.34686800  1
  H  567  1  0.31501800  0.59398200  0.37645800  1
  H  568  1  0.28543700  0.57310100  0.35719100  1
  H  570  1  0.24683800  0.51567500  0.37712900  1
  H  572  1  0.34815500  0.48824800  0.39709700  1
  H  579  1  0.27612900  0.79032600  0.42444900  1
  H  582  1  0.37092200  0.77737000  0.34689600  1
  H  583  1  0.37243400  0.78280500  0.37652600  1
  H  584  1  0.38194500  0.81276500  0.35747300  1
  H  586  1  0.36397500  0.85096100  0.37628500  1
  H  588  1  0.23421800  0.75023000  0.39711600  1
  H  595  1  0.30879800  0.82259600  0.05892800  1
  H  598  1  0.32171800  0.72781100  0.13638800  1
  H  599  1  0.31614100  0.72627300  0.10677300  1
  H  600  1  0.28623700  0.71660300  0.12590900  1
  H  602  1  0.24703000  0.73815200  0.10596700  1
  H  604  1  0.34864000  0.86428200  0.08657300  1
  H  611  1  0.27568700  0.49058200  0.05891900  1
  H  614  1  0.37047700  0.59826500  0.13638600  1
  H  615  1  0.37199200  0.59422200  0.10677000  1
  H  616  1  0.38168800  0.57400000  0.12589500  1
  H  618  1  0.36032400  0.51345000  0.10603800  1
  H  620  1  0.23399300  0.48872400  0.08656600  1
  H  627  1  0.60770800  0.78939300  0.05885800  1
  H  630  1  0.50014200  0.77666100  0.13645700  1
  H  631  1  0.50407200  0.78229700  0.10684300  1
  H  632  1  0.52450300  0.81212700  0.12599500  1
  H  634  1  0.58594900  0.85128000  0.10547100  1
  H  636  1  0.60957900  0.74960000  0.08650800  1
  H  643  1  0.81927900  0.24573800  0.55890000  1
  H  646  1  0.80660700  0.34065000  0.63648200  1
  H  647  1  0.81225500  0.34237800  0.60686900  1
  H  648  1  0.84206500  0.35170500  0.62602700  1
  H  650  1  0.88117800  0.32941000  0.60544400  1
  H  652  1  0.77949900  0.20410800  0.58660800  1
  H  659  1  0.85265300  0.57813300  0.55902400  1
  H  662  1  0.75751400  0.47016000  0.63639700  1
  H  663  1  0.75560200  0.47420500  0.60682200  1
  H  664  1  0.74676100  0.49489300  0.62615900  1
  H  666  1  0.76894400  0.55611300  0.60536200  1
  H  668  1  0.89426500  0.57978500  0.58654400  1
  H  675  1  0.52017600  0.27889100  0.55901700  1
  H  678  1  0.62814800  0.29176300  0.63638000  1
  H  679  1  0.62409500  0.28584100  0.60680000  1
  H  680  1  0.60346700  0.25627200  0.62612200  1
  H  682  1  0.54218600  0.21719400  0.60537800  1
  H  684  1  0.51848700  0.31882700  0.58655900  1
  H  691  1  0.61917300  0.48300300  0.74937100  1
  H  694  1  0.69500900  0.40729300  0.71780100  1
  H  695  1  0.69543700  0.43621200  0.70212900  1
  H  696  1  0.66255900  0.40067500  0.70376300  1
  H  698  1  0.65283500  0.43380800  0.68636300  1
  H  700  1  0.64553900  0.49136900  0.78669200  1
  H  707  1  0.95776500  0.47915400  0.74939700  1
  H  710  1  0.80624900  0.40317100  0.71777200  1
  H  711  1  0.83484000  0.40293600  0.70209800  1
  H  712  1  0.83198400  0.43570100  0.70377600  1
  H  714  1  0.87496400  0.44583600  0.68640400  1
  H  716  1  0.93975000  0.45272800  0.78668000  1
  H  723  1  0.61532200  0.14054800  0.74938600  1
  H  726  1  0.69075900  0.29204000  0.71772100  1
  H  727  1  0.66198600  0.26338600  0.70205100  1
  H  728  1  0.69765400  0.26635700  0.70374900  1
  H  730  1  0.66500400  0.22329800  0.68640000  1
  H  732  1  0.60693200  0.15857400  0.78668500  1
  H  739  1  0.50899500  0.58544600  0.24935500  1
  H  742  1  0.43304700  0.66103600  0.21777600  1
  H  743  1  0.43277400  0.63220900  0.20207600  1
  H  744  1  0.46557600  0.66779500  0.20379200  1
  H  746  1  0.47562600  0.63490200  0.18637900  1
  H  748  1  0.48260700  0.57705700  0.28666700  1
  H  755  1  0.17038200  0.58929000  0.24937700  1
  H  758  1  0.32189600  0.66532900  0.21776600  1
  H  759  1  0.29327100  0.66548500  0.20208300  1
  H  760  1  0.29620200  0.63276700  0.20378500  1
  H  762  1  0.25317400  0.62243800  0.18641200  1
  H  764  1  0.18839900  0.61571600  0.28667900  1
  H  771  1  0.51280900  0.92789100  0.24936100  1
  H  774  1  0.43740800  0.77639300  0.21772000  1
  H  775  1  0.46616300  0.80505800  0.20204600  1
  H  776  1  0.43048400  0.80205700  0.20375100  1
  H  778  1  0.46308100  0.84513300  0.18639400  1
  H  780  1  0.52122900  0.90986000  0.28666500  1
  H  787  1  0.60308200  0.58299700  0.99736200  1
  H  790  1  0.49600500  0.43316700  0.98552700  1
  H  791  1  0.53471300  0.45130200  0.98908600  1
  H  792  1  0.51891600  0.44926900  0.96188200  1
  H  794  1  0.55659200  0.49367000  0.94688600  1
  H  796  1  0.57323800  0.58018900  0.03209100  1
  H  803  1  0.07383700  0.49522500  0.99738100  1
  H  806  1  0.03110900  0.60231600  0.98552100  1
  H  807  1  0.01054000  0.56361300  0.98911200  1
  H  808  1  0.02426400  0.57936900  0.96189200  1
  H  810  1  0.03102800  0.54171500  0.94688000  1
  H  812  1  0.10086700  0.52506800  0.03210600  1
  H  819  1  0.51532000  0.02447900  0.99736100  1
  H  822  1  0.66515000  0.06722200  0.98550800  1
  H  823  1  0.64701900  0.08779600  0.98908200  1
  H  824  1  0.64903200  0.07403200  0.96187400  1
  H  826  1  0.60462000  0.06728900  0.94687400  1
  H  828  1  0.51820100  0.99753600  0.03208900  1
  H  835  1  0.52507400  0.48547200  0.49738700  1
  H  838  1  0.63215000  0.63528000  0.48552300  1
  H  839  1  0.59344600  0.61713100  0.48911000  1
  H  840  1  0.60921200  0.61920600  0.46188700  1
  H  842  1  0.57159400  0.57478300  0.44685000  1
  H  844  1  0.55494300  0.48837700  0.53213300  1
  H  851  1  0.05429900  0.57319900  0.49740100  1
  H  854  1  0.09706100  0.46614600  0.48552900  1
  H  855  1  0.11761000  0.50485000  0.48910700  1
  H  856  1  0.10391100  0.48907600  0.46188900  1
  H  858  1  0.09711200  0.52669800  0.44685600  1
  H  860  1  0.02734700  0.54333000  0.53214600  1
  H  867  1  0.61279600  0.04393600  0.49737600  1
  H  870  1  0.46298600  0.00122000  0.48552700  1
  H  871  1  0.48112700  0.98065400  0.48909100  1
  H  872  1  0.47906800  0.99438300  0.46188200  1
  H  874  1  0.52347300  0.00115000  0.44685000  1
  H  876  1  0.60992900  0.07091100  0.53211400  1
  H  901  1  0.17613500  0.13652200  0.91594300  1
  H  902  1  0.13655000  0.08772100  0.92248100  1
  H  903  1  0.09181700  0.04349300  0.92969600  1
  H  904  1  0.04640800  0.99845200  0.92537200  1
  H  905  1  0.01292000  0.04195570  0.88508000  1
  H  906  1  0.11702600  0.15885670  0.88499900  1
  H  907  1  0.05347800  0.11229670  0.93764600  1
  H  908  1  0.01363200  0.16105800  0.91565700  1
  H  909  1  0.01904200  0.15112200  0.87763300  1
  H  910  1  0.07935100  0.08405070  0.84535700  1
  H  911  1  0.01952200  0.13109100  0.84328500  1
  H  912  1  0.03007700  0.11471370  0.80934100  1
  H  942  1  0.27157700  0.98661300  0.91601200  1
  H  943  1  0.26230500  0.02616900  0.92251100  1
  H  944  1  0.26279400  0.07090200  0.92973600  1
  H  945  1  0.26314300  0.11629700  0.92542400  1
  H  946  1  0.34013300  0.14983200  0.88511800  1
  H  947  1  0.35298000  0.04574700  0.88501900  1
  H  948  1  0.36991400  0.10926000  0.93764700  1
  H  949  1  0.45852300  0.14908500  0.91565300  1
  H  950  1  0.44317700  0.14372300  0.87763000  1
  H  951  1  0.31579200  0.08335800  0.84536600  1
  H  952  1  0.42265900  0.14319800  0.84327500  1
  H  953  1  0.39571500  0.13259200  0.80932900  1
  H  983  1  0.02618000  0.89127500  0.91588800  1
  H  984  1  0.07497800  0.90047700  0.92244000  1
  H  985  1  0.11924200  0.89991300  0.92971600  1
  H  986  1  0.16427400  0.89949900  0.92528300  1
  H  987  1  0.12057100  0.82244000  0.88512000  1
  H  988  1  0.00381100  0.80978700  0.88499600  1
  H  989  1  0.05037300  0.79277900  0.93764700  1
  H  990  1  0.00162900  0.70417000  0.91564700  1
  H  991  1  0.01157600  0.71952300  0.87762400  1
  H  992  1  0.07862300  0.84691800  0.84537200  1
  H  993  1  0.03160300  0.74005500  0.84327700  1
  H  994  1  0.04797900  0.76700300  0.80933800  1
  H  1024  1  0.80643900  0.20621800  0.41601900  1
  H  1025  1  0.84597900  0.25504700  0.42251500  1
  H  1026  1  0.89075400  0.29933000  0.42974600  1
  H  1027  1  0.93616670  0.34438170  0.42534700  1
  H  1028  1  0.96957270  0.30081370  0.38507600  1
  H  1029  1  0.86557700  0.18397800  0.38497900  1
  H  1030  1  0.92906570  0.23054070  0.43762400  1
  H  1031  1  0.96888970  0.18175870  0.41562700  1
  H  1032  1  0.96348170  0.19170070  0.37759900  1
  H  1033  1  0.90319370  0.25880670  0.34535400  1
  H  1034  1  0.96301470  0.21176170  0.34325200  1
  H  1035  1  0.95243770  0.22813570  0.30931300  1
  H  1065  1  0.71104700  0.35625400  0.41600400  1
  H  1066  1  0.72020700  0.31660900  0.42252900  1
  H  1067  1  0.71974600  0.27169900  0.42951900  1
  H  1068  1  0.71914600  0.22614200  0.42496400  1
  H  1069  1  0.64192500  0.19309500  0.38506200  1
  H  1070  1  0.62959600  0.29723700  0.38502000  1
  H  1071  1  0.61248700  0.23366800  0.43763900  1
  H  1072  1  0.52387500  0.19374300  0.41563000  1
  H  1073  1  0.53924000  0.19919100  0.37760500  1
  H  1074  1  0.66666667  0.25951667  0.34539300  1
  H  1075  1  0.55980000  0.19971800  0.34325700  1
  H  1076  1  0.58677100  0.21026300  0.30933000  1
  H  1106  1  0.95632770  0.45169870  0.41600200  1
  H  1107  1  0.90749570  0.44244870  0.42246600  1
  H  1108  1  0.86317000  0.44289700  0.42954100  1
  H  1109  1  0.81824100  0.44343500  0.42529200  1
  H  1110  1  0.86191700  0.52050800  0.38511100  1
  H  1111  1  0.97868070  0.53313370  0.38502200  1
  H  1112  1  0.93214170  0.55012570  0.43761700  1
  H  1113  1  0.98087070  0.63873770  0.41561800  1
  H  1114  1  0.97094770  0.62338470  0.37759300  1
  H  1115  1  0.90384870  0.49597270  0.34535500  1
  H  1116  1  0.95092770  0.60283970  0.34324000  1
  H  1117  1  0.93453070  0.57588170  0.30930600  1
  H  1147  1  0.71072700  0.20688000  0.06738600  1
  H  1148  1  0.71966500  0.25561100  0.06074000  1
  H  1149  1  0.71928400  0.30035800  0.05403200  1
  H  1150  1  0.71884400  0.34539400  0.05966300  1
  H  1151  1  0.64062900  0.29977300  0.09825900  1
  H  1152  1  0.62860400  0.18381300  0.09744600  1
  H  1153  1  0.61177300  0.23171300  0.04499600  1
  H  1154  1  0.52279100  0.19005300  0.06635700  1
  H  1155  1  0.53781100  0.19621200  0.10457500  1
  H  1156  1  0.66564400  0.25753500  0.13688000  1
  H  1157  1  0.55850800  0.20583000  0.13996900  1
  H  1158  1  0.58587900  0.21977100  0.17412700  1
  H  1188  1  0.95583770  0.35541070  0.06733200  1
  H  1189  1  0.90712170  0.31564670  0.06067200  1
  H  1190  1  0.86239700  0.27058500  0.05396300  1
  H  1191  1  0.81731900  0.22512200  0.05956800  1
  H  1192  1  0.86280400  0.19246100  0.09825200  1
  H  1193  1  0.97884570  0.29634770  0.09745600  1
  H  1194  1  0.93094970  0.23164870  0.04498400  1
  H  1195  1  0.97263870  0.18435470  0.06634500  1
  H  1196  1  0.96646770  0.19320270  0.10456300  1
  H  1197  1  0.90509770  0.25966670  0.13686700  1
  H  1198  1  0.95689170  0.20432170  0.13995700  1
  H  1199  1  0.94295370  0.21775570  0.17411700  1
  H  1229  1  0.80721500  0.45193100  0.06735100  1
  H  1230  1  0.84704200  0.44303600  0.06066500  1
  H  1231  1  0.89228500  0.44334200  0.05413900  1
  H  1232  1  0.93785270  0.44386770  0.06003400  1
  H  1233  1  0.97019270  0.52231770  0.09825000  1
  H  1234  1  0.86622400  0.53402400  0.09745300  1
  H  1235  1  0.93096470  0.55092470  0.04498600  1
  H  1236  1  0.97835870  0.63989670  0.06634200  1
  H  1237  1  0.96950170  0.62488470  0.10456300  1
  H  1238  1  0.90291170  0.49703970  0.13685300  1
  H  1239  1  0.95837570  0.60417570  0.13996200  1
  H  1240  1  0.94496670  0.57679070  0.17411700  1
  H  1270  1  0.27190400  0.13606700  0.56725200  1
  H  1271  1  0.26294700  0.08731700  0.56062600  1
  H  1272  1  0.26321400  0.04233900  0.55413200  1
  H  1273  1  0.26372100  0.99729300  0.56003300  1
  H  1274  1  0.34217700  0.04337800  0.59825200  1
  H  1275  1  0.35393600  0.15908500  0.59744600  1
  H  1276  1  0.37076500  0.11116900  0.54501400  1
  H  1277  1  0.45974800  0.15274900  0.56637300  1
  H  1278  1  0.44473600  0.14666900  0.60459500  1
  H  1279  1  0.31689900  0.08543000  0.63688800  1
  H  1280  1  0.42403400  0.13708800  0.63998900  1
  H  1281  1  0.39665500  0.12315200  0.67414500  1
  H  1311  1  0.02660400  0.98741900  0.56730800  1
  H  1312  1  0.07534200  0.02720600  0.56066300  1
  H  1313  1  0.12027200  0.07246800  0.55405400  1
  H  1314  1  0.16532300  0.11800500  0.55994200  1
  H  1315  1  0.11930500  0.15038670  0.59821600  1
  H  1316  1  0.00357500  0.04645970  0.59744400  1
  H  1317  1  0.05148900  0.11120070  0.54499600  1
  H  1318  1  0.00991000  0.15860200  0.56636000  1
  H  1319  1  0.01598800  0.14966300  0.60458200  1
  H  1320  1  0.07727500  0.08311170  0.63687000  1
  H  1321  1  0.02552500  0.13849900  0.63997200  1
  H  1322  1  0.03946000  0.12505570  0.67412800  1
  H  1352  1  0.17526500  0.89085000  0.56733700  1
  H  1353  1  0.13546700  0.89978700  0.56068700  1
  H  1354  1  0.09020600  0.89944200  0.55407800  1
  H  1355  1  0.04465800  0.89893400  0.55994900  1
  H  1356  1  0.01229800  0.82054200  0.59822500  1
  H  1357  1  0.11623200  0.80875700  0.59744600  1
  H  1358  1  0.05149100  0.79190200  0.54499600  1
  H  1359  1  0.00411800  0.70292600  0.56636700  1
  H  1360  1  0.01300700  0.71795100  0.60458500  1
  H  1361  1  0.07956800  0.84579300  0.63686600  1
  H  1362  1  0.02411900  0.73865900  0.63997900  1
  H  1363  1  0.03753000  0.76604400  0.67413000  1
  H  1375  1  0.94727070  0.88354370  0.92446200  1
  H  1378  1  0.05490200  0.97806100  0.84681100  1
  H  1379  1  0.05102500  0.97946900  0.87645500  1
  H  1380  1  0.03077000  0.98933000  0.85748900  1
  H  1382  1  0.97486270  0.97170270  0.87611800  1
  H  1384  1  0.94534370  0.84155570  0.89709900  1
  H  1391  1  0.24734900  0.21541100  0.92450700  1
  H  1394  1  0.23423000  0.10781000  0.84683800  1
  H  1395  1  0.23950300  0.11168500  0.87648300  1
  H  1396  1  0.26963100  0.13192200  0.85752500  1
  H  1398  1  0.30788400  0.18774900  0.87609800  1
  H  1400  1  0.20727500  0.21733670  0.89717400  1
  H  1407  1  0.27934800  0.91528000  0.92436000  1
  H  1410  1  0.18452000  0.92842600  0.84684800  1
  H  1411  1  0.18280100  0.92276700  0.87645500  1
  H  1412  1  0.17365200  0.89300100  0.85727800  1
  H  1414  1  0.19177800  0.85446700  0.87669600  1
  H  1416  1  0.32128400  0.95552500  0.89719300  1
  H  1423  1  0.03551400  0.45947500  0.42431900  1
  H  1426  1  0.92747870  0.36462270  0.34683700  1
  H  1427  1  0.93144470  0.36287770  0.37643800  1
  H  1428  1  0.95209470  0.35380970  0.35722900  1
  H  1430  1  0.00850700  0.37177400  0.37658700  1
  H  1432  1  0.03716300  0.50141500  0.39720700  1
  H  1439  1  0.73512500  0.12708600  0.42431400  1
  H  1442  1  0.74801800  0.23513600  0.34686800  1
  H  1443  1  0.74219200  0.23119300  0.37645800  1
  H  1444  1  0.71261100  0.21031200  0.35719100  1
  H  1446  1  0.67401200  0.15288600  0.37712900  1
  H  1448  1  0.77532900  0.12545900  0.39709700  1
  H  1455  1  0.70330300  0.42753700  0.42444900  1
  H  1458  1  0.79809600  0.41458100  0.34689600  1
  H  1459  1  0.79960800  0.42001600  0.37652600  1
  H  1460  1  0.80911900  0.44997600  0.35747300  1
  H  1462  1  0.79114900  0.48817200  0.37628500  1
  H  1464  1  0.66139200  0.38744100  0.39711600  1
  H  1471  1  0.73597200  0.45980700  0.05892800  1
  H  1474  1  0.74889200  0.36502200  0.13638800  1
  H  1475  1  0.74331500  0.36348400  0.10677300  1
  H  1476  1  0.71341100  0.35381400  0.12590900  1
  H  1478  1  0.67420400  0.37536300  0.10596700  1
  H  1480  1  0.77581400  0.50149300  0.08657300  1
  H  1487  1  0.70286100  0.12779300  0.05891900  1
  H  1490  1  0.79765100  0.23547600  0.13638600  1
  H  1491  1  0.79916600  0.23143300  0.10677000  1
  H  1492  1  0.80886200  0.21121100  0.12589500  1
  H  1494  1  0.78749800  0.15066100  0.10603800  1
  H  1496  1  0.66116700  0.12593500  0.08656600  1
  H  1503  1  0.03488200  0.42660400  0.05885800  1
  H  1506  1  0.92731570  0.41387170  0.13645700  1
  H  1507  1  0.93124570  0.41950770  0.10684300  1
  H  1508  1  0.95167670  0.44933770  0.12599500  1
  H  1510  1  0.01312300  0.48849100  0.10547100  1
  H  1512  1  0.03675300  0.38681100  0.08650800  1
  H  1519  1  0.24645300  0.88294900  0.55890000  1
  H  1522  1  0.23378100  0.97786100  0.63648200  1
  H  1523  1  0.23942900  0.97958900  0.60686900  1
  H  1524  1  0.26923900  0.98891600  0.62602700  1
  H  1526  1  0.30835200  0.96662100  0.60544400  1
  H  1528  1  0.20667300  0.84131900  0.58660800  1
  H  1535  1  0.27982700  0.21534400  0.55902400  1
  H  1538  1  0.18468800  0.10737100  0.63639700  1
  H  1539  1  0.18277600  0.11141600  0.60682200  1
  H  1540  1  0.17393500  0.13210400  0.62615900  1
  H  1542  1  0.19611800  0.19332400  0.60536200  1
  H  1544  1  0.32143900  0.21699600  0.58654400  1
  H  1551  1  0.94734970  0.91610170  0.55901700  1
  H  1554  1  0.05532200  0.92897400  0.63638000  1
  H  1555  1  0.05126900  0.92305200  0.60680000  1
  H  1556  1  0.03064100  0.89348300  0.62612200  1
  H  1558  1  0.96935970  0.85440470  0.60537800  1
  H  1560  1  0.94566070  0.95603740  0.58655900  1
  H  1567  1  0.04634700  0.12021370  0.74937100  1
  H  1570  1  0.12218300  0.04450400  0.71780100  1
  H  1571  1  0.12261100  0.07342300  0.70212900  1
  H  1572  1  0.08973300  0.03788600  0.70376300  1
  H  1574  1  0.08000900  0.07101900  0.68636300  1
  H  1576  1  0.07271300  0.12857970  0.78669200  1
  H  1583  1  0.38493900  0.11636500  0.74939700  1
  H  1586  1  0.23342300  0.04038200  0.71777200  1
  H  1587  1  0.26201400  0.04014700  0.70209800  1
  H  1588  1  0.25915800  0.07291200  0.70377600  1
  H  1590  1  0.30213800  0.08304700  0.68640400  1
  H  1592  1  0.36692400  0.08993900  0.78668000  1
  H  1599  1  0.04249600  0.77775900  0.74938600  1
  H  1602  1  0.11793300  0.92925100  0.71772100  1
  H  1603  1  0.08916000  0.90059700  0.70205100  1
  H  1604  1  0.12482800  0.90356800  0.70374900  1
  H  1606  1  0.09217800  0.86050900  0.68640000  1
  H  1608  1  0.03410600  0.79578500  0.78668500  1
  H  1615  1  0.93616870  0.22265670  0.24935500  1
  H  1618  1  0.86022100  0.29824700  0.21777600  1
  H  1619  1  0.85994800  0.26942000  0.20207600  1
  H  1620  1  0.89275000  0.30500600  0.20379200  1
  H  1622  1  0.90279970  0.27211270  0.18637900  1
  H  1624  1  0.90978070  0.21426770  0.28666700  1
  H  1631  1  0.59755600  0.22650100  0.24937700  1
  H  1634  1  0.74907000  0.30254000  0.21776600  1
  H  1635  1  0.72044500  0.30269600  0.20208300  1
  H  1636  1  0.72337600  0.26997800  0.20378500  1
  H  1638  1  0.68034800  0.25964900  0.18641200  1
  H  1640  1  0.61557300  0.25292700  0.28667900  1
  H  1647  1  0.93998270  0.56510170  0.24936100  1
  H  1650  1  0.86458200  0.41360400  0.21772000  1
  H  1651  1  0.89333700  0.44226900  0.20204600  1
  H  1652  1  0.85765800  0.43926800  0.20375100  1
  H  1654  1  0.89025500  0.48234400  0.18639400  1
  H  1656  1  0.94840270  0.54707070  0.28666500  1
  H  1663  1  0.03025600  0.22020800  0.99736200  1
  H  1666  1  0.92317870  0.07037770  0.98552700  1
  H  1667  1  0.96188670  0.08851270  0.98908600  1
  H  1668  1  0.94608970  0.08647970  0.96188200  1
  H  1670  1  0.98376570  0.13088070  0.94688600  1
  H  1672  1  0.00041200  0.21740000  0.03209100  1
  H  1679  1  0.50101100  0.13243600  0.99738100  1
  H  1682  1  0.45828300  0.23952700  0.98552100  1
  H  1683  1  0.43771400  0.20082400  0.98911200  1
  H  1684  1  0.45143800  0.21658000  0.96189200  1
  H  1686  1  0.45820200  0.17892600  0.94688000  1
  H  1688  1  0.52804100  0.16227900  0.03210600  1
  H  1695  1  0.94249370  0.66168970  0.99736100  1
  H  1698  1  0.09232400  0.70443300  0.98550800  1
  H  1699  1  0.07419300  0.72500700  0.98908200  1
  H  1700  1  0.07620600  0.71124300  0.96187400  1
  H  1702  1  0.03179400  0.70450000  0.94687400  1
  H  1704  1  0.94537470  0.63474670  0.03208900  1
  H  1711  1  0.95224770  0.12268270  0.49738700  1
  H  1714  1  0.05932400  0.27249100  0.48552300  1
  H  1715  1  0.02062000  0.25434200  0.48911000  1
  H  1716  1  0.03638600  0.25641700  0.46188700  1
  H  1718  1  0.99876773  0.21199373  0.44685000  1
  H  1720  1  0.98211670  0.12558770  0.53213300  1
  H  1727  1  0.48147300  0.21041000  0.49740100  1
  H  1730  1  0.52423500  0.10335700  0.48552900  1
  H  1731  1  0.54478400  0.14206100  0.48910700  1
  H  1732  1  0.53108500  0.12628700  0.46188900  1
  H  1734  1  0.52428600  0.16390900  0.44685600  1
  H  1736  1  0.45452100  0.18054100  0.53214600  1
  H  1743  1  0.03997000  0.68114700  0.49737600  1
  H  1746  1  0.89016000  0.63843100  0.48552700  1
  H  1747  1  0.90830070  0.61786470  0.48909100  1
  H  1748  1  0.90624170  0.63159370  0.46188200  1
  H  1750  1  0.95064670  0.63836070  0.44685000  1
  H  1752  1  0.03710300  0.70812200  0.53211400  1
  C  1  1  0.63256800  0.46576000  0.86573900  1
  C  2  1  0.61635400  0.48028100  0.86423900  1
  C  3  1  0.61169700  0.48808500  0.88530300  1
  C  4  1  0.62313000  0.47766200  0.90194200  1
  C  5  1  0.61874800  0.48285100  0.92499500  1
  C  6  1  0.60356900  0.49839600  0.93053400  1
  C  7  1  0.59556600  0.51087600  0.91255900  1
  C  8  1  0.59865800  0.50516000  0.89008000  1
  C  9  1  0.60541300  0.48457100  0.84387000  1
  C  10  1  0.61184200  0.47487600  0.82393700  1
  C  11  1  0.63050400  0.46251200  0.82363400  1
  C  12  1  0.63990900  0.45702100  0.84495100  1
  C  13  1  0.67052700  0.47766900  0.89635600  1
  C  14  1  0.67667200  0.45813200  0.90797400  1
  C  15  1  0.65111600  0.43169400  0.91043400  1
  C  16  1  0.62822900  0.43256200  0.89883500  1
  C  17  1  0.64763200  0.40638500  0.92135300  1
  C  18  1  0.62087800  0.38018000  0.91894800  1
  C  19  1  0.59845900  0.37927300  0.90521400  1
  C  20  1  0.60161400  0.40555500  0.89557300  1
  C  21  1  0.69408000  0.50659100  0.89252100  1
  C  22  1  0.72323800  0.51480100  0.89931200  1
  C  23  1  0.72851700  0.49381800  0.91011600  1
  C  24  1  0.70530500  0.46533700  0.91440100  1
  C  37  1  0.63845800  0.46319900  0.89046200  1
  C  42  1  0.92715000  0.46577400  0.86574000  1
  C  43  1  0.95788600  0.48200300  0.86423900  1
  C  44  1  0.97034500  0.48666100  0.88530300  1
  C  45  1  0.94848800  0.47522900  0.90194300  1
  C  46  1  0.95805800  0.47959300  0.92499600  1
  C  47  1  0.98878400  0.49470500  0.93053200  1
  C  48  1  0.00926900  0.50276500  0.91255500  1
  C  49  1  0.00046000  0.49968700  0.89007800  1
  C  50  1  0.97310700  0.49294200  0.84386600  1
  C  51  1  0.95697900  0.48646200  0.82393200  1
  C  52  1  0.92595700  0.46778300  0.82363400  1
  C  53  1  0.91106700  0.45841600  0.84495500  1
  C  54  1  0.90112000  0.42783000  0.89636200  1
  C  55  1  0.87543000  0.42167000  0.90797700  1
  C  56  1  0.87452700  0.44721400  0.91042600  1
  C  57  1  0.89824100  0.47008800  0.89878900  1
  C  58  1  0.85270100  0.45068600  0.92135300  1
  C  59  1  0.85325700  0.47744600  0.91897900  1
  C  60  1  0.87476400  0.49987900  0.90525100  1
  C  61  1  0.89789400  0.49673900  0.89559700  1
  C  62  1  0.90651900  0.40429500  0.89254500  1
  C  63  1  0.88559200  0.37514000  0.89935100  1
  C  64  1  0.85933200  0.36984300  0.91016700  1
  C  65  1  0.85404000  0.39304200  0.91444300  1
  C  78  1  0.91869800  0.45989800  0.89046000  1
  C  83  1  0.63250000  0.17117100  0.86574400  1
  C  84  1  0.61796000  0.14043400  0.86423500  1
  C  85  1  0.61019000  0.12797000  0.88529900  1
  C  86  1  0.62061100  0.14982100  0.90194300  1
  C  87  1  0.61542500  0.14025000  0.92499500  1
  C  88  1  0.59983400  0.10952500  0.93052800  1
  C  89  1  0.58741700  0.08903800  0.91255000  1
  C  90  1  0.59312400  0.09785400  0.89007300  1
  C  91  1  0.61374700  0.12521900  0.84386800  1
  C  92  1  0.62342000  0.14135000  0.82393700  1
  C  93  1  0.63575200  0.17237200  0.82363700  1
  C  94  1  0.64125800  0.18725800  0.84496000  1
  C  95  1  0.62060300  0.19721600  0.89637800  1
  C  96  1  0.64015600  0.22291200  0.90798100  1
  C  97  1  0.66659100  0.22378700  0.91044200  1
  C  98  1  0.66569000  0.20003700  0.89881800  1
  C  99  1  0.69193200  0.24558700  0.92134800  1
  C  100  1  0.71812200  0.24499900  0.91890900  1
  C  101  1  0.71896200  0.22343200  0.90519500  1
  C  102  1  0.69263500  0.20031100  0.89561900  1
  C  103  1  0.59169000  0.19185700  0.89252500  1
  C  104  1  0.58349800  0.21282200  0.89929400  1
  C  105  1  0.60448100  0.23908500  0.91009600  1
  C  106  1  0.63295500  0.24434000  0.91440300  1
  C  119  1  0.63505700  0.17961200  0.89046900  1
  C  124  1  0.49561800  0.60265400  0.36572200  1
  C  125  1  0.51179800  0.58809800  0.36421100  1
  C  126  1  0.51649100  0.58032600  0.38527600  1
  C  127  1  0.50508500  0.59077000  0.40191800  1
  C  128  1  0.50943900  0.58555700  0.42497100  1
  C  129  1  0.52458300  0.56997800  0.43050300  1
  C  130  1  0.53261300  0.55752200  0.41252800  1
  C  131  1  0.52950900  0.56323100  0.39004900  1
  C  132  1  0.52276700  0.58385000  0.34384100  1
  C  133  1  0.51632600  0.59354400  0.32391300  1
  C  134  1  0.49764300  0.60588500  0.32361700  1
  C  135  1  0.48827600  0.61140200  0.34494000  1
  C  136  1  0.45768100  0.59073700  0.39634900  1
  C  137  1  0.45151300  0.61027100  0.40794900  1
  C  138  1  0.47706400  0.63670100  0.41044300  1
  C  139  1  0.49992800  0.63583400  0.39881600  1
  C  140  1  0.48057600  0.66201100  0.42137900  1
  C  141  1  0.50733700  0.68821300  0.41896100  1
  C  142  1  0.52975100  0.68910000  0.40522700  1
  C  143  1  0.52660500  0.66279200  0.39565500  1
  C  144  1  0.43416000  0.56180300  0.39252300  1
  C  145  1  0.40501300  0.55356300  0.39935000  1
  C  146  1  0.39970400  0.57451600  0.41017200  1
  C  147  1  0.42289300  0.60301200  0.41445000  1
  C  160  1  0.48973700  0.60521300  0.39044600  1
  C  165  1  0.20093900  0.60273700  0.36574900  1
  C  166  1  0.17020200  0.58656300  0.36422700  1
  C  167  1  0.15772500  0.58190900  0.38528400  1
  C  168  1  0.17956500  0.59331600  0.40193500  1
  C  169  1  0.16999700  0.58892200  0.42498600  1
  C  170  1  0.13927400  0.57374800  0.43051000  1
  C  171  1  0.11878700  0.56570700  0.41253400  1
  C  172  1  0.12760600  0.56881700  0.39005600  1
  C  173  1  0.15500200  0.57555000  0.34385500  1
  C  174  1  0.17114800  0.58198200  0.32393200  1
  C  175  1  0.20216800  0.60069900  0.32364300  1
  C  176  1  0.21704100  0.61005300  0.34497100  1
  C  177  1  0.22703500  0.64066400  0.39638600  1
  C  178  1  0.25273100  0.64675500  0.40796900  1
  C  179  1  0.25353000  0.62114900  0.41044600  1
  C  180  1  0.22967600  0.59833400  0.39888900  1
  C  181  1  0.27533900  0.61750600  0.42124500  1
  C  182  1  0.27461100  0.59064700  0.41880500  1
  C  183  1  0.25288600  0.56829500  0.40514100  1
  C  184  1  0.22980500  0.57161000  0.39564800  1
  C  185  1  0.22169100  0.66422800  0.39255700  1
  C  186  1  0.24265700  0.69335800  0.39936800  1
  C  187  1  0.26890400  0.69860400  0.41018100  1
  C  188  1  0.27413900  0.67536400  0.41446500  1
  C  201  1  0.20936000  0.60862500  0.39047800  1
  C  206  1  0.49563100  0.89730800  0.36571900  1
  C  207  1  0.51020000  0.92804500  0.36420500  1
  C  208  1  0.51801500  0.94051200  0.38526700  1
  C  209  1  0.50757100  0.91866500  0.40191200  1
  C  210  1  0.51274900  0.92823500  0.42496400  1
  C  211  1  0.52831000  0.95895800  0.43049500  1
  C  212  1  0.54075200  0.97944600  0.41252100  1
  C  213  1  0.53506300  0.97063000  0.39004100  1
  C  214  1  0.51445600  0.94325900  0.34383100  1
  C  215  1  0.50472900  0.92711600  0.32390700  1
  C  216  1  0.49241500  0.89609400  0.32361400  1
  C  217  1  0.48687900  0.88121400  0.34493900  1
  C  218  1  0.50751000  0.87124200  0.39633000  1
  C  219  1  0.48793100  0.84552500  0.40789600  1
  C  220  1  0.46152000  0.84469600  0.41038900  1
  C  221  1  0.46245200  0.86850800  0.39883600  1
  C  222  1  0.43619400  0.82292500  0.42132300  1
  C  223  1  0.41003400  0.82358600  0.41897100  1
  C  224  1  0.40920000  0.84521000  0.40531700  1
  C  225  1  0.43550400  0.86824200  0.39564100  1
  C  226  1  0.53644300  0.87663200  0.39253500  1
  C  227  1  0.54464800  0.85569800  0.39936000  1
  C  228  1  0.52366100  0.82943100  0.41015700  1
  C  229  1  0.49516500  0.82414700  0.41440600  1
  C  242  1  0.49307800  0.88887000  0.39044100  1
  C  247  1  0.19965300  0.60151100  0.11676600  1
  C  248  1  0.16888900  0.58657100  0.11843400  1
  C  249  1  0.15646900  0.58023200  0.09725600  1
  C  250  1  0.17842100  0.59072500  0.08065300  1
  C  251  1  0.16914300  0.58665900  0.05754800  1
  C  252  1  0.13850800  0.57180200  0.05184400  1
  C  253  1  0.11770400  0.56243700  0.06966400  1
  C  254  1  0.12633700  0.56610000  0.09223700  1
  C  255  1  0.15379300  0.57959300  0.13913600  1
  C  256  1  0.17005400  0.58789900  0.15912500  1
  C  257  1  0.20108500  0.60283500  0.15867800  1
  C  258  1  0.21600400  0.60961800  0.13738200  1
  C  259  1  0.22588900  0.59053800  0.08597200  1
  C  260  1  0.25177200  0.61037100  0.07468500  1
  C  261  1  0.25268100  0.63688000  0.07251700  1
  C  262  1  0.22868700  0.63554100  0.08407500  1
  C  263  1  0.27475700  0.66271100  0.06225900  1
  C  264  1  0.27421500  0.68888900  0.06538500  1
  C  265  1  0.25219700  0.68898300  0.07900300  1
  C  266  1  0.22880400  0.66227400  0.08777300  1
  C  267  1  0.22069400  0.56171400  0.08992600  1
  C  268  1  0.24194100  0.55379200  0.08346500  1
  C  269  1  0.26830800  0.57494200  0.07287300  1
  C  270  1  0.27342000  0.60336800  0.06851100  1
  C  283  1  0.20818400  0.60477900  0.09207500  1
  C  288  1  0.49675000  0.60246500  0.11675400  1
  C  289  1  0.51171100  0.58666000  0.11842200  1
  C  290  1  0.51805600  0.58058700  0.09724600  1
  C  291  1  0.50754800  0.59203100  0.08064100  1
  C  292  1  0.51162400  0.58683100  0.05753800  1
  C  293  1  0.52649700  0.57106900  0.05183300  1
  C  294  1  0.53587100  0.55963700  0.06965200  1
  C  295  1  0.53222700  0.56462400  0.09222500  1
  C  296  1  0.51872300  0.57857600  0.13912400  1
  C  297  1  0.51042800  0.58654200  0.15911300  1
  C  298  1  0.49545900  0.60260400  0.15866400  1
  C  299  1  0.48864600  0.61071100  0.13737000  1
  C  300  1  0.50774200  0.63967800  0.08597300  1
  C  301  1  0.48793500  0.64573900  0.07466100  1
  C  302  1  0.46144600  0.62013400  0.07242900  1
  C  303  1  0.46272700  0.59748800  0.08405000  1
  C  304  1  0.43562600  0.61644700  0.06220100  1
  C  305  1  0.40942400  0.58977300  0.06535800  1
  C  306  1  0.40927700  0.56761400  0.07894900  1
  C  307  1  0.43595900  0.57089400  0.08775500  1
  C  308  1  0.53656600  0.66329900  0.08993600  1
  C  309  1  0.54450800  0.69247600  0.08347900  1
  C  310  1  0.52336300  0.69770100  0.07288500  1
  C  311  1  0.49495100  0.67439100  0.06848500  1
  C  324  1  0.49348300  0.60773000  0.09206400  1
  C  329  1  0.49572600  0.89865500  0.11674600  1
  C  330  1  0.51156800  0.92942000  0.11842100  1
  C  331  1  0.51762900  0.94184600  0.09724600  1
  C  332  1  0.50618200  0.91989900  0.08063700  1
  C  333  1  0.51140700  0.92917300  0.05753600  1
  C  334  1  0.52717700  0.95980500  0.05182700  1
  C  335  1  0.53866200  0.98060300  0.06965100  1
  C  336  1  0.53366400  0.97197600  0.09222500  1
  C  337  1  0.51970800  0.94450500  0.13912600  1
  C  338  1  0.51176200  0.92823600  0.15911100  1
  C  339  1  0.49565800  0.89720500  0.15865900  1
  C  340  1  0.48749900  0.88229700  0.13736000  1
  C  341  1  0.45855000  0.87240400  0.08591700  1
  C  342  1  0.45255000  0.84656700  0.07457200  1
  C  343  1  0.47815800  0.84563000  0.07249700  1
  C  344  1  0.50074400  0.86965100  0.08406800  1
  C  345  1  0.48198700  0.82350800  0.06238200  1
  C  346  1  0.50868400  0.82403200  0.06571700  1
  C  347  1  0.53078600  0.84622800  0.07925700  1
  C  348  1  0.52736500  0.86960900  0.08785500  1
  C  349  1  0.43491300  0.87757100  0.08990200  1
  C  350  1  0.40574600  0.85631300  0.08345200  1
  C  351  1  0.40055900  0.82996800  0.07283200  1
  C  352  1  0.42389400  0.82488800  0.06844100  1
  C  365  1  0.49046900  0.89013500  0.09205100  1
  C  370  1  0.92854600  0.46704000  0.61677900  1
  C  371  1  0.95931000  0.48195400  0.61845100  1
  C  372  1  0.97173200  0.48828000  0.59727500  1
  C  373  1  0.94978200  0.47776200  0.58066900  1
  C  374  1  0.95904900  0.48179200  0.55756600  1
  C  375  1  0.98968300  0.49657600  0.55186400  1
  C  376  1  0.01049000  0.50597100  0.56968200  1
  C  377  1  0.00186100  0.50236000  0.59225500  1
  C  378  1  0.97440100  0.48892000  0.63915400  1
  C  379  1  0.95813500  0.48062000  0.65914100  1
  C  380  1  0.92710600  0.46569300  0.65868900  1
  C  381  1  0.91219100  0.45892500  0.63739300  1
  C  382  1  0.90232000  0.47795900  0.58592500  1
  C  383  1  0.87647500  0.45812400  0.57458500  1
  C  384  1  0.87550500  0.43156500  0.57253700  1
  C  385  1  0.89948700  0.43297900  0.58415400  1
  C  386  1  0.85338200  0.40561900  0.56242300  1
  C  387  1  0.85391100  0.37944600  0.56573500  1
  C  388  1  0.87609900  0.37952600  0.57926000  1
  C  389  1  0.89949600  0.40632900  0.58787100  1
  C  390  1  0.90751800  0.50677700  0.58988600  1
  C  391  1  0.88628800  0.51470800  0.58340700  1
  C  392  1  0.85995300  0.49357000  0.57276600  1
  C  393  1  0.85483900  0.46514000  0.56840200  1
  C  406  1  0.92002300  0.46374900  0.59208400  1
  C  411  1  0.63125000  0.46587300  0.61676100  1
  C  412  1  0.61631400  0.48170000  0.61843400  1
  C  413  1  0.60999100  0.48779900  0.59725800  1
  C  414  1  0.62051000  0.47636900  0.58065000  1
  C  415  1  0.61648000  0.48161100  0.55754700  1
  C  416  1  0.60169800  0.49746200  0.55184900  1
  C  417  1  0.59230600  0.50887500  0.56966900  1
  C  418  1  0.59591000  0.50384900  0.59224000  1
  C  419  1  0.60932700  0.48980500  0.63913700  1
  C  420  1  0.61762200  0.48183500  0.65912500  1
  C  421  1  0.63258400  0.46576700  0.65867200  1
  C  422  1  0.63937700  0.45764400  0.63737400  1
  C  423  1  0.62031500  0.42871100  0.58592400  1
  C  424  1  0.64014100  0.42269300  0.57457800  1
  C  425  1  0.66666667  0.44825267  0.57250900  1
  C  426  1  0.66529700  0.47086000  0.58412000  1
  C  427  1  0.69261900  0.45210800  0.56235500  1
  C  428  1  0.71879800  0.47880500  0.56565900  1
  C  429  1  0.71875500  0.50093400  0.57921400  1
  C  430  1  0.69195700  0.49751100  0.58782500  1
  C  431  1  0.59149600  0.40509600  0.58989000  1
  C  432  1  0.58356500  0.37592800  0.58342800  1
  C  433  1  0.60470400  0.37072400  0.57279800  1
  C  434  1  0.63313100  0.39403600  0.56842100  1
  C  447  1  0.63453200  0.46063100  0.59206600  1
  C  452  1  0.63240300  0.16975800  0.61675900  1
  C  453  1  0.61656900  0.13899500  0.61843500  1
  C  454  1  0.61049800  0.12656700  0.59726100  1
  C  455  1  0.62194500  0.14851100  0.58065000  1
  C  456  1  0.61670700  0.13923600  0.55754900  1
  C  457  1  0.60091100  0.10860200  0.55185100  1
  C  458  1  0.58945800  0.08780100  0.56967200  1
  C  459  1  0.59445500  0.09643600  0.59224400  1
  C  460  1  0.60843400  0.12390800  0.63914100  1
  C  461  1  0.61638400  0.14017700  0.65912600  1
  C  462  1  0.63248100  0.17120700  0.65867200  1
  C  463  1  0.64063500  0.18611600  0.63737300  1
  C  464  1  0.66958500  0.19599500  0.58593700  1
  C  465  1  0.67560900  0.22186700  0.57463700  1
  C  466  1  0.65000400  0.22279000  0.57251200  1
  C  467  1  0.62741500  0.19879200  0.58409800  1
  C  468  1  0.64617100  0.24488100  0.56235200  1
  C  469  1  0.61946500  0.24434600  0.56564700  1
  C  470  1  0.59734700  0.22218600  0.57918900  1
  C  471  1  0.60073100  0.19875300  0.58776100  1
  C  472  1  0.69320600  0.19079900  0.58990300  1
  C  473  1  0.72236800  0.21203700  0.58343300  1
  C  474  1  0.72757600  0.23839300  0.57282400  1
  C  475  1  0.70425800  0.24350000  0.56844600  1
  C  488  1  0.63766100  0.17827600  0.59206400  1
  C  493  1  0.55636000  0.30402500  0.89125500  1
  C  495  1  0.53460900  0.25897100  0.91213200  1
  C  496  1  0.54860400  0.24783600  0.89812700  1
  C  498  1  0.57187400  0.29376200  0.87777600  1
  C  501  1  0.61210600  0.33717800  0.86032400  1
  C  505  1  0.55812800  0.33089500  0.88858700  1
  C  507  1  0.53970500  0.21812600  0.89797300  1
  C  509  1  0.84162400  0.54198000  0.89127300  1
  C  511  1  0.81830600  0.56369800  0.91217000  1
  C  512  1  0.79316800  0.54969800  0.89817000  1
  C  514  1  0.81584400  0.52645900  0.87779900  1
  C  517  1  0.81900800  0.48621700  0.86035200  1
  C  521  1  0.86671900  0.54019200  0.88861100  1
  C  523  1  0.77235000  0.55859000  0.89802800  1
  C  525  1  0.79435300  0.25696000  0.89136800  1
  C  527  1  0.83950100  0.28004900  0.91211700  1
  C  528  1  0.85061500  0.30526000  0.89820600  1
  C  530  1  0.80460800  0.28278800  0.87795200  1
  C  533  1  0.76108100  0.27925600  0.86031900  1
  C  537  1  0.76758300  0.23178400  0.88861100  1
  C  539  1  0.88032600  0.32606400  0.89805300  1
  C  541  1  0.57161800  0.76446200  0.39131300  1
  C  543  1  0.59367800  0.80959500  0.41208100  1
  C  544  1  0.57955100  0.82070400  0.39819600  1
  C  546  1  0.55600700  0.77470700  0.37793000  1
  C  549  1  0.51601500  0.73116200  0.36029800  1
  C  553  1  0.56995400  0.73765600  0.38858100  1
  C  555  1  0.58845500  0.85041300  0.39805600  1
  C  557  1  0.28697900  0.52689300  0.39154600  1
  C  559  1  0.30997600  0.50463000  0.41214500  1
  C  560  1  0.33517700  0.51874700  0.39822700  1
  C  562  1  0.31277500  0.54244800  0.37809700  1
  C  565  1  0.30891800  0.58220200  0.36033000  1
  C  569  1  0.26162100  0.52808600  0.38862500  1
  C  571  1  0.35593400  0.50978600  0.39800000  1
  C  573  1  0.33390200  0.81167100  0.39135300  1
  C  575  1  0.28880300  0.78841800  0.41216900  1
  C  576  1  0.27770300  0.76326000  0.39819600  1
  C  578  1  0.32367600  0.78587700  0.37790300  1
  C  581  1  0.36718200  0.78929800  0.36038900  1
  C  585  1  0.36068900  0.83685600  0.38862700  1
  C  587  1  0.24799300  0.74247100  0.39801200  1
  C  589  1  0.28768400  0.76452500  0.09161100  1
  C  591  1  0.31078800  0.80982100  0.07107300  1
  C  592  1  0.33588300  0.82088400  0.08510300  1
  C  594  1  0.31325900  0.77484700  0.10530900  1
  C  597  1  0.30967100  0.73146900  0.12294500  1
  C  601  1  0.26177900  0.73873500  0.09518900  1
  C  603  1  0.35651100  0.85061800  0.08540800  1
  C  605  1  0.33372800  0.52746000  0.09164400  1
  C  607  1  0.28845600  0.50532900  0.07107800  1
  C  608  1  0.27739400  0.51935900  0.08511100  1
  C  610  1  0.32342300  0.54274100  0.10532900  1
  C  613  1  0.36681300  0.58255900  0.12294200  1
  C  617  1  0.35957900  0.52744400  0.09517000  1
  C  619  1  0.24765600  0.51025800  0.08541400  1
  C  621  1  0.57048300  0.81038000  0.09136500  1
  C  623  1  0.59288000  0.78736500  0.07096300  1
  C  624  1  0.57889400  0.76230300  0.08502700  1
  C  626  1  0.55537600  0.78488100  0.10516100  1
  C  629  1  0.51581200  0.78868600  0.12298800  1
  C  633  1  0.57103700  0.83647400  0.09514100  1
  C  635  1  0.58804000  0.74170400  0.08536400  1
  C  637  1  0.84025800  0.30398500  0.59136500  1
  C  639  1  0.81724800  0.25855200  0.57099100  1
  C  640  1  0.79219000  0.24749000  0.58505500  1
  C  642  1  0.81476400  0.29360500  0.60516400  1
  C  645  1  0.81861700  0.33699000  0.62300900  1
  C  649  1  0.86634600  0.32951500  0.59512600  1
  C  651  1  0.77160200  0.21774800  0.58541900  1
  C  653  1  0.79432800  0.54054000  0.59135100  1
  C  655  1  0.83982400  0.56318700  0.57105200  1
  C  656  1  0.85087500  0.54909700  0.58502300  1
  C  658  1  0.80470900  0.52535000  0.60506900  1
  C  661  1  0.76123600  0.48591600  0.62298000  1
  C  665  1  0.76877900  0.54108900  0.59513400  1
  C  667  1  0.88061900  0.55824800  0.58536800  1
  C  669  1  0.55774700  0.25814500  0.59135600  1
  C  671  1  0.53511100  0.28100100  0.57105400  1
  C  672  1  0.54917900  0.30612800  0.58504000  1
  C  674  1  0.57292000  0.28370500  0.60508600  1
  C  677  1  0.61239500  0.27972100  0.62296400  1
  C  681  1  0.55721000  0.23206800  0.59513200  1
  C  683  1  0.54002500  0.32671900  0.58538500  1
  C  685  1  0.64595200  0.45062700  0.71655300  1
  C  687  1  0.62949300  0.47129700  0.74575900  1
  C  688  1  0.64190400  0.46212000  0.76288800  1
  C  690  1  0.65804500  0.44078400  0.73392700  1
  C  693  1  0.68188900  0.41722700  0.71288300  1
  C  697  1  0.64680200  0.44712700  0.69307000  1
  C  699  1  0.64272200  0.47117100  0.78506600  1
  C  701  1  0.89861900  0.45241900  0.71657000  1
  C  703  1  0.93574000  0.46883700  0.74577900  1
  C  704  1  0.91414700  0.45639600  0.76290300  1
  C  706  1  0.87667700  0.44029100  0.73393700  1
  C  709  1  0.82929800  0.41639100  0.71287100  1
  C  713  1  0.89427000  0.45162700  0.69309300  1
  C  715  1  0.92235200  0.45552400  0.78508000  1
  C  717  1  0.64774100  0.19968500  0.71655500  1
  C  719  1  0.62703000  0.16257200  0.74576800  1
  C  720  1  0.63619500  0.18417000  0.76289000  1
  C  722  1  0.65756000  0.22163200  0.73391900  1
  C  725  1  0.68099200  0.26899100  0.71283100  1
  C  729  1  0.65131500  0.20403500  0.69307700  1
  C  731  1  0.62713400  0.17595400  0.78506800  1
  C  733  1  0.48221300  0.61782800  0.21654700  1
  C  735  1  0.49867100  0.59715000  0.24574400  1
  C  736  1  0.48625200  0.60631500  0.26287600  1
  C  738  1  0.47010600  0.62765500  0.23392100  1
  C  741  1  0.44624200  0.65118000  0.21286800  1
  C  745  1  0.48136800  0.62134900  0.19306900  1
  C  747  1  0.48542800  0.59726000  0.28505200  1
  C  749  1  0.22953900  0.61602900  0.21656500  1
  C  751  1  0.19240800  0.59960600  0.24576600  1
  C  752  1  0.21399700  0.61203200  0.26289500  1
  C  754  1  0.25147500  0.62814700  0.23393600  1
  C  757  1  0.29885100  0.65206800  0.21286700  1
  C  761  1  0.23390300  0.61682600  0.19309000  1
  C  763  1  0.20577000  0.61287500  0.28507000  1
  C  765  1  0.48039200  0.86874100  0.21654300  1
  C  767  1  0.50110000  0.90586600  0.24574800  1
  C  768  1  0.49193400  0.88427400  0.26287300  1
  C  770  1  0.47057600  0.84680300  0.23391200  1
  C  773  1  0.44715800  0.79943800  0.21283100  1
  C  777  1  0.47681500  0.86438100  0.19306800  1
  C  779  1  0.50101300  0.89250200  0.28504600  1
  C  781  1  0.56895400  0.51546200  0.97647400  1
  C  783  1  0.58592800  0.56214600  0.99473300  1
  C  784  1  0.55839100  0.55208600  0.00537600  1
  C  786  1  0.54112400  0.50490500  0.98726300  1
  C  789  1  0.51683000  0.45182200  0.97998600  1
  C  793  1  0.57316700  0.50185400  0.95792400  1
  C  795  1  0.55520600  0.56805700  0.02282800  1
  C  797  1  0.04044200  0.52936100  0.97647900  1
  C  799  1  0.07014400  0.51238300  0.99474600  1
  C  800  1  0.08762400  0.53991900  0.00538600  1
  C  802  1  0.05771900  0.55719300  0.98726400  1
  C  805  1  0.02893000  0.58148200  0.97999200  1
  C  809  1  0.02262900  0.52514700  0.95792400  1
  C  811  1  0.10677600  0.54309900  0.02284100  1
  C  813  1  0.58285700  0.05788100  0.97647500  1
  C  815  1  0.53617300  0.02817900  0.99473400  1
  C  816  1  0.54623400  0.01070800  0.00538400  1
  C  818  1  0.59341300  0.04061100  0.98726700  1
  C  821  1  0.64649200  0.06939500  0.97997800  1
  C  825  1  0.59645500  0.07569100  0.95791900  1
  C  827  1  0.53025100  0.99152800  0.02282400  1
  C  829  1  0.55921300  0.55298600  0.47645000  1
  C  831  1  0.54222900  0.50632000  0.49474200  1
  C  832  1  0.56976900  0.51638900  0.50538000  1
  C  834  1  0.58704200  0.56355100  0.48723900  1
  C  837  1  0.61132100  0.61662900  0.47998300  1
  C  841  1  0.55502300  0.56658300  0.45788500  1
  C  843  1  0.57297400  0.50045700  0.52285000  1
  C  845  1  0.08767900  0.53907000  0.47645700  1
  C  847  1  0.05799400  0.55604600  0.49475400  1
  C  848  1  0.04053000  0.52850600  0.50539400  1
  C  850  1  0.07042400  0.51124100  0.48724700  1
  C  853  1  0.09923000  0.48697000  0.47998600  1
  C  857  1  0.10546900  0.54327000  0.45789400  1
  C  859  1  0.02139600  0.52529900  0.52286500  1
  C  861  1  0.54527800  0.01056800  0.47645000  1
  C  863  1  0.59194800  0.04024600  0.49473700  1
  C  864  1  0.58188400  0.05771500  0.50538400  1
  C  866  1  0.53471700  0.02783200  0.48724700  1
  C  869  1  0.48163600  0.99904400  0.47998100  1
  C  873  1  0.53167800  0.99278100  0.45788400  1
  C  875  1  0.59783100  0.07685500  0.52285000  1
  C  877  1  0.05974200  0.10297070  0.86573900  1
  C  878  1  0.04352800  0.11749170  0.86423900  1
  C  879  1  0.03887100  0.12529570  0.88530300  1
  C  880  1  0.05030400  0.11487270  0.90194200  1
  C  881  1  0.04592200  0.12006170  0.92499500  1
  C  882  1  0.03074300  0.13560700  0.93053400  1
  C  883  1  0.02274000  0.14808700  0.91255900  1
  C  884  1  0.02583200  0.14237100  0.89008000  1
  C  885  1  0.03258700  0.12178170  0.84387000  1
  C  886  1  0.03901600  0.11208670  0.82393700  1
  C  887  1  0.05767800  0.09972270  0.82363400  1
  C  888  1  0.06708300  0.09423170  0.84495100  1
  C  889  1  0.09770100  0.11487970  0.89635600  1
  C  890  1  0.10384600  0.09534300  0.90797400  1
  C  891  1  0.07829000  0.06890500  0.91043400  1
  C  892  1  0.05540300  0.06977270  0.89883500  1
  C  893  1  0.07480600  0.04359600  0.92135300  1
  C  894  1  0.04805200  0.01739100  0.91894800  1
  C  895  1  0.02563300  0.01648400  0.90521400  1
  C  896  1  0.02878800  0.04276570  0.89557300  1
  C  897  1  0.12125400  0.14380170  0.89252100  1
  C  898  1  0.15041200  0.15201170  0.89931200  1
  C  899  1  0.15569100  0.13102900  0.91011600  1
  C  900  1  0.13247900  0.10254800  0.91440100  1
  C  913  1  0.06563200  0.10040970  0.89046200  1
  C  918  1  0.35432400  0.10298500  0.86574000  1
  C  919  1  0.38506000  0.11921400  0.86423900  1
  C  920  1  0.39751900  0.12387200  0.88530300  1
  C  921  1  0.37566200  0.11244000  0.90194300  1
  C  922  1  0.38523200  0.11680400  0.92499600  1
  C  923  1  0.41595800  0.13191600  0.93053200  1
  C  924  1  0.43644300  0.13997600  0.91255500  1
  C  925  1  0.42763400  0.13689800  0.89007800  1
  C  926  1  0.40028100  0.13015300  0.84386600  1
  C  927  1  0.38415300  0.12367300  0.82393200  1
  C  928  1  0.35313100  0.10499400  0.82363400  1
  C  929  1  0.33824100  0.09562700  0.84495500  1
  C  930  1  0.32829400  0.06504100  0.89636200  1
  C  931  1  0.30260400  0.05888100  0.90797700  1
  C  932  1  0.30170100  0.08442500  0.91042600  1
  C  933  1  0.32541500  0.10729900  0.89878900  1
  C  934  1  0.27987500  0.08789700  0.92135300  1
  C  935  1  0.28043100  0.11465700  0.91897900  1
  C  936  1  0.30193800  0.13709000  0.90525100  1
  C  937  1  0.32506800  0.13395000  0.89559700  1
  C  938  1  0.33369300  0.04150600  0.89254500  1
  C  939  1  0.31276600  0.01235100  0.89935100  1
  C  940  1  0.28650600  0.00705400  0.91016700  1
  C  941  1  0.28121400  0.03025300  0.91444300  1
  C  954  1  0.34587200  0.09710900  0.89046000  1
  C  959  1  0.05967400  0.80838200  0.86574400  1
  C  960  1  0.04513400  0.77764500  0.86423500  1
  C  961  1  0.03736400  0.76518100  0.88529900  1
  C  962  1  0.04778500  0.78703200  0.90194300  1
  C  963  1  0.04259900  0.77746100  0.92499500  1
  C  964  1  0.02700800  0.74673600  0.93052800  1
  C  965  1  0.01459100  0.72624900  0.91255000  1
  C  966  1  0.02029800  0.73506500  0.89007300  1
  C  967  1  0.04092100  0.76243000  0.84386800  1
  C  968  1  0.05059400  0.77856100  0.82393700  1
  C  969  1  0.06292600  0.80958300  0.82363700  1
  C  970  1  0.06843200  0.82446900  0.84496000  1
  C  971  1  0.04777700  0.83442700  0.89637800  1
  C  972  1  0.06733000  0.86012300  0.90798100  1
  C  973  1  0.09376500  0.86099800  0.91044200  1
  C  974  1  0.09286400  0.83724800  0.89881800  1
  C  975  1  0.11910600  0.88279800  0.92134800  1
  C  976  1  0.14529600  0.88221000  0.91890900  1
  C  977  1  0.14613600  0.86064300  0.90519500  1
  C  978  1  0.11980900  0.83752200  0.89561900  1
  C  979  1  0.01886400  0.82906800  0.89252500  1
  C  980  1  0.01067200  0.85003300  0.89929400  1
  C  981  1  0.03165500  0.87629600  0.91009600  1
  C  982  1  0.06012900  0.88155100  0.91440300  1
  C  995  1  0.06223100  0.81682300  0.89046900  1
  C  1000  1  0.92279170  0.23986470  0.36572200  1
  C  1001  1  0.93897170  0.22530870  0.36421100  1
  C  1002  1  0.94366470  0.21753670  0.38527600  1
  C  1003  1  0.93225870  0.22798070  0.40191800  1
  C  1004  1  0.93661270  0.22276770  0.42497100  1
  C  1005  1  0.95175670  0.20718870  0.43050300  1
  C  1006  1  0.95978670  0.19473270  0.41252800  1
  C  1007  1  0.95668270  0.20044170  0.39004900  1
  C  1008  1  0.94994070  0.22106070  0.34384100  1
  C  1009  1  0.94349970  0.23075470  0.32391300  1
  C  1010  1  0.92481670  0.24309570  0.32361700  1
  C  1011  1  0.91544970  0.24861270  0.34494000  1
  C  1012  1  0.88485500  0.22794800  0.39634900  1
  C  1013  1  0.87868700  0.24748200  0.40794900  1
  C  1014  1  0.90423770  0.27391170  0.41044300  1
  C  1015  1  0.92710170  0.27304470  0.39881600  1
  C  1016  1  0.90774970  0.29922170  0.42137900  1
  C  1017  1  0.93451070  0.32542370  0.41896100  1
  C  1018  1  0.95692470  0.32631070  0.40522700  1
  C  1019  1  0.95377870  0.30000270  0.39565500  1
  C  1020  1  0.86133400  0.19901400  0.39252300  1
  C  1021  1  0.83218700  0.19077400  0.39935000  1
  C  1022  1  0.82687800  0.21172700  0.41017200  1
  C  1023  1  0.85006700  0.24022300  0.41445000  1
  C  1036  1  0.91691070  0.24242370  0.39044600  1
  C  1041  1  0.62811300  0.23994800  0.36574900  1
  C  1042  1  0.59737600  0.22377400  0.36422700  1
  C  1043  1  0.58489900  0.21912000  0.38528400  1
  C  1044  1  0.60673900  0.23052700  0.40193500  1
  C  1045  1  0.59717100  0.22613300  0.42498600  1
  C  1046  1  0.56644800  0.21095900  0.43051000  1
  C  1047  1  0.54596100  0.20291800  0.41253400  1
  C  1048  1  0.55478000  0.20602800  0.39005600  1
  C  1049  1  0.58217600  0.21276100  0.34385500  1
  C  1050  1  0.59832200  0.21919300  0.32393200  1
  C  1051  1  0.62934200  0.23791000  0.32364300  1
  C  1052  1  0.64421500  0.24726400  0.34497100  1
  C  1053  1  0.65420900  0.27787500  0.39638600  1
  C  1054  1  0.67990500  0.28396600  0.40796900  1
  C  1055  1  0.68070400  0.25836000  0.41044600  1
  C  1056  1  0.65685000  0.23554500  0.39888900  1
  C  1057  1  0.70251300  0.25471700  0.42124500  1
  C  1058  1  0.70178500  0.22785800  0.41880500  1
  C  1059  1  0.68006000  0.20550600  0.40514100  1
  C  1060  1  0.65697900  0.20882100  0.39564800  1
  C  1061  1  0.64886500  0.30143900  0.39255700  1
  C  1062  1  0.66983100  0.33056900  0.39936800  1
  C  1063  1  0.69607800  0.33581500  0.41018100  1
  C  1064  1  0.70131300  0.31257500  0.41446500  1
  C  1077  1  0.63653400  0.24583600  0.39047800  1
  C  1082  1  0.92280470  0.53451870  0.36571900  1
  C  1083  1  0.93737370  0.56525570  0.36420500  1
  C  1084  1  0.94518870  0.57772270  0.38526700  1
  C  1085  1  0.93474470  0.55587570  0.40191200  1
  C  1086  1  0.93992270  0.56544570  0.42496400  1
  C  1087  1  0.95548370  0.59616870  0.43049500  1
  C  1088  1  0.96792570  0.61665670  0.41252100  1
  C  1089  1  0.96223670  0.60784070  0.39004100  1
  C  1090  1  0.94162970  0.58046970  0.34383100  1
  C  1091  1  0.93190270  0.56432670  0.32390700  1
  C  1092  1  0.91958870  0.53330470  0.32361400  1
  C  1093  1  0.91405270  0.51842470  0.34493900  1
  C  1094  1  0.93468370  0.50845270  0.39633000  1
  C  1095  1  0.91510470  0.48273570  0.40789600  1
  C  1096  1  0.88869400  0.48190700  0.41038900  1
  C  1097  1  0.88962600  0.50571900  0.39883600  1
  C  1098  1  0.86336800  0.46013600  0.42132300  1
  C  1099  1  0.83720800  0.46079700  0.41897100  1
  C  1100  1  0.83637400  0.48242100  0.40531700  1
  C  1101  1  0.86267800  0.50545300  0.39564100  1
  C  1102  1  0.96361670  0.51384270  0.39253500  1
  C  1103  1  0.97182170  0.49290870  0.39936000  1
  C  1104  1  0.95083470  0.46664170  0.41015700  1
  C  1105  1  0.92233870  0.46135770  0.41440600  1
  C  1118  1  0.92025170  0.52608070  0.39044100  1
  C  1123  1  0.62682700  0.23872200  0.11676600  1
  C  1124  1  0.59606300  0.22378200  0.11843400  1
  C  1125  1  0.58364300  0.21744300  0.09725600  1
  C  1126  1  0.60559500  0.22793600  0.08065300  1
  C  1127  1  0.59631700  0.22387000  0.05754800  1
  C  1128  1  0.56568200  0.20901300  0.05184400  1
  C  1129  1  0.54487800  0.19964800  0.06966400  1
  C  1130  1  0.55351100  0.20331100  0.09223700  1
  C  1131  1  0.58096700  0.21680400  0.13913600  1
  C  1132  1  0.59722800  0.22511000  0.15912500  1
  C  1133  1  0.62825900  0.24004600  0.15867800  1
  C  1134  1  0.64317800  0.24682900  0.13738200  1
  C  1135  1  0.65306300  0.22774900  0.08597200  1
  C  1136  1  0.67894600  0.24758200  0.07468500  1
  C  1137  1  0.67985500  0.27409100  0.07251700  1
  C  1138  1  0.65586100  0.27275200  0.08407500  1
  C  1139  1  0.70193100  0.29992200  0.06225900  1
  C  1140  1  0.70138900  0.32610000  0.06538500  1
  C  1141  1  0.67937100  0.32619400  0.07900300  1
  C  1142  1  0.65597800  0.29948500  0.08777300  1
  C  1143  1  0.64786800  0.19892500  0.08992600  1
  C  1144  1  0.66911500  0.19100300  0.08346500  1
  C  1145  1  0.69548200  0.21215300  0.07287300  1
  C  1146  1  0.70059400  0.24057900  0.06851100  1
  C  1159  1  0.63535800  0.24199000  0.09207500  1
  C  1164  1  0.92392370  0.23967570  0.11675400  1
  C  1165  1  0.93888470  0.22387070  0.11842200  1
  C  1166  1  0.94522970  0.21779770  0.09724600  1
  C  1167  1  0.93472170  0.22924170  0.08064100  1
  C  1168  1  0.93879770  0.22404170  0.05753800  1
  C  1169  1  0.95367070  0.20827970  0.05183300  1
  C  1170  1  0.96304470  0.19684770  0.06965200  1
  C  1171  1  0.95940070  0.20183470  0.09222500  1
  C  1172  1  0.94589670  0.21578670  0.13912400  1
  C  1173  1  0.93760170  0.22375270  0.15911300  1
  C  1174  1  0.92263270  0.23981470  0.15866400  1
  C  1175  1  0.91581970  0.24792170  0.13737000  1
  C  1176  1  0.93491570  0.27688870  0.08597300  1
  C  1177  1  0.91510870  0.28294970  0.07466100  1
  C  1178  1  0.88862000  0.25734500  0.07242900  1
  C  1179  1  0.88990100  0.23469900  0.08405000  1
  C  1180  1  0.86280000  0.25365800  0.06220100  1
  C  1181  1  0.83659800  0.22698400  0.06535800  1
  C  1182  1  0.83645100  0.20482500  0.07894900  1
  C  1183  1  0.86313300  0.20810500  0.08775500  1
  C  1184  1  0.96373970  0.30050970  0.08993600  1
  C  1185  1  0.97168170  0.32968670  0.08347900  1
  C  1186  1  0.95053670  0.33491170  0.07288500  1
  C  1187  1  0.92212470  0.31160170  0.06848500  1
  C  1200  1  0.92065670  0.24494070  0.09206400  1
  C  1205  1  0.92289970  0.53586570  0.11674600  1
  C  1206  1  0.93874170  0.56663070  0.11842100  1
  C  1207  1  0.94480270  0.57905670  0.09724600  1
  C  1208  1  0.93335570  0.55710970  0.08063700  1
  C  1209  1  0.93858070  0.56638370  0.05753600  1
  C  1210  1  0.95435070  0.59701570  0.05182700  1
  C  1211  1  0.96583570  0.61781370  0.06965100  1
  C  1212  1  0.96083770  0.60918670  0.09222500  1
  C  1213  1  0.94688170  0.58171570  0.13912600  1
  C  1214  1  0.93893570  0.56544670  0.15911100  1
  C  1215  1  0.92283170  0.53441570  0.15865900  1
  C  1216  1  0.91467270  0.51950770  0.13736000  1
  C  1217  1  0.88572400  0.50961500  0.08591700  1
  C  1218  1  0.87972400  0.48377800  0.07457200  1
  C  1219  1  0.90533170  0.48284070  0.07249700  1
  C  1220  1  0.92791770  0.50686170  0.08406800  1
  C  1221  1  0.90916070  0.46071870  0.06238200  1
  C  1222  1  0.93585770  0.46124270  0.06571700  1
  C  1223  1  0.95795970  0.48343870  0.07925700  1
  C  1224  1  0.95453870  0.50681970  0.08785500  1
  C  1225  1  0.86208700  0.51478200  0.08990200  1
  C  1226  1  0.83292000  0.49352400  0.08345200  1
  C  1227  1  0.82773300  0.46717900  0.07283200  1
  C  1228  1  0.85106800  0.46209900  0.06844100  1
  C  1241  1  0.91764270  0.52734570  0.09205100  1
  C  1246  1  0.35572000  0.10425100  0.61677900  1
  C  1247  1  0.38648400  0.11916500  0.61845100  1
  C  1248  1  0.39890600  0.12549100  0.59727500  1
  C  1249  1  0.37695600  0.11497300  0.58066900  1
  C  1250  1  0.38622300  0.11900300  0.55756600  1
  C  1251  1  0.41685700  0.13378700  0.55186400  1
  C  1252  1  0.43766400  0.14318200  0.56968200  1
  C  1253  1  0.42903500  0.13957100  0.59225500  1
  C  1254  1  0.40157500  0.12613100  0.63915400  1
  C  1255  1  0.38530900  0.11783100  0.65914100  1
  C  1256  1  0.35428000  0.10290400  0.65868900  1
  C  1257  1  0.33936500  0.09613600  0.63739300  1
  C  1258  1  0.32949400  0.11517000  0.58592500  1
  C  1259  1  0.30364900  0.09533500  0.57458500  1
  C  1260  1  0.30267900  0.06877600  0.57253700  1
  C  1261  1  0.32666100  0.07019000  0.58415400  1
  C  1262  1  0.28055600  0.04283000  0.56242300  1
  C  1263  1  0.28108500  0.01665700  0.56573500  1
  C  1264  1  0.30327300  0.01673700  0.57926000  1
  C  1265  1  0.32667000  0.04354000  0.58787100  1
  C  1266  1  0.33469200  0.14398800  0.58988600  1
  C  1267  1  0.31346200  0.15191900  0.58340700  1
  C  1268  1  0.28712700  0.13078100  0.57276600  1
  C  1269  1  0.28201300  0.10235100  0.56840200  1
  C  1282  1  0.34719700  0.10096000  0.59208400  1
  C  1287  1  0.05842400  0.10308370  0.61676100  1
  C  1288  1  0.04348800  0.11891070  0.61843400  1
  C  1289  1  0.03716500  0.12500970  0.59725800  1
  C  1290  1  0.04768400  0.11357970  0.58065000  1
  C  1291  1  0.04365400  0.11882170  0.55754700  1
  C  1292  1  0.02887200  0.13467300  0.55184900  1
  C  1293  1  0.01948000  0.14608600  0.56966900  1
  C  1294  1  0.02308400  0.14106000  0.59224000  1
  C  1295  1  0.03650100  0.12701570  0.63913700  1
  C  1296  1  0.04479600  0.11904570  0.65912500  1
  C  1297  1  0.05975800  0.10297770  0.65867200  1
  C  1298  1  0.06655100  0.09485470  0.63737400  1
  C  1299  1  0.04748900  0.06592170  0.58592400  1
  C  1300  1  0.06731500  0.05990400  0.57457800  1
  C  1301  1  0.09386900  0.08549200  0.57250900  1
  C  1302  1  0.09247100  0.10807070  0.58412000  1
  C  1303  1  0.11979300  0.08931900  0.56235500  1
  C  1304  1  0.14597200  0.11601600  0.56565900  1
  C  1305  1  0.14592900  0.13814500  0.57921400  1
  C  1306  1  0.11913100  0.13472170  0.58782500  1
  C  1307  1  0.01867000  0.04230670  0.58989000  1
  C  1308  1  0.01073900  0.01313870  0.58342800  1
  C  1309  1  0.03187800  0.00793500  0.57279800  1
  C  1310  1  0.06030500  0.03124700  0.56842100  1
  C  1323  1  0.06170600  0.09784170  0.59206600  1
  C  1328  1  0.05957700  0.80696900  0.61675900  1
  C  1329  1  0.04374300  0.77620600  0.61843500  1
  C  1330  1  0.03767200  0.76377800  0.59726100  1
  C  1331  1  0.04911900  0.78572200  0.58065000  1
  C  1332  1  0.04388100  0.77644700  0.55754900  1
  C  1333  1  0.02808500  0.74581300  0.55185100  1
  C  1334  1  0.01663200  0.72501200  0.56967200  1
  C  1335  1  0.02162900  0.73364700  0.59224400  1
  C  1336  1  0.03560800  0.76111900  0.63914100  1
  C  1337  1  0.04355800  0.77738800  0.65912600  1
  C  1338  1  0.05965500  0.80841800  0.65867200  1
  C  1339  1  0.06780900  0.82332700  0.63737300  1
  C  1340  1  0.09675900  0.83320600  0.58593700  1
  C  1341  1  0.10278300  0.85907800  0.57463700  1
  C  1342  1  0.07717800  0.86000100  0.57251200  1
  C  1343  1  0.05458900  0.83600300  0.58409800  1
  C  1344  1  0.07334500  0.88209200  0.56235200  1
  C  1345  1  0.04663900  0.88155700  0.56564700  1
  C  1346  1  0.02452100  0.85939700  0.57918900  1
  C  1347  1  0.02790500  0.83596400  0.58776100  1
  C  1348  1  0.12038000  0.82801000  0.58990300  1
  C  1349  1  0.14954200  0.84924800  0.58343300  1
  C  1350  1  0.15475000  0.87560400  0.57282400  1
  C  1351  1  0.13143200  0.88071100  0.56844600  1
  C  1364  1  0.06483500  0.81548700  0.59206400  1
  C  1369  1  0.98353370  0.94123570  0.89125500  1
  C  1371  1  0.96178270  0.89618170  0.91213200  1
  C  1372  1  0.97577770  0.88504670  0.89812700  1
  C  1374  1  0.99904773  0.93097273  0.87777600  1
  C  1377  1  0.03928000  0.97438900  0.86032400  1
  C  1381  1  0.98530170  0.96810570  0.88858700  1
  C  1383  1  0.96687870  0.85533670  0.89797300  1
  C  1385  1  0.26879800  0.17919100  0.89127300  1
  C  1387  1  0.24548000  0.20090900  0.91217000  1
  C  1388  1  0.22034200  0.18690900  0.89817000  1
  C  1390  1  0.24301800  0.16367000  0.87779900  1
  C  1393  1  0.24618200  0.12342800  0.86035200  1
  C  1397  1  0.29389300  0.17740300  0.88861100  1
  C  1399  1  0.19952400  0.19580100  0.89802800  1
  C  1401  1  0.22152700  0.89417100  0.89136800  1
  C  1403  1  0.26667500  0.91726000  0.91211700  1
  C  1404  1  0.27778900  0.94247100  0.89820600  1
  C  1406  1  0.23178200  0.91999900  0.87795200  1
  C  1409  1  0.18825500  0.91646700  0.86031900  1
  C  1413  1  0.19475700  0.86899500  0.88861100  1
  C  1415  1  0.30750000  0.96327500  0.89805300  1
  C  1417  1  0.99879173  0.40167273  0.39131300  1
  C  1419  1  0.02085200  0.44680600  0.41208100  1
  C  1420  1  0.00672500  0.45791500  0.39819600  1
  C  1422  1  0.98318070  0.41191770  0.37793000  1
  C  1425  1  0.94318870  0.36837270  0.36029800  1
  C  1429  1  0.99712773  0.37486673  0.38858100  1
  C  1431  1  0.01562900  0.48762400  0.39805600  1
  C  1433  1  0.71415300  0.16410400  0.39154600  1
  C  1435  1  0.73715000  0.14184100  0.41214500  1
  C  1436  1  0.76235100  0.15595800  0.39822700  1
  C  1438  1  0.73994900  0.17965900  0.37809700  1
  C  1441  1  0.73609200  0.21941300  0.36033000  1
  C  1445  1  0.68879500  0.16529700  0.38862500  1
  C  1447  1  0.78310800  0.14699700  0.39800000  1
  C  1449  1  0.76107600  0.44888200  0.39135300  1
  C  1451  1  0.71597700  0.42562900  0.41216900  1
  C  1452  1  0.70487700  0.40047100  0.39819600  1
  C  1454  1  0.75085000  0.42308800  0.37790300  1
  C  1457  1  0.79435600  0.42650900  0.36038900  1
  C  1461  1  0.78786300  0.47406700  0.38862700  1
  C  1463  1  0.67516700  0.37968200  0.39801200  1
  C  1465  1  0.71485800  0.40173600  0.09161100  1
  C  1467  1  0.73796200  0.44703200  0.07107300  1
  C  1468  1  0.76305700  0.45809500  0.08510300  1
  C  1470  1  0.74043300  0.41205800  0.10530900  1
  C  1473  1  0.73684500  0.36868000  0.12294500  1
  C  1477  1  0.68895300  0.37594600  0.09518900  1
  C  1479  1  0.78368500  0.48782900  0.08540800  1
  C  1481  1  0.76090200  0.16467100  0.09164400  1
  C  1483  1  0.71563000  0.14254000  0.07107800  1
  C  1484  1  0.70456800  0.15657000  0.08511100  1
  C  1486  1  0.75059700  0.17995200  0.10532900  1
  C  1489  1  0.79398700  0.21977000  0.12294200  1
  C  1493  1  0.78675300  0.16465500  0.09517000  1
  C  1495  1  0.67483000  0.14746900  0.08541400  1
  C  1497  1  0.99765673  0.44759073  0.09136500  1
  C  1499  1  0.02005400  0.42457600  0.07096300  1
  C  1500  1  0.00606800  0.39951400  0.08502700  1
  C  1502  1  0.98254970  0.42209170  0.10516100  1
  C  1505  1  0.94298570  0.42589670  0.12298800  1
  C  1509  1  0.99821073  0.47368473  0.09514100  1
  C  1511  1  0.01521400  0.37891500  0.08536400  1
  C  1513  1  0.26743200  0.94119600  0.59136500  1
  C  1515  1  0.24442200  0.89576300  0.57099100  1
  C  1516  1  0.21936400  0.88470100  0.58505500  1
  C  1518  1  0.24193800  0.93081600  0.60516400  1
  C  1521  1  0.24579100  0.97420100  0.62300900  1
  C  1525  1  0.29352000  0.96672600  0.59512600  1
  C  1527  1  0.19877600  0.85495900  0.58541900  1
  C  1529  1  0.22150200  0.17775100  0.59135100  1
  C  1531  1  0.26699800  0.20039800  0.57105200  1
  C  1532  1  0.27804900  0.18630800  0.58502300  1
  C  1534  1  0.23188300  0.16256100  0.60506900  1
  C  1537  1  0.18841000  0.12312700  0.62298000  1
  C  1541  1  0.19595300  0.17830000  0.59513400  1
  C  1543  1  0.30779300  0.19545900  0.58536800  1
  C  1545  1  0.98492070  0.89535570  0.59135600  1
  C  1547  1  0.96228470  0.91821170  0.57105400  1
  C  1548  1  0.97635270  0.94333870  0.58504000  1
  C  1550  1  0.00009400  0.92091600  0.60508600  1
  C  1553  1  0.03956900  0.91693200  0.62296400  1
  C  1557  1  0.98438370  0.86927870  0.59513200  1
  C  1559  1  0.96719870  0.96392970  0.58538500  1
  C  1561  1  0.07312600  0.08783770  0.71655300  1
  C  1563  1  0.05666700  0.10850770  0.74575900  1
  C  1564  1  0.06907800  0.09933070  0.76288800  1
  C  1566  1  0.08521900  0.07799500  0.73392700  1
  C  1569  1  0.10906300  0.05443800  0.71288300  1
  C  1573  1  0.07397600  0.08433770  0.69307000  1
  C  1575  1  0.06989600  0.10838170  0.78506600  1
  C  1577  1  0.32579300  0.08963000  0.71657000  1
  C  1579  1  0.36291400  0.10604800  0.74577900  1
  C  1580  1  0.34132100  0.09360700  0.76290300  1
  C  1582  1  0.30385100  0.07750200  0.73393700  1
  C  1585  1  0.25647200  0.05360200  0.71287100  1
  C  1589  1  0.32144400  0.08883800  0.69309300  1
  C  1591  1  0.34952600  0.09273500  0.78508000  1
  C  1593  1  0.07491500  0.83689600  0.71655500  1
  C  1595  1  0.05420400  0.79978300  0.74576800  1
  C  1596  1  0.06336900  0.82138100  0.76289000  1
  C  1598  1  0.08473400  0.85884300  0.73391900  1
  C  1601  1  0.10816600  0.90620200  0.71283100  1
  C  1605  1  0.07848900  0.84124600  0.69307700  1
  C  1607  1  0.05430800  0.81316500  0.78506800  1
  C  1609  1  0.90938670  0.25503870  0.21654700  1
  C  1611  1  0.92584470  0.23436070  0.24574400  1
  C  1612  1  0.91342570  0.24352570  0.26287600  1
  C  1614  1  0.89728000  0.26486600  0.23392100  1
  C  1617  1  0.87341600  0.28839100  0.21286800  1
  C  1621  1  0.90854170  0.25855970  0.19306900  1
  C  1623  1  0.91260170  0.23447070  0.28505200  1
  C  1625  1  0.65671300  0.25324000  0.21656500  1
  C  1627  1  0.61958200  0.23681700  0.24576600  1
  C  1628  1  0.64117100  0.24924300  0.26289500  1
  C  1630  1  0.67864900  0.26535800  0.23393600  1
  C  1633  1  0.72602500  0.28927900  0.21286700  1
  C  1637  1  0.66107700  0.25403700  0.19309000  1
  C  1639  1  0.63294400  0.25008600  0.28507000  1
  C  1641  1  0.90756570  0.50595170  0.21654300  1
  C  1643  1  0.92827370  0.54307670  0.24574800  1
  C  1644  1  0.91910770  0.52148470  0.26287300  1
  C  1646  1  0.89775000  0.48401400  0.23391200  1
  C  1649  1  0.87433200  0.43664900  0.21283100  1
  C  1653  1  0.90398870  0.50159170  0.19306800  1
  C  1655  1  0.92818670  0.52971270  0.28504600  1
  C  1657  1  0.99612773  0.15267273  0.97647400  1
  C  1659  1  0.01310200  0.19935700  0.99473300  1
  C  1660  1  0.98556470  0.18929670  0.00537600  1
  C  1662  1  0.96829770  0.14211570  0.98726300  1
  C  1665  1  0.94400370  0.08903270  0.97998600  1
  C  1669  1  0.00034100  0.13906500  0.95792400  1
  C  1671  1  0.98237970  0.20526770  0.02282800  1
  C  1673  1  0.46761600  0.16657200  0.97647900  1
  C  1675  1  0.49731800  0.14959400  0.99474600  1
  C  1676  1  0.51479800  0.17713000  0.00538600  1
  C  1678  1  0.48489300  0.19440400  0.98726400  1
  C  1681  1  0.45610400  0.21869300  0.97999200  1
  C  1685  1  0.44980300  0.16235800  0.95792400  1
  C  1687  1  0.53395000  0.18031000  0.02284100  1
  C  1689  1  0.01003100  0.69509200  0.97647500  1
  C  1691  1  0.96334670  0.66538970  0.99473400  1
  C  1692  1  0.97340770  0.64791870  0.00538400  1
  C  1694  1  0.02058700  0.67782200  0.98726700  1
  C  1697  1  0.07366600  0.70660600  0.97997800  1
  C  1701  1  0.02362900  0.71290200  0.95791900  1
  C  1703  1  0.95742470  0.62873870  0.02282400  1
  C  1705  1  0.98638670  0.19019670  0.47645000  1
  C  1707  1  0.96940270  0.14353070  0.49474200  1
  C  1708  1  0.99694273  0.15359973  0.50538000  1
  C  1710  1  0.01421600  0.20076200  0.48723900  1
  C  1713  1  0.03849500  0.25384000  0.47998300  1
  C  1717  1  0.98219670  0.20379370  0.45788500  1
  C  1719  1  0.00014800  0.13766800  0.52285000  1
  C  1721  1  0.51485300  0.17628100  0.47645700  1
  C  1723  1  0.48516800  0.19325700  0.49475400  1
  C  1724  1  0.46770400  0.16571700  0.50539400  1
  C  1726  1  0.49759800  0.14845200  0.48724700  1
  C  1729  1  0.52640400  0.12418100  0.47998600  1
  C  1733  1  0.53264300  0.18048100  0.45789400  1
  C  1735  1  0.44857000  0.16251000  0.52286500  1
  C  1737  1  0.97245170  0.64777870  0.47645000  1
  C  1739  1  0.01912200  0.67745700  0.49473700  1
  C  1740  1  0.00905800  0.69492600  0.50538400  1
  C  1742  1  0.96189070  0.66504270  0.48724700  1
  C  1745  1  0.90880970  0.63625470  0.47998100  1
  C  1749  1  0.95885170  0.62999170  0.45788400  1
  C  1751  1  0.02500500  0.71406600  0.52285000  1
  N  38  1  0.57938900  0.35248200  0.89878300  1
  N  39  1  0.63567000  0.45471600  0.80302200  1
  N  40  1  0.59825600  0.50495200  0.95146700  1
  N  41  1  0.74405000  0.54286200  0.89799700  1
  N  79  1  0.86701100  0.51893400  0.89884400  1
  N  80  1  0.91298300  0.46262100  0.80303200  1
  N  81  1  0.00064400  0.50005400  0.95147000  1
  N  82  1  0.89288900  0.35436300  0.89802600  1
  N  120  1  0.74559500  0.23099300  0.89849700  1
  N  121  1  0.64357800  0.18534200  0.80303000  1
  N  122  1  0.59333700  0.09766800  0.95146500  1
  N  123  1  0.55543500  0.20555700  0.89795400  1
  N  161  1  0.54876600  0.71577400  0.39856700  1
  N  162  1  0.49249000  0.61370700  0.30301300  1
  N  163  1  0.52991700  0.56344800  0.45143500  1
  N  164  1  0.38423000  0.52549800  0.39797400  1
  N  202  1  0.26015900  0.54912600  0.39815200  1
  N  203  1  0.21514400  0.60581700  0.30303900  1
  N  204  1  0.12741200  0.56839000  0.45144200  1
  N  205  1  0.23542300  0.71417600  0.39800300  1
  N  243  1  0.38246400  0.83747300  0.39874200  1
  N  244  1  0.48456500  0.88312700  0.30300800  1
  N  245  1  0.53482800  0.97082100  0.45142800  1
  N  246  1  0.57271400  0.86296900  0.39803900  1
  N  284  1  0.25797000  0.71466400  0.08679800  1
  N  285  1  0.21215900  0.60824700  0.17940200  1
  N  286  1  0.12658700  0.56822200  0.03108500  1
  N  287  1  0.23494400  0.52584200  0.08517600  1
  N  325  1  0.38352100  0.54778400  0.08667800  1
  N  326  1  0.49003500  0.60825700  0.17938800  1
  N  327  1  0.53008300  0.56273200  0.03107500  1
  N  328  1  0.57246900  0.71340700  0.08516500  1
  N  366  1  0.55106100  0.84108000  0.08721100  1
  N  367  1  0.49000600  0.88612200  0.17938100  1
  N  368  1  0.53553600  0.97170500  0.03107000  1
  N  369  1  0.38480400  0.86332100  0.08516900  1
  N  407  1  0.87098600  0.35412000  0.58721900  1
  N  408  1  0.91602700  0.46027800  0.67941300  1
  N  409  1  0.00157500  0.50018000  0.53109600  1
  N  410  1  0.89333200  0.54266700  0.58513600  1
  N  448  1  0.74419400  0.52114800  0.58717900  1
  N  449  1  0.63801200  0.46011400  0.67939500  1
  N  450  1  0.59809200  0.50575100  0.53108100  1
  N  451  1  0.55560400  0.35501400  0.58515700  1
  N  489  1  0.57711700  0.22736400  0.58718700  1
  N  490  1  0.63813700  0.18228900  0.67939600  1
  N  491  1  0.59256200  0.09669200  0.53109100  1
  N  492  1  0.74330700  0.20502800  0.58518200  1
  N  494  1  0.53881700  0.28629400  0.90809000  1
  N  497  1  0.56627200  0.26577300  0.88140100  1
  N  510  1  0.84142900  0.55950500  0.90811800  1
  N  513  1  0.79344500  0.53204400  0.88143500  1
  N  526  1  0.81215100  0.25698900  0.90807700  1
  N  529  1  0.83263200  0.30511200  0.88156900  1
  N  542  1  0.58939100  0.78225000  0.40802500  1
  N  545  1  0.56169800  0.80272600  0.38156500  1
  N  558  1  0.28694200  0.50896700  0.40814700  1
  N  561  1  0.33505500  0.53666500  0.38165000  1
  N  574  1  0.31612500  0.81153100  0.40813000  1
  N  577  1  0.29567700  0.76349800  0.38151500  1
  N  590  1  0.28768400  0.78251000  0.07508100  1
  N  593  1  0.33558900  0.80290300  0.10181000  1
  N  606  1  0.31576200  0.50951700  0.07509100  1
  N  609  1  0.29537400  0.53703500  0.10182200  1
  N  622  1  0.58859600  0.81042900  0.07492700  1
  N  625  1  0.56119300  0.76260200  0.10171900  1
  N  638  1  0.84031000  0.28590500  0.57494000  1
  N  641  1  0.79248700  0.26550300  0.60173500  1
  N  654  1  0.81244700  0.55882200  0.57501000  1
  N  657  1  0.83282900  0.53123600  0.60162800  1
  N  670  1  0.53947800  0.25798900  0.57500800  1
  N  673  1  0.56702900  0.30593600  0.60165000  1
  N  686  1  0.63214600  0.46534400  0.72386200  1
  N  689  1  0.65559100  0.44737600  0.75588900  1
  N  702  1  0.92714100  0.46622000  0.72388200  1
  N  705  1  0.88571700  0.44271000  0.75589700  1
  N  718  1  0.63301300  0.17116600  0.72386800  1
  N  721  1  0.65094400  0.21259800  0.75588200  1
  N  734  1  0.49602300  0.60311300  0.22384900  1
  N  737  1  0.47255400  0.62105100  0.25588100  1
  N  750  1  0.20101400  0.60223000  0.22386900  1
  N  753  1  0.24242800  0.62571700  0.25589600  1
  N  766  1  0.49512000  0.89726400  0.22385000  1
  N  769  1  0.47719200  0.85584400  0.25587400  1
  N  782  1  0.58978200  0.54398700  0.98052600  1
  N  785  1  0.53757600  0.52356600  0.00128600  1
  N  798  1  0.04813500  0.50853100  0.98053800  1
  N  801  1  0.07992600  0.56073800  0.00129100  1
  N  814  1  0.55433200  0.05018500  0.98052600  1
  N  817  1  0.57475200  0.01840400  0.00129500  1
  N  830  1  0.53837900  0.52446600  0.48051800  1
  N  833  1  0.59059000  0.54490300  0.50127700  1
  N  846  1  0.07999000  0.55990000  0.48052800  1
  N  849  1  0.04822800  0.50768900  0.50128900  1
  N  862  1  0.57379900  0.01825400  0.48051300  1
  N  865  1  0.55337000  0.05002600  0.50128600  1
  N  914  1  0.00656300  0.98969300  0.89878300  1
  N  915  1  0.06284400  0.09192670  0.80302200  1
  N  916  1  0.02543000  0.14216300  0.95146700  1
  N  917  1  0.17122400  0.18007270  0.89799700  1
  N  955  1  0.29418500  0.15614500  0.89884400  1
  N  956  1  0.34015700  0.09983200  0.80303200  1
  N  957  1  0.42781800  0.13726500  0.95147000  1
  N  958  1  0.32006300  0.99157400  0.89802600  1
  N  996  1  0.17276900  0.86820400  0.89849700  1
  N  997  1  0.07075200  0.82255300  0.80303000  1
  N  998  1  0.02051100  0.73487900  0.95146500  1
  N  999  1  0.98260870  0.84276770  0.89795400  1
  N  1037  1  0.97593970  0.35298470  0.39856700  1
  N  1038  1  0.91966370  0.25091770  0.30301300  1
  N  1039  1  0.95709070  0.20065870  0.45143500  1
  N  1040  1  0.81140400  0.16270900  0.39797400  1
  N  1078  1  0.68733300  0.18633700  0.39815200  1
  N  1079  1  0.64231800  0.24302800  0.30303900  1
  N  1080  1  0.55458600  0.20560100  0.45144200  1
  N  1081  1  0.66259700  0.35138700  0.39800300  1
  N  1119  1  0.80963800  0.47468400  0.39874200  1
  N  1120  1  0.91173870  0.52033770  0.30300800  1
  N  1121  1  0.96200170  0.60803170  0.45142800  1
  N  1122  1  0.99988773  0.50017973  0.39803900  1
  N  1160  1  0.68514400  0.35181067  0.08679800  1
  N  1161  1  0.63933300  0.24545800  0.17940200  1
  N  1162  1  0.55376100  0.20543300  0.03108500  1
  N  1163  1  0.66211800  0.16305300  0.08517600  1
  N  1201  1  0.81069500  0.18499500  0.08667800  1
  N  1202  1  0.91720870  0.24546770  0.17938800  1
  N  1203  1  0.95725670  0.19994270  0.03107500  1
  N  1204  1  0.99964273  0.35061773  0.08516500  1
  N  1242  1  0.97823470  0.47829070  0.08721100  1
  N  1243  1  0.91717970  0.52333270  0.17938100  1
  N  1244  1  0.96270970  0.60891570  0.03107000  1
  N  1245  1  0.81197800  0.50053200  0.08516900  1
  N  1283  1  0.29816000  0.99133100  0.58721900  1
  N  1284  1  0.34320100  0.09748900  0.67941300  1
  N  1285  1  0.42874900  0.13739100  0.53109600  1
  N  1286  1  0.32050600  0.17987800  0.58513600  1
  N  1324  1  0.17136800  0.15835900  0.58717900  1
  N  1325  1  0.06518600  0.09732470  0.67939500  1
  N  1326  1  0.02526600  0.14296200  0.53108100  1
  N  1327  1  0.98277770  0.99222440  0.58515700  1
  N  1365  1  0.00429100  0.86457500  0.58718700  1
  N  1366  1  0.06531100  0.81950000  0.67939600  1
  N  1367  1  0.01973600  0.73390300  0.53109100  1
  N  1368  1  0.17048100  0.84223900  0.58518200  1
  N  1370  1  0.96599070  0.92350470  0.90809000  1
  N  1373  1  0.99344573  0.90298373  0.88140100  1
  N  1386  1  0.26860300  0.19671600  0.90811800  1
  N  1389  1  0.22061900  0.16925500  0.88143500  1
  N  1402  1  0.23932500  0.89420000  0.90807700  1
  N  1405  1  0.25980600  0.94232300  0.88156900  1
  N  1418  1  0.01656500  0.41946100  0.40802500  1
  N  1421  1  0.98887170  0.43993670  0.38156500  1
  N  1434  1  0.71411600  0.14617800  0.40814700  1
  N  1437  1  0.76222900  0.17387600  0.38165000  1
  N  1450  1  0.74329900  0.44874200  0.40813000  1
  N  1453  1  0.72285100  0.40070900  0.38151500  1
  N  1466  1  0.71485800  0.41972100  0.07508100  1
  N  1469  1  0.76276300  0.44011400  0.10181000  1
  N  1482  1  0.74293600  0.14672800  0.07509100  1
  N  1485  1  0.72254800  0.17424600  0.10182200  1
  N  1498  1  0.01577000  0.44764000  0.07492700  1
  N  1501  1  0.98836670  0.39981270  0.10171900  1
  N  1514  1  0.26748400  0.92311600  0.57494000  1
  N  1517  1  0.21966100  0.90271400  0.60173500  1
  N  1530  1  0.23962100  0.19603300  0.57501000  1
  N  1533  1  0.26000300  0.16844700  0.60162800  1
  N  1546  1  0.96665170  0.89519970  0.57500800  1
  N  1549  1  0.99420273  0.94314673  0.60165000  1
  N  1562  1  0.05932000  0.10255470  0.72386200  1
  N  1565  1  0.08276500  0.08458670  0.75588900  1
  N  1578  1  0.35431500  0.10343100  0.72388200  1
  N  1581  1  0.31289100  0.07992100  0.75589700  1
  N  1594  1  0.06018700  0.80837700  0.72386800  1
  N  1597  1  0.07811800  0.84980900  0.75588200  1
  N  1610  1  0.92319670  0.24032370  0.22384900  1
  N  1613  1  0.89972800  0.25826200  0.25588100  1
  N  1626  1  0.62818800  0.23944100  0.22386900  1
  N  1629  1  0.66960200  0.26292800  0.25589600  1
  N  1642  1  0.92229370  0.53447470  0.22385000  1
  N  1645  1  0.90436570  0.49305470  0.25587400  1
  N  1658  1  0.01695600  0.18119800  0.98052600  1
  N  1661  1  0.96474970  0.16077670  0.00128600  1
  N  1674  1  0.47530900  0.14574200  0.98053800  1
  N  1677  1  0.50710000  0.19794900  0.00129100  1
  N  1690  1  0.98150570  0.68739570  0.98052600  1
  N  1693  1  0.00192600  0.65561500  0.00129500  1
  N  1706  1  0.96555270  0.16167670  0.48051800  1
  N  1709  1  0.01776400  0.18211400  0.50127700  1
  N  1722  1  0.50716400  0.19711100  0.48052800  1
  N  1725  1  0.47540200  0.14490000  0.50128900  1
  N  1738  1  0.00097300  0.65546500  0.48051300  1
  N  1741  1  0.98054370  0.68723670  0.50128600  1
  O  500  1  0.58861600  0.30713500  0.85895900  1
  O  516  1  0.81247900  0.50972400  0.85898000  1
  O  532  1  0.79129100  0.28632200  0.85916700  1
  O  548  1  0.53911000  0.76139300  0.35916300  1
  O  564  1  0.31631700  0.55928900  0.35930400  1
  O  580  1  0.33704800  0.78246200  0.35910400  1
  O  596  1  0.31629100  0.76153300  0.12429300  1
  O  612  1  0.33675100  0.55910800  0.12430200  1
  O  628  1  0.53915400  0.78191000  0.12420900  1
  O  644  1  0.81178500  0.30685600  0.62421000  1
  O  660  1  0.79148600  0.50896500  0.62406100  1
  O  676  1  0.58929800  0.28685200  0.62407800  1
  O  692  1  0.67336100  0.42593400  0.73305900  1
  O  708  1  0.84651300  0.42495900  0.73305700  1
  O  724  1  0.67238600  0.25179500  0.73302800  1
  O  740  1  0.45475500  0.64246800  0.23304900  1
  O  756  1  0.28163900  0.64348800  0.23305700  1
  O  772  1  0.45575900  0.81663800  0.23302700  1
  O  788  1  0.51580000  0.47827100  0.98426600  1
  O  804  1  0.05641400  0.58251700  0.98425600  1
  O  820  1  0.62004500  0.04191600  0.98426600  1
  O  836  1  0.61236600  0.59017800  0.48421800  1
  O  852  1  0.07173400  0.48592100  0.48422600  1
  O  868  1  0.50809000  0.02653200  0.48423600  1
  O  1376  1  0.01579000  0.94434600  0.85895900  1
  O  1392  1  0.23965300  0.14693500  0.85898000  1
  O  1408  1  0.21846500  0.92353300  0.85916700  1
  O  1424  1  0.96628370  0.39860370  0.35916300  1
  O  1440  1  0.74349100  0.19650000  0.35930400  1
  O  1456  1  0.76422200  0.41967300  0.35910400  1
  O  1472  1  0.74346500  0.39874400  0.12429300  1
  O  1488  1  0.76392500  0.19631900  0.12430200  1
  O  1504  1  0.96632770  0.41912070  0.12420900  1
  O  1520  1  0.23895900  0.94406700  0.62421000  1
  O  1536  1  0.21866000  0.14617600  0.62406100  1
  O  1552  1  0.01647200  0.92406300  0.62407800  1
  O  1568  1  0.10053500  0.06314500  0.73305900  1
  O  1584  1  0.27368700  0.06217000  0.73305700  1
  O  1600  1  0.09956000  0.88900600  0.73302800  1
  O  1616  1  0.88192900  0.27967900  0.23304900  1
  O  1632  1  0.70881300  0.28069900  0.23305700  1
  O  1648  1  0.88293300  0.45384900  0.23302700  1
  O  1664  1  0.94297370  0.11548170  0.98426600  1
  O  1680  1  0.48358800  0.21972800  0.98425600  1
  O  1696  1  0.04721900  0.67912700  0.98426600  1
  O  1712  1  0.03954000  0.22738900  0.48421800  1
  O  1728  1  0.49890800  0.12313200  0.48422600  1
  O  1744  1  0.93526370  0.66374270  0.48423600  1
