# generated using pymatgen
data_H8C13N5O2
_symmetry_space_group_name_H-M   'P 1'
_cell_length_a   40.15450000
_cell_length_b   46.25000000
_cell_length_c   61.11020000
_cell_angle_alpha   89.99310000
_cell_angle_beta   89.45440000
_cell_angle_gamma   89.27900000
_symmetry_Int_Tables_number   1
_chemical_formula_structural   H8C13N5O2
_chemical_formula_sum   'H512 C832 N320 O128'
_cell_volume   113476.40980956
_cell_formula_units_Z   64
loop_
 _symmetry_equiv_pos_site_id
 _symmetry_equiv_pos_as_xyz
  1  'x, y, z'
loop_
 _atom_site_type_symbol
 _atom_site_label
 _atom_site_symmetry_multiplicity
 _atom_site_fract_x
 _atom_site_fract_y
 _atom_site_fract_z
 _atom_site_occupancy
  H  7  1  0.13144200  0.16555300  0.84150200  1
  H  8  1  0.14756400  0.18798300  0.90712000  1
  H  15  1  0.03000500  0.08930300  0.80431800  1
  H  16  1  0.07981500  0.09498100  0.86371100  1
  H  19  1  0.06240600  0.11820200  0.89944800  1
  H  20  1  0.08772700  0.17857200  0.81311600  1
  H  25  1  0.06565000  0.04653100  0.84328400  1
  H  26  1  0.07139900  0.16099100  0.92837300  1
  H  27  1  0.18115200  0.19172400  0.85160700  1
  H  28  1  0.03961500  0.16421600  0.78769400  1
  H  35  1  0.85745500  0.82260800  0.84259300  1
  H  36  1  0.84059300  0.79896300  0.90812300  1
  H  43  1  0.95878500  0.89958900  0.80525100  1
  H  44  1  0.90761500  0.89309000  0.86475900  1
  H  47  1  0.92537800  0.86938300  0.90033500  1
  H  48  1  0.90215900  0.80955700  0.81422900  1
  H  53  1  0.91951900  0.94185400  0.84131500  1
  H  54  1  0.91676600  0.82518300  0.92884100  1
  H  55  1  0.80785700  0.79628800  0.85265000  1
  H  56  1  0.95024300  0.82456500  0.78849500  1
  H  63  1  0.12938700  0.82118400  0.62816900  1
  H  64  1  0.14646800  0.79934300  0.56223000  1
  H  71  1  0.02492400  0.89684300  0.66645100  1
  H  72  1  0.07838200  0.89198700  0.60743700  1
  H  75  1  0.05941100  0.86927000  0.57160000  1
  H  76  1  0.08392800  0.80698200  0.65680600  1
  H  81  1  0.06490300  0.93994500  0.62937200  1
  H  82  1  0.06905800  0.82642400  0.54214200  1
  H  83  1  0.18085300  0.79710800  0.61705500  1
  H  84  1  0.02678000  0.82113800  0.67934000  1
  H  91  1  0.86005800  0.16831500  0.62898800  1
  H  92  1  0.84346000  0.18911100  0.56301700  1
  H  99  1  0.96332200  0.09168600  0.66666667  1
  H  100  1  0.90959700  0.09654700  0.60841400  1
  H  103  1  0.92954400  0.11851100  0.57217000  1
  H  104  1  0.90601500  0.18232400  0.65693800  1
  H  109  1  0.92114000  0.04857800  0.63457300  1
  H  110  1  0.92042600  0.16084700  0.54222600  1
  H  111  1  0.80919500  0.19334700  0.61830500  1
  H  112  1  0.96257800  0.16772800  0.67909800  1
  H  119  1  0.85752700  0.82187500  0.12938500  1
  H  120  1  0.84046200  0.79964600  0.06386300  1
  H  127  1  0.95874300  0.89788100  0.16642500  1
  H  128  1  0.90915100  0.89217300  0.10695100  1
  H  131  1  0.92614200  0.86900900  0.07115700  1
  H  132  1  0.90120700  0.80857200  0.15756000  1
  H  137  1  0.92317200  0.94061100  0.12745900  1
  H  138  1  0.91613300  0.82693500  0.04186900  1
  H  139  1  0.80794600  0.79538500  0.11970100  1
  H  140  1  0.94888500  0.82302600  0.18312400  1
  H  147  1  0.13111500  0.16394900  0.12826100  1
  H  148  1  0.14898400  0.18709600  0.06277200  1
  H  155  1  0.03021200  0.08739400  0.16568400  1
  H  156  1  0.08115000  0.09372700  0.10607700  1
  H  159  1  0.06352700  0.11725400  0.07041100  1
  H  160  1  0.08626000  0.17758200  0.15633100  1
  H  165  1  0.06973400  0.04500400  0.13042800  1
  H  166  1  0.07324000  0.16028000  0.04130900  1
  H  167  1  0.18173200  0.18906000  0.11810900  1
  H  168  1  0.03816200  0.16263400  0.18207600  1
  H  175  1  0.85911700  0.16573600  0.34240100  1
  H  176  1  0.84107300  0.18738700  0.40824400  1
  H  183  1  0.96397700  0.09080800  0.30435600  1
  H  184  1  0.91068100  0.09571800  0.36342900  1
  H  187  1  0.92950500  0.11871200  0.39918300  1
  H  188  1  0.90460200  0.18048600  0.31390300  1
  H  193  1  0.92422300  0.04779400  0.34174100  1
  H  194  1  0.91846600  0.16080800  0.42900400  1
  H  195  1  0.80658900  0.18847800  0.35358600  1
  H  196  1  0.96164100  0.16650000  0.29126900  1
  H  203  1  0.12894400  0.82030100  0.34152200  1
  H  204  1  0.14660600  0.79995700  0.40741200  1
  H  211  1  0.02574900  0.89606500  0.30377200  1
  H  212  1  0.07924300  0.89147200  0.36211300  1
  H  215  1  0.05931700  0.86949800  0.39842200  1
  H  216  1  0.08273400  0.80540400  0.31391500  1
  H  221  1  0.06798200  0.93931400  0.33496300  1
  H  222  1  0.06973600  0.82821600  0.42888600  1
  H  223  1  0.18148400  0.79753000  0.35256300  1
  H  224  1  0.02599100  0.81993700  0.29172300  1
  H  231  1  0.63092100  0.66706100  0.84099300  1
  H  232  1  0.64585300  0.69055500  0.90653600  1
  H  239  1  0.52969500  0.58943400  0.80414700  1
  H  240  1  0.58027600  0.59507900  0.86325100  1
  H  243  1  0.56373900  0.61790700  0.89930300  1
  H  244  1  0.58739600  0.67880400  0.81259100  1
  H  249  1  0.56552100  0.54660800  0.84301100  1
  H  250  1  0.57122600  0.66260100  0.92781400  1
  H  251  1  0.67494100  0.70047300  0.85032700  1
  H  252  1  0.53966700  0.66422900  0.78731200  1
  H  259  1  0.35733900  0.32139300  0.84232700  1
  H  260  1  0.34117600  0.29785900  0.90794900  1
  H  267  1  0.45779800  0.39995900  0.80492500  1
  H  268  1  0.40588800  0.39379900  0.86416700  1
  H  271  1  0.42279400  0.37108300  0.90022500  1
  H  272  1  0.40194000  0.30960800  0.81401100  1
  H  277  1  0.41795600  0.44248000  0.84013300  1
  H  278  1  0.41567400  0.32582700  0.92869700  1
  H  279  1  0.31605400  0.28470700  0.85187100  1
  H  280  1  0.45001100  0.32470700  0.78855100  1
  H  287  1  0.62810400  0.31876000  0.62821000  1
  H  288  1  0.64398500  0.29613300  0.56229900  1
  H  295  1  0.52462600  0.39663700  0.66631200  1
  H  296  1  0.57882500  0.39187100  0.60759900  1
  H  299  1  0.56127800  0.37016800  0.57123000  1
  H  300  1  0.58303900  0.30650700  0.65693500  1
  H  305  1  0.56470400  0.43982100  0.62922500  1
  H  306  1  0.56881300  0.32561400  0.54210800  1
  H  307  1  0.67255700  0.28568600  0.61832800  1
  H  308  1  0.52639400  0.32095500  0.67922700  1
  H  315  1  0.36034800  0.66980700  0.62898900  1
  H  316  1  0.34479800  0.69072000  0.56293700  1
  H  323  1  0.46239900  0.59126700  0.66682400  1
  H  324  1  0.40794600  0.59583300  0.60888400  1
  H  327  1  0.42699000  0.61658400  0.57216000  1
  H  328  1  0.40621900  0.68234300  0.65690400  1
  H  333  1  0.41978800  0.54795200  0.63558400  1
  H  334  1  0.41986300  0.65962400  0.54220400  1
  H  335  1  0.31896600  0.70714100  0.61841300  1
  H  336  1  0.46275700  0.66733900  0.67873300  1
  H  343  1  0.35714000  0.32015900  0.12909900  1
  H  344  1  0.34055800  0.29838500  0.06342000  1
  H  351  1  0.45780400  0.39840300  0.16586900  1
  H  352  1  0.40775100  0.39225400  0.10659400  1
  H  355  1  0.42362200  0.37002400  0.07057800  1
  H  356  1  0.40017000  0.30908300  0.15779400  1
  H  361  1  0.42470900  0.44001000  0.12311000  1
  H  362  1  0.41473300  0.32621400  0.04155500  1
  H  363  1  0.31583800  0.28343100  0.11950400  1
  H  364  1  0.44790800  0.32377700  0.18298000  1
  H  371  1  0.63037300  0.66558100  0.12740500  1
  H  372  1  0.64784700  0.69045500  0.06224600  1
  H  379  1  0.52081100  0.59137600  0.16190500  1
  H  380  1  0.57251900  0.59755700  0.10270500  1
  H  383  1  0.56085600  0.62209000  0.06791300  1
  H  384  1  0.59026800  0.67488800  0.15812300  1
  H  389  1  0.52559000  0.56185500  0.10917700  1
  H  390  1  0.57298000  0.66647300  0.04044200  1
  H  391  1  0.67598400  0.69737400  0.11873700  1
  H  392  1  0.54043200  0.66262200  0.18267900  1
  H  399  1  0.36041200  0.66905600  0.34222500  1
  H  400  1  0.34286300  0.68986400  0.40826500  1
  H  407  1  0.46338100  0.59070900  0.30402700  1
  H  408  1  0.40892900  0.59524500  0.36264000  1
  H  411  1  0.42584300  0.61614600  0.39924300  1
  H  412  1  0.40563900  0.68104000  0.31365600  1
  H  417  1  0.42284000  0.54737100  0.34057100  1
  H  418  1  0.41735800  0.65925700  0.42909400  1
  H  419  1  0.32028500  0.70781900  0.35300000  1
  H  420  1  0.46251600  0.66641100  0.29151500  1
  H  427  1  0.62726800  0.31686100  0.34146300  1
  H  428  1  0.64392000  0.29637400  0.40746100  1
  H  435  1  0.52550900  0.39600400  0.30381900  1
  H  436  1  0.57973700  0.39124700  0.36182700  1
  H  439  1  0.56198400  0.37079500  0.39876000  1
  H  440  1  0.58187900  0.30505000  0.31338600  1
  H  445  1  0.56769500  0.43920100  0.33604300  1
  H  446  1  0.56976900  0.32715100  0.42887600  1
  H  447  1  0.67081000  0.28268800  0.35136500  1
  H  448  1  0.52584500  0.32002000  0.29143600  1
  H  455  1  0.06262300  0.16108200  0.96808400  1
  H  459  1  0.17550400  0.13464200  0.02962200  1
  H  460  1  0.21374500  0.14705200  0.02559600  1
  H  469  1  0.92592900  0.82548100  0.96818800  1
  H  473  1  0.81426000  0.85312400  0.03162800  1
  H  474  1  0.77576400  0.84118400  0.02830400  1
  H  483  1  0.05975900  0.82724300  0.50269700  1
  H  487  1  0.17203200  0.85040000  0.43913700  1
  H  488  1  0.21022000  0.83691200  0.44245600  1
  H  497  1  0.92933900  0.16140800  0.50242700  1
  H  501  1  0.81670900  0.13627700  0.44098400  1
  H  502  1  0.77831800  0.14919500  0.44499700  1
  H  511  1  0.56310600  0.66938000  0.96738400  1
  H  515  1  0.66645300  0.62204800  0.02726400  1
  H  516  1  0.70714000  0.62672400  0.02377000  1
  H  525  1  0.42412800  0.31990100  0.96801300  1
  H  529  1  0.32127500  0.36786400  0.02843900  1
  H  530  1  0.28054700  0.36330000  0.02566800  1
  H  539  1  0.56004900  0.32044700  0.50261000  1
  H  543  1  0.66343900  0.36519100  0.44237500  1
  H  544  1  0.70410200  0.35970000  0.44531100  1
  H  553  1  0.42858800  0.66345300  0.50233900  1
  H  557  1  0.32004700  0.62633300  0.44397700  1
  H  558  1  0.28010000  0.63464700  0.44795900  1
  H  567  1  0.04245600  0.00126300  0.81642700  1
  H  571  1  0.95249100  0.95225100  0.88314300  1
  H  572  1  0.91778500  0.96803200  0.89276400  1
  H  581  1  0.04359000  0.98597500  0.65306200  1
  H  585  1  0.95000300  0.03798800  0.58974500  1
  H  586  1  0.91465600  0.02311100  0.58154200  1
  H  595  1  0.94531200  0.98633500  0.15293400  1
  H  599  1  0.03945100  0.03347900  0.08790800  1
  H  600  1  0.07468800  0.01740900  0.07947800  1
  H  609  1  0.94444100  0.00133000  0.31890100  1
  H  613  1  0.04196000  0.95068300  0.38034500  1
  H  614  1  0.07784100  0.96569700  0.38733500  1
  H  623  1  0.54335900  0.50064900  0.81801100  1
  H  627  1  0.44777300  0.45459500  0.88243100  1
  H  628  1  0.41241500  0.47081600  0.89046900  1
  H  637  1  0.54415900  0.48638500  0.65162300  1
  H  641  1  0.44589300  0.53614500  0.59043100  1
  H  642  1  0.41010400  0.52088800  0.58353500  1
  H  651  1  0.44056300  0.49108400  0.12641200  1
  H  655  1  0.58556800  0.52139200  0.12533200  1
  H  656  1  0.61402400  0.50412100  0.14017500  1
  H  665  1  0.44475600  0.50133200  0.31727400  1
  H  669  1  0.53859000  0.44957900  0.38056600  1
  H  670  1  0.57386200  0.46456500  0.38879100  1
  H  679  1  0.23275100  0.21975400  0.84610000  1
  H  683  1  0.26524900  0.31820900  0.90666300  1
  H  684  1  0.25891900  0.31655700  0.93355400  1
  H  693  1  0.75707700  0.76842200  0.84639300  1
  H  697  1  0.72153400  0.66891500  0.90566700  1
  H  698  1  0.72644400  0.67018900  0.93262800  1
  H  707  1  0.23334300  0.77119100  0.62225500  1
  H  711  1  0.26800400  0.66653600  0.56739800  1
  H  712  1  0.26051500  0.66494000  0.54071900  1
  H  721  1  0.75568300  0.21896100  0.62296600  1
  H  725  1  0.72098100  0.32016000  0.56470700  1
  H  726  1  0.72867200  0.31998500  0.53793200  1
  H  735  1  0.75641100  0.76637500  0.12536800  1
  H  739  1  0.72450300  0.67129100  0.06218600  1
  H  740  1  0.73061300  0.67445100  0.03536200  1
  H  749  1  0.23355100  0.21641800  0.12385600  1
  H  753  1  0.26074100  0.32018200  0.06845200  1
  H  754  1  0.25289200  0.32144600  0.04181700  1
  H  763  1  0.75213800  0.21281000  0.34940500  1
  H  767  1  0.72792900  0.32338900  0.39739200  1
  H  768  1  0.73848200  0.32853000  0.42330700  1
  H  777  1  0.23722300  0.77426700  0.34948800  1
  H  781  1  0.25774000  0.66291900  0.39593300  1
  H  782  1  0.24521900  0.65667600  0.42145600  1
  H  791  1  0.99571400  0.17676200  0.71630900  1
  H  795  1  0.97016200  0.09259500  0.78842800  1
  H  796  1  0.97163500  0.05682400  0.78524000  1
  H  805  1  0.99326100  0.81243100  0.71666600  1
  H  809  1  0.01966600  0.89561600  0.78914000  1
  H  810  1  0.01942000  0.93138800  0.78597500  1
  H  819  1  0.99249700  0.81089300  0.25466500  1
  H  823  1  0.01929600  0.89366000  0.18174900  1
  H  824  1  0.01871100  0.92947400  0.18469000  1
  H  833  1  0.99492000  0.17519500  0.25379800  1
  H  837  1  0.96978800  0.09074000  0.18195400  1
  H  838  1  0.97088700  0.05500100  0.18531800  1
  H  847  1  0.49609200  0.67637000  0.71582800  1
  H  851  1  0.46910300  0.59386700  0.78893200  1
  H  852  1  0.46953300  0.55804800  0.78602600  1
  H  861  1  0.49327600  0.31216700  0.71679400  1
  H  865  1  0.51839100  0.39654800  0.78863600  1
  H  866  1  0.51751600  0.43228500  0.78525400  1
  H  875  1  0.49207400  0.31116000  0.25423900  1
  H  879  1  0.51790200  0.39487900  0.18181100  1
  H  880  1  0.51717100  0.43065300  0.18501000  1
  H  889  1  0.49727500  0.67474000  0.25433900  1
  H  893  1  0.46531500  0.59437400  0.18157400  1
  H  894  1  0.46487200  0.55848900  0.18395000  1
  H  903  1  0.38048000  0.16555300  0.84150200  1
  H  904  1  0.39660200  0.18798300  0.90712000  1
  H  911  1  0.27904300  0.08930300  0.80431800  1
  H  912  1  0.32885300  0.09498100  0.86371100  1
  H  915  1  0.31144400  0.11820200  0.89944800  1
  H  916  1  0.33676500  0.17857200  0.81311600  1
  H  921  1  0.31468800  0.04653100  0.84328400  1
  H  922  1  0.32043700  0.16099100  0.92837300  1
  H  923  1  0.43019000  0.19172400  0.85160700  1
  H  924  1  0.28865300  0.16421600  0.78769400  1
  H  931  1  0.10649300  0.82260800  0.84259300  1
  H  932  1  0.08963110  0.79896300  0.90812300  1
  H  939  1  0.20782300  0.89958900  0.80525100  1
  H  940  1  0.15665300  0.89309000  0.86475900  1
  H  943  1  0.17441600  0.86938300  0.90033500  1
  H  944  1  0.15119700  0.80955700  0.81422900  1
  H  949  1  0.16855700  0.94185400  0.84131500  1
  H  950  1  0.16580400  0.82518300  0.92884100  1
  H  951  1  0.05689510  0.79628800  0.85265000  1
  H  952  1  0.19928100  0.82456500  0.78849500  1
  H  959  1  0.37842500  0.82118400  0.62816900  1
  H  960  1  0.39550600  0.79934300  0.56223000  1
  H  967  1  0.27396200  0.89684300  0.66645100  1
  H  968  1  0.32742000  0.89198700  0.60743700  1
  H  971  1  0.30844900  0.86927000  0.57160000  1
  H  972  1  0.33296600  0.80698200  0.65680600  1
  H  977  1  0.31394100  0.93994500  0.62937200  1
  H  978  1  0.31809600  0.82642400  0.54214200  1
  H  979  1  0.42989100  0.79710800  0.61705500  1
  H  980  1  0.27581800  0.82113800  0.67934000  1
  H  987  1  0.10909600  0.16831500  0.62898800  1
  H  988  1  0.09249810  0.18911100  0.56301700  1
  H  995  1  0.21236000  0.09168600  0.66666667  1
  H  996  1  0.15863500  0.09654700  0.60841400  1
  H  999  1  0.17858200  0.11851100  0.57217000  1
  H  1000  1  0.15505300  0.18232400  0.65693800  1
  H  1005  1  0.17017800  0.04857800  0.63457300  1
  H  1006  1  0.16946400  0.16084700  0.54222600  1
  H  1007  1  0.05823310  0.19334700  0.61830500  1
  H  1008  1  0.21161600  0.16772800  0.67909800  1
  H  1015  1  0.10656500  0.82187500  0.12938500  1
  H  1016  1  0.08950010  0.79964600  0.06386300  1
  H  1023  1  0.20778100  0.89788100  0.16642500  1
  H  1024  1  0.15818900  0.89217300  0.10695100  1
  H  1027  1  0.17518000  0.86900900  0.07115700  1
  H  1028  1  0.15024500  0.80857200  0.15756000  1
  H  1033  1  0.17221000  0.94061100  0.12745900  1
  H  1034  1  0.16517100  0.82693500  0.04186900  1
  H  1035  1  0.05698410  0.79538500  0.11970100  1
  H  1036  1  0.19792300  0.82302600  0.18312400  1
  H  1043  1  0.38015300  0.16394900  0.12826100  1
  H  1044  1  0.39802200  0.18709600  0.06277200  1
  H  1051  1  0.27925000  0.08739400  0.16568400  1
  H  1052  1  0.33018800  0.09372700  0.10607700  1
  H  1055  1  0.31256500  0.11725400  0.07041100  1
  H  1056  1  0.33529800  0.17758200  0.15633100  1
  H  1061  1  0.31877200  0.04500400  0.13042800  1
  H  1062  1  0.32227800  0.16028000  0.04130900  1
  H  1063  1  0.43077000  0.18906000  0.11810900  1
  H  1064  1  0.28720000  0.16263400  0.18207600  1
  H  1071  1  0.10815500  0.16573600  0.34240100  1
  H  1072  1  0.09011110  0.18738700  0.40824400  1
  H  1079  1  0.21301500  0.09080800  0.30435600  1
  H  1080  1  0.15971900  0.09571800  0.36342900  1
  H  1083  1  0.17854300  0.11871200  0.39918300  1
  H  1084  1  0.15364000  0.18048600  0.31390300  1
  H  1089  1  0.17326100  0.04779400  0.34174100  1
  H  1090  1  0.16750400  0.16080800  0.42900400  1
  H  1091  1  0.05562710  0.18847800  0.35358600  1
  H  1092  1  0.21067900  0.16650000  0.29126900  1
  H  1099  1  0.37798200  0.82030100  0.34152200  1
  H  1100  1  0.39564400  0.79995700  0.40741200  1
  H  1107  1  0.27478700  0.89606500  0.30377200  1
  H  1108  1  0.32828100  0.89147200  0.36211300  1
  H  1111  1  0.30835500  0.86949800  0.39842200  1
  H  1112  1  0.33177200  0.80540400  0.31391500  1
  H  1117  1  0.31702000  0.93931400  0.33496300  1
  H  1118  1  0.31877400  0.82821600  0.42888600  1
  H  1119  1  0.43052200  0.79753000  0.35256300  1
  H  1120  1  0.27502900  0.81993700  0.29172300  1
  H  1127  1  0.87995900  0.66706100  0.84099300  1
  H  1128  1  0.89489100  0.69055500  0.90653600  1
  H  1135  1  0.77873300  0.58943400  0.80414700  1
  H  1136  1  0.82931400  0.59507900  0.86325100  1
  H  1139  1  0.81277700  0.61790700  0.89930300  1
  H  1140  1  0.83643400  0.67880400  0.81259100  1
  H  1145  1  0.81455900  0.54660800  0.84301100  1
  H  1146  1  0.82026400  0.66260100  0.92781400  1
  H  1147  1  0.92397900  0.70047300  0.85032700  1
  H  1148  1  0.78870500  0.66422900  0.78731200  1
  H  1155  1  0.60637700  0.32139300  0.84232700  1
  H  1156  1  0.59021400  0.29785900  0.90794900  1
  H  1163  1  0.70683600  0.39995900  0.80492500  1
  H  1164  1  0.65492600  0.39379900  0.86416700  1
  H  1167  1  0.67183200  0.37108300  0.90022500  1
  H  1168  1  0.65097800  0.30960800  0.81401100  1
  H  1173  1  0.66699400  0.44248000  0.84013300  1
  H  1174  1  0.66471200  0.32582700  0.92869700  1
  H  1175  1  0.56509200  0.28470700  0.85187100  1
  H  1176  1  0.69904900  0.32470700  0.78855100  1
  H  1183  1  0.87714200  0.31876000  0.62821000  1
  H  1184  1  0.89302300  0.29613300  0.56229900  1
  H  1191  1  0.77366400  0.39663700  0.66631200  1
  H  1192  1  0.82786300  0.39187100  0.60759900  1
  H  1195  1  0.81031600  0.37016800  0.57123000  1
  H  1196  1  0.83207700  0.30650700  0.65693500  1
  H  1201  1  0.81374200  0.43982100  0.62922500  1
  H  1202  1  0.81785100  0.32561400  0.54210800  1
  H  1203  1  0.92159500  0.28568600  0.61832800  1
  H  1204  1  0.77543200  0.32095500  0.67922700  1
  H  1211  1  0.60938600  0.66980700  0.62898900  1
  H  1212  1  0.59383600  0.69072000  0.56293700  1
  H  1219  1  0.71143700  0.59126700  0.66682400  1
  H  1220  1  0.65698400  0.59583300  0.60888400  1
  H  1223  1  0.67602800  0.61658400  0.57216000  1
  H  1224  1  0.65525700  0.68234300  0.65690400  1
  H  1229  1  0.66882600  0.54795200  0.63558400  1
  H  1230  1  0.66890100  0.65962400  0.54220400  1
  H  1231  1  0.56800400  0.70714100  0.61841300  1
  H  1232  1  0.71179500  0.66733900  0.67873300  1
  H  1239  1  0.60617800  0.32015900  0.12909900  1
  H  1240  1  0.58959600  0.29838500  0.06342000  1
  H  1247  1  0.70684200  0.39840300  0.16586900  1
  H  1248  1  0.65678900  0.39225400  0.10659400  1
  H  1251  1  0.67266000  0.37002400  0.07057800  1
  H  1252  1  0.64920800  0.30908300  0.15779400  1
  H  1257  1  0.67374700  0.44001000  0.12311000  1
  H  1258  1  0.66377100  0.32621400  0.04155500  1
  H  1259  1  0.56487600  0.28343100  0.11950400  1
  H  1260  1  0.69694600  0.32377700  0.18298000  1
  H  1267  1  0.87941100  0.66558100  0.12740500  1
  H  1268  1  0.89688500  0.69045500  0.06224600  1
  H  1275  1  0.76984900  0.59137600  0.16190500  1
  H  1276  1  0.82155700  0.59755700  0.10270500  1
  H  1279  1  0.80989400  0.62209000  0.06791300  1
  H  1280  1  0.83930600  0.67488800  0.15812300  1
  H  1285  1  0.77462800  0.56185500  0.10917700  1
  H  1286  1  0.82201800  0.66647300  0.04044200  1
  H  1287  1  0.92502200  0.69737400  0.11873700  1
  H  1288  1  0.78947000  0.66262200  0.18267900  1
  H  1295  1  0.60945000  0.66905600  0.34222500  1
  H  1296  1  0.59190100  0.68986400  0.40826500  1
  H  1303  1  0.71241900  0.59070900  0.30402700  1
  H  1304  1  0.65796700  0.59524500  0.36264000  1
  H  1307  1  0.67488100  0.61614600  0.39924300  1
  H  1308  1  0.65467700  0.68104000  0.31365600  1
  H  1313  1  0.67187800  0.54737100  0.34057100  1
  H  1314  1  0.66639600  0.65925700  0.42909400  1
  H  1315  1  0.56932300  0.70781900  0.35300000  1
  H  1316  1  0.71155400  0.66641100  0.29151500  1
  H  1323  1  0.87630600  0.31686100  0.34146300  1
  H  1324  1  0.89295800  0.29637400  0.40746100  1
  H  1331  1  0.77454700  0.39600400  0.30381900  1
  H  1332  1  0.82877500  0.39124700  0.36182700  1
  H  1335  1  0.81102200  0.37079500  0.39876000  1
  H  1336  1  0.83091700  0.30505000  0.31338600  1
  H  1341  1  0.81673300  0.43920100  0.33604300  1
  H  1342  1  0.81880700  0.32715100  0.42887600  1
  H  1343  1  0.91984800  0.28268800  0.35136500  1
  H  1344  1  0.77488300  0.32002000  0.29143600  1
  H  1351  1  0.31166100  0.16108200  0.96808400  1
  H  1355  1  0.42454200  0.13464200  0.02962200  1
  H  1356  1  0.46278300  0.14705200  0.02559600  1
  H  1365  1  0.17496700  0.82548100  0.96818800  1
  H  1369  1  0.06329810  0.85312400  0.03162800  1
  H  1370  1  0.02480210  0.84118400  0.02830400  1
  H  1379  1  0.30879700  0.82724300  0.50269700  1
  H  1383  1  0.42107000  0.85040000  0.43913700  1
  H  1384  1  0.45925800  0.83691200  0.44245600  1
  H  1393  1  0.17837700  0.16140800  0.50242700  1
  H  1397  1  0.06574710  0.13627700  0.44098400  1
  H  1398  1  0.02735610  0.14919500  0.44499700  1
  H  1407  1  0.81214400  0.66938000  0.96738400  1
  H  1411  1  0.91549100  0.62204800  0.02726400  1
  H  1412  1  0.95617800  0.62672400  0.02377000  1
  H  1421  1  0.67316600  0.31990100  0.96801300  1
  H  1425  1  0.57031300  0.36786400  0.02843900  1
  H  1426  1  0.52958500  0.36330000  0.02566800  1
  H  1435  1  0.80908700  0.32044700  0.50261000  1
  H  1439  1  0.91247700  0.36519100  0.44237500  1
  H  1440  1  0.95314000  0.35970000  0.44531100  1
  H  1449  1  0.67762600  0.66345300  0.50233900  1
  H  1453  1  0.56908500  0.62633300  0.44397700  1
  H  1454  1  0.52913800  0.63464700  0.44795900  1
  H  1463  1  0.29149400  0.00126300  0.81642700  1
  H  1467  1  0.20152900  0.95225100  0.88314300  1
  H  1468  1  0.16682300  0.96803200  0.89276400  1
  H  1477  1  0.29262800  0.98597500  0.65306200  1
  H  1481  1  0.19904100  0.03798800  0.58974500  1
  H  1482  1  0.16369400  0.02311100  0.58154200  1
  H  1491  1  0.19435000  0.98633500  0.15293400  1
  H  1495  1  0.28848900  0.03347900  0.08790800  1
  H  1496  1  0.32372600  0.01740900  0.07947800  1
  H  1505  1  0.19347900  0.00133000  0.31890100  1
  H  1509  1  0.29099800  0.95068300  0.38034500  1
  H  1510  1  0.32687900  0.96569700  0.38733500  1
  H  1519  1  0.79239700  0.50064900  0.81801100  1
  H  1523  1  0.69681100  0.45459500  0.88243100  1
  H  1524  1  0.66145300  0.47081600  0.89046900  1
  H  1533  1  0.79319700  0.48638500  0.65162300  1
  H  1537  1  0.69493100  0.53614500  0.59043100  1
  H  1538  1  0.65914200  0.52088800  0.58353500  1
  H  1547  1  0.68960100  0.49108400  0.12641200  1
  H  1551  1  0.83460600  0.52139200  0.12533200  1
  H  1552  1  0.86306200  0.50412100  0.14017500  1
  H  1561  1  0.69379400  0.50133200  0.31727400  1
  H  1565  1  0.78762800  0.44957900  0.38056600  1
  H  1566  1  0.82290000  0.46456500  0.38879100  1
  H  1575  1  0.48178900  0.21975400  0.84610000  1
  H  1579  1  0.51428700  0.31820900  0.90666300  1
  H  1580  1  0.50795700  0.31655700  0.93355400  1
  H  1589  1  0.00611509  0.76842200  0.84639300  1
  H  1593  1  0.97057200  0.66891500  0.90566700  1
  H  1594  1  0.97548200  0.67018900  0.93262800  1
  H  1603  1  0.48238100  0.77119100  0.62225500  1
  H  1607  1  0.51704200  0.66653600  0.56739800  1
  H  1608  1  0.50955300  0.66494000  0.54071900  1
  H  1617  1  0.00472109  0.21896100  0.62296600  1
  H  1621  1  0.97001900  0.32016000  0.56470700  1
  H  1622  1  0.97771000  0.31998500  0.53793200  1
  H  1631  1  0.00544909  0.76637500  0.12536800  1
  H  1635  1  0.97354100  0.67129100  0.06218600  1
  H  1636  1  0.97965100  0.67445100  0.03536200  1
  H  1645  1  0.48258900  0.21641800  0.12385600  1
  H  1649  1  0.50977900  0.32018200  0.06845200  1
  H  1650  1  0.50193000  0.32144600  0.04181700  1
  H  1659  1  0.00117609  0.21281000  0.34940500  1
  H  1663  1  0.97696700  0.32338900  0.39739200  1
  H  1664  1  0.98752000  0.32853000  0.42330700  1
  H  1673  1  0.48626100  0.77426700  0.34948800  1
  H  1677  1  0.50677800  0.66291900  0.39593300  1
  H  1678  1  0.49425700  0.65667600  0.42145600  1
  H  1687  1  0.24475200  0.17676200  0.71630900  1
  H  1691  1  0.21920000  0.09259500  0.78842800  1
  H  1692  1  0.22067300  0.05682400  0.78524000  1
  H  1701  1  0.24229900  0.81243100  0.71666600  1
  H  1705  1  0.26870400  0.89561600  0.78914000  1
  H  1706  1  0.26845800  0.93138800  0.78597500  1
  H  1715  1  0.24153500  0.81089300  0.25466500  1
  H  1719  1  0.26833400  0.89366000  0.18174900  1
  H  1720  1  0.26774900  0.92947400  0.18469000  1
  H  1729  1  0.24395800  0.17519500  0.25379800  1
  H  1733  1  0.21882600  0.09074000  0.18195400  1
  H  1734  1  0.21992500  0.05500100  0.18531800  1
  H  1743  1  0.74513000  0.67637000  0.71582800  1
  H  1747  1  0.71814100  0.59386700  0.78893200  1
  H  1748  1  0.71857100  0.55804800  0.78602600  1
  H  1757  1  0.74231400  0.31216700  0.71679400  1
  H  1761  1  0.76742900  0.39654800  0.78863600  1
  H  1762  1  0.76655400  0.43228500  0.78525400  1
  H  1771  1  0.74111200  0.31116000  0.25423900  1
  H  1775  1  0.76694000  0.39487900  0.18181100  1
  H  1776  1  0.76620900  0.43065300  0.18501000  1
  H  1785  1  0.74631300  0.67474000  0.25433900  1
  H  1789  1  0.71435300  0.59437400  0.18157400  1
  H  1790  1  0.71391000  0.55848900  0.18395000  1
  C  1  1  0.09452000  0.15039700  0.86332800  1
  C  2  1  0.12390800  0.16537600  0.85757300  1
  C  3  1  0.14362800  0.17963000  0.87326300  1
  C  4  1  0.13359400  0.17789400  0.89551800  1
  C  5  1  0.10474300  0.16292400  0.90232100  1
  C  6  1  0.08532600  0.14934600  0.88592500  1
  C  9  1  0.07647300  0.13489500  0.84676200  1
  C  10  1  0.06497000  0.14774400  0.82688500  1
  C  11  1  0.04731100  0.13149600  0.81090800  1
  C  12  1  0.04190500  0.10186000  0.81549200  1
  C  13  1  0.05289100  0.08843200  0.83486600  1
  C  14  1  0.07079700  0.10500700  0.84998400  1
  C  21  1  0.04696800  0.05934400  0.83852300  1
  C  22  1  0.09543700  0.16217400  0.92452900  1
  C  23  1  0.17223200  0.19453600  0.86670700  1
  C  24  1  0.03551300  0.14357900  0.79114300  1
  C  29  1  0.89401300  0.83746300  0.86431900  1
  C  30  1  0.86475900  0.82251700  0.85862000  1
  C  31  1  0.84485600  0.80798400  0.87431200  1
  C  32  1  0.85464900  0.80930500  0.89651500  1
  C  33  1  0.88341000  0.82421700  0.90322800  1
  C  34  1  0.90292900  0.83819300  0.88684100  1
  C  37  1  0.91221000  0.85323900  0.84778400  1
  C  38  1  0.92435400  0.84057600  0.82786900  1
  C  39  1  0.94208400  0.85709800  0.81187200  1
  C  40  1  0.94691400  0.88680900  0.81645400  1
  C  41  1  0.93510500  0.90001100  0.83583800  1
  C  42  1  0.91723100  0.88319200  0.85103200  1
  C  49  1  0.93953800  0.92927900  0.83923000  1
  C  50  1  0.89268300  0.82453800  0.92531800  1
  C  51  1  0.81636300  0.79321700  0.86771800  1
  C  52  1  0.95424000  0.84518400  0.79201500  1
  C  57  1  0.09208000  0.83627800  0.60677800  1
  C  58  1  0.12192100  0.82144600  0.61216800  1
  C  59  1  0.14216100  0.80754100  0.59615000  1
  C  60  1  0.13205800  0.80924400  0.57402400  1
  C  61  1  0.10263500  0.82408300  0.56764500  1
  C  62  1  0.08284800  0.83758100  0.58432700  1
  C  65  1  0.07377900  0.85167600  0.62358900  1
  C  66  1  0.06167300  0.83847100  0.64318700  1
  C  67  1  0.04356700  0.85472200  0.65935200  1
  C  68  1  0.03808800  0.88457300  0.65530000  1
  C  69  1  0.05049600  0.89833900  0.63638300  1
  C  70  1  0.06875700  0.88181300  0.62096200  1
  C  77  1  0.04552900  0.92767800  0.63329000  1
  C  78  1  0.09314400  0.82493000  0.54559500  1
  C  79  1  0.17142300  0.79317000  0.60237400  1
  C  80  1  0.03073500  0.84227300  0.67864500  1
  C  85  1  0.89725400  0.15248300  0.60733400  1
  C  86  1  0.86758300  0.16772400  0.61291100  1
  C  87  1  0.84751300  0.18150300  0.59697400  1
  C  88  1  0.85770000  0.17929600  0.57476000  1
  C  89  1  0.88695300  0.16408600  0.56818800  1
  C  90  1  0.90652200  0.15069600  0.58478500  1
  C  93  1  0.91527000  0.13706800  0.62406500  1
  C  94  1  0.92777200  0.15034900  0.64337900  1
  C  95  1  0.94564300  0.13406500  0.65943900  1
  C  96  1  0.95041900  0.10406100  0.65558700  1
  C  97  1  0.93749000  0.09027900  0.63701300  1
  C  98  1  0.91958400  0.10681400  0.62166100  1
  C  105  1  0.94131700  0.06082000  0.63437300  1
  C  106  1  0.89638700  0.16278200  0.54601300  1
  C  107  1  0.81831700  0.19624600  0.60328400  1
  C  108  1  0.95873700  0.14657700  0.67848900  1
  C  113  1  0.89433100  0.83681300  0.10737800  1
  C  114  1  0.86489600  0.82200900  0.11328300  1
  C  115  1  0.84488600  0.80789900  0.09769500  1
  C  116  1  0.85467600  0.80961900  0.07539400  1
  C  117  1  0.88353300  0.82446600  0.06842900  1
  C  118  1  0.90325900  0.83788900  0.08473300  1
  C  121  1  0.91252700  0.85225200  0.12388900  1
  C  122  1  0.92396400  0.83940200  0.14378100  1
  C  123  1  0.94155500  0.85565700  0.15978400  1
  C  124  1  0.94692100  0.88530500  0.15522400  1
  C  125  1  0.93597700  0.89871400  0.13583300  1
  C  126  1  0.91816900  0.88213900  0.12067500  1
  C  133  1  0.94186700  0.92779000  0.13218500  1
  C  134  1  0.89225400  0.82548300  0.04612100  1
  C  135  1  0.81630600  0.79309300  0.10441600  1
  C  136  1  0.95327000  0.84358700  0.17957100  1
  C  141  1  0.09460000  0.14934600  0.10638800  1
  C  142  1  0.12394200  0.16405600  0.11220400  1
  C  143  1  0.14413900  0.17833700  0.09656900  1
  C  144  1  0.13458800  0.17700500  0.07432700  1
  C  145  1  0.10577200  0.16226400  0.06748600  1
  C  146  1  0.08593000  0.14852400  0.08382100  1
  C  149  1  0.07629300  0.13367600  0.12290000  1
  C  150  1  0.06416200  0.14643000  0.14278500  1
  C  151  1  0.04658200  0.12993900  0.15886800  1
  C  152  1  0.04195500  0.10016700  0.15441700  1
  C  153  1  0.05381000  0.08690200  0.13507400  1
  C  154  1  0.07147500  0.10368500  0.11976300  1
  C  161  1  0.04961200  0.05760500  0.13184300  1
  C  162  1  0.09713300  0.16154400  0.04527800  1
  C  163  1  0.17277300  0.19276800  0.10323500  1
  C  164  1  0.03440600  0.14194000  0.17868200  1
  C  169  1  0.89660500  0.15131200  0.36393000  1
  C  170  1  0.86650400  0.16565100  0.35842000  1
  C  171  1  0.84587000  0.17924300  0.37435900  1
  C  172  1  0.85585300  0.17776100  0.39651300  1
  C  173  1  0.88550800  0.16337500  0.40302200  1
  C  174  1  0.90569600  0.15016300  0.38641600  1
  C  177  1  0.91513100  0.13598800  0.34720000  1
  C  178  1  0.92711400  0.14916400  0.32755900  1
  C  179  1  0.94525000  0.13291700  0.31140800  1
  C  180  1  0.95082700  0.10308800  0.31550500  1
  C  181  1  0.93850500  0.08935100  0.33445900  1
  C  182  1  0.92026200  0.10587800  0.34988200  1
  C  189  1  0.94351500  0.06003300  0.33759800  1
  C  190  1  0.89450500  0.16237700  0.42516800  1
  C  191  1  0.81630600  0.19305200  0.36807500  1
  C  192  1  0.95795600  0.14533200  0.29206600  1
  C  197  1  0.09160500  0.83558700  0.36331600  1
  C  198  1  0.12150700  0.82079000  0.35762000  1
  C  199  1  0.14195000  0.80737700  0.37349700  1
  C  200  1  0.13194400  0.80944800  0.39574100  1
  C  201  1  0.10249400  0.82428400  0.40244100  1
  C  202  1  0.08253500  0.83736500  0.38590400  1
  C  205  1  0.07341100  0.85085700  0.34662300  1
  C  206  1  0.06094800  0.83746300  0.32734500  1
  C  207  1  0.04318400  0.85367500  0.31119800  1
  C  208  1  0.03855800  0.88372500  0.31489800  1
  C  209  1  0.05151100  0.89758900  0.33342600  1
  C  210  1  0.06922500  0.88113100  0.34890900  1
  C  217  1  0.04785300  0.92706000  0.33589100  1
  C  218  1  0.09360500  0.82585400  0.42471300  1
  C  219  1  0.17147600  0.79327400  0.36714700  1
  C  220  1  0.03007200  0.84105800  0.29220000  1
  C  225  1  0.59478100  0.65064200  0.86287900  1
  C  226  1  0.62351200  0.66655600  0.85707800  1
  C  227  1  0.64272700  0.68140100  0.87273700  1
  C  228  1  0.63275600  0.67949100  0.89499100  1
  C  229  1  0.60467500  0.66353500  0.90182400  1
  C  230  1  0.58574400  0.64934200  0.88549800  1
  C  233  1  0.57682300  0.63500500  0.84631800  1
  C  234  1  0.56505600  0.64784400  0.82650400  1
  C  235  1  0.54723200  0.63158900  0.81061400  1
  C  236  1  0.54177700  0.60197400  0.81525000  1
  C  237  1  0.55293100  0.58854800  0.83458100  1
  C  238  1  0.57113000  0.60511000  0.84956500  1
  C  245  1  0.54686800  0.55948100  0.83830700  1
  C  246  1  0.59532300  0.66293800  0.92398700  1
  C  247  1  0.66993600  0.69815300  0.86620500  1
  C  248  1  0.53531900  0.64366600  0.79088100  1
  C  253  1  0.39291000  0.33796700  0.86408700  1
  C  254  1  0.36446100  0.32187400  0.85838200  1
  C  255  1  0.34505800  0.30694200  0.87411800  1
  C  256  1  0.35448900  0.30893900  0.89635500  1
  C  257  1  0.38241100  0.32496000  0.90305800  1
  C  258  1  0.40150700  0.33931800  0.88665700  1
  C  261  1  0.41095600  0.35377500  0.84746600  1
  C  262  1  0.42344400  0.34099500  0.82767600  1
  C  263  1  0.44119800  0.35746700  0.81165600  1
  C  264  1  0.44583800  0.38723200  0.81612400  1
  C  265  1  0.43374300  0.40055500  0.83538200  1
  C  266  1  0.41573100  0.38380200  0.85055200  1
  C  273  1  0.43805200  0.42986900  0.83863900  1
  C  274  1  0.39159000  0.32549200  0.92513900  1
  C  275  1  0.31802900  0.29027900  0.86753400  1
  C  276  1  0.45360800  0.34543400  0.79190400  1
  C  281  1  0.59210500  0.33598500  0.60673800  1
  C  282  1  0.62094200  0.31968400  0.61216800  1
  C  283  1  0.64050300  0.30498000  0.59618000  1
  C  284  1  0.63066300  0.30725100  0.57402500  1
  C  285  1  0.60238600  0.32363700  0.56759400  1
  C  286  1  0.58323400  0.33787800  0.58423400  1
  C  289  1  0.57397100  0.35149100  0.62362500  1
  C  290  1  0.56153900  0.33827700  0.64314800  1
  C  291  1  0.54335000  0.35453100  0.65927700  1
  C  292  1  0.53793000  0.38438600  0.65522000  1
  C  293  1  0.55053100  0.39817500  0.63636800  1
  C  294  1  0.56903900  0.38166200  0.62105700  1
  C  301  1  0.54541400  0.42750500  0.63322500  1
  C  302  1  0.59292900  0.32460400  0.54556200  1
  C  303  1  0.66763400  0.28769300  0.60246900  1
  C  304  1  0.53033000  0.34209300  0.67852800  1
  C  309  1  0.39644900  0.65197600  0.60736500  1
  C  310  1  0.36771500  0.66857400  0.61290300  1
  C  311  1  0.34829300  0.68286900  0.59689300  1
  C  312  1  0.35816900  0.67998000  0.57467400  1
  C  313  1  0.38646200  0.66344000  0.56815500  1
  C  314  1  0.40542300  0.64949400  0.58479500  1
  C  317  1  0.41419900  0.63650800  0.62420900  1
  C  318  1  0.42709700  0.64990500  0.64336400  1
  C  319  1  0.44493300  0.63365600  0.65945400  1
  C  320  1  0.44942200  0.60359300  0.65577000  1
  C  321  1  0.43616700  0.58970400  0.63735000  1
  C  322  1  0.41816900  0.60618400  0.62200800  1
  C  329  1  0.43991700  0.56021600  0.63484000  1
  C  330  1  0.39585100  0.66180800  0.54600300  1
  C  331  1  0.32070400  0.69976600  0.60313700  1
  C  332  1  0.45833700  0.64626800  0.67835700  1
  C  337  1  0.39298100  0.33691000  0.10713100  1
  C  338  1  0.36432500  0.32092900  0.11297700  1
  C  339  1  0.34475900  0.30647700  0.09730900  1
  C  340  1  0.35407100  0.30903400  0.07498000  1
  C  341  1  0.38211800  0.32498800  0.06808400  1
  C  342  1  0.40156400  0.33861700  0.08443200  1
  C  345  1  0.41098200  0.35251700  0.12372800  1
  C  346  1  0.42252500  0.33988800  0.14369100  1
  C  347  1  0.44021700  0.35627400  0.15958800  1
  C  348  1  0.44573100  0.38583400  0.15479200  1
  C  349  1  0.43484600  0.39911700  0.13530300  1
  C  350  1  0.41676100  0.38236500  0.12037700  1
  C  357  1  0.44150100  0.42800900  0.13095300  1
  C  358  1  0.39076700  0.32619200  0.04579800  1
  C  359  1  0.31769000  0.28966600  0.10395600  1
  C  360  1  0.45211800  0.34436100  0.17941700  1
  C  365  1  0.59376600  0.65123200  0.10546400  1
  C  366  1  0.62316600  0.66590600  0.11137800  1
  C  367  1  0.64326400  0.68077700  0.09596400  1
  C  368  1  0.63392900  0.67964100  0.07367900  1
  C  369  1  0.60533100  0.66482600  0.06667300  1
  C  370  1  0.58510800  0.65118300  0.08283000  1
  C  373  1  0.57465500  0.63568400  0.12184300  1
  C  374  1  0.56491400  0.64737500  0.14266900  1
  C  375  1  0.54531000  0.63133300  0.15801500  1
  C  376  1  0.53556400  0.60322000  0.15167700  1
  C  377  1  0.54463200  0.59086900  0.13136700  1
  C  378  1  0.56492300  0.60702000  0.11709700  1
  C  385  1  0.53188900  0.56449300  0.12478000  1
  C  386  1  0.59685100  0.66470200  0.04447600  1
  C  387  1  0.67055800  0.69695300  0.10288900  1
  C  388  1  0.53479100  0.64252800  0.17852800  1
  C  393  1  0.39592900  0.65117000  0.36380100  1
  C  394  1  0.36732700  0.66775600  0.35830500  1
  C  395  1  0.34749200  0.68208900  0.37431500  1
  C  396  1  0.35657900  0.67908700  0.39654600  1
  C  397  1  0.38470500  0.66255200  0.40305400  1
  C  398  1  0.40425100  0.64873900  0.38639000  1
  C  401  1  0.41417900  0.63577200  0.34687600  1
  C  402  1  0.42677400  0.64906000  0.32741400  1
  C  403  1  0.44490600  0.63284500  0.31121900  1
  C  404  1  0.45010400  0.60293700  0.31514900  1
  C  405  1  0.43733200  0.58906900  0.33391400  1
  C  406  1  0.41887600  0.60554500  0.34927700  1
  C  413  1  0.44227700  0.55970000  0.33692700  1
  C  414  1  0.39341500  0.66091800  0.42522700  1
  C  415  1  0.32050300  0.69941000  0.36799800  1
  C  416  1  0.45814500  0.64533500  0.29204000  1
  C  421  1  0.59173100  0.33517000  0.36323900  1
  C  422  1  0.62027500  0.31835300  0.35760000  1
  C  423  1  0.63993900  0.30405300  0.37351300  1
  C  424  1  0.63047600  0.30717800  0.39578700  1
  C  425  1  0.60252200  0.32404700  0.40245900  1
  C  426  1  0.58327100  0.33788600  0.38589900  1
  C  429  1  0.57376900  0.35061200  0.34639700  1
  C  430  1  0.56099800  0.33734500  0.32712300  1
  C  431  1  0.54314700  0.35362700  0.31102100  1
  C  432  1  0.53848200  0.38363800  0.31484900  1
  C  433  1  0.55154300  0.39744300  0.33333333  1
  C  434  1  0.56958900  0.38091400  0.34867000  1
  C  441  1  0.54756900  0.42690400  0.33605300  1
  C  442  1  0.59374400  0.32591200  0.42471800  1
  C  443  1  0.66692600  0.28635600  0.36723900  1
  C  444  1  0.52983200  0.34115000  0.29199100  1
  C  449  1  0.11791300  0.16067100  0.00796000  1
  C  451  1  0.08569300  0.16103600  0.97496400  1
  C  452  1  0.11492300  0.16177900  0.96195600  1
  C  454  1  0.14752400  0.16110000  0.99504200  1
  C  456  1  0.18044600  0.16133700  0.00330100  1
  C  463  1  0.87120800  0.82641300  0.00906300  1
  C  465  1  0.90295000  0.82571800  0.97548300  1
  C  466  1  0.87353300  0.82522000  0.96300500  1
  C  468  1  0.84141300  0.82622400  0.99669500  1
  C  470  1  0.80861100  0.82629700  0.00557900  1
  C  477  1  0.11448900  0.82608700  0.46183300  1
  C  479  1  0.08272900  0.82662800  0.49539200  1
  C  480  1  0.11213000  0.82502000  0.50785700  1
  C  482  1  0.14427200  0.82476100  0.47419100  1
  C  484  1  0.17706900  0.82353700  0.46532500  1
  C  491  1  0.87401800  0.16164100  0.46258100  1
  C  493  1  0.90626900  0.16159400  0.49554600  1
  C  494  1  0.87703000  0.16276300  0.50855100  1
  C  496  1  0.84440500  0.16247200  0.47549700  1
  C  498  1  0.81147900  0.16315700  0.46723600  1
  C  505  1  0.61738400  0.66027400  0.00734500  1
  C  507  1  0.58578000  0.66553100  0.97429800  1
  C  508  1  0.61477600  0.66158800  0.96132900  1
  C  510  1  0.64660800  0.65585300  0.99443000  1
  C  512  1  0.67877300  0.64996100  0.00278900  1
  C  519  1  0.37010100  0.32889100  0.00879100  1
  C  521  1  0.40145300  0.32354500  0.97526600  1
  C  522  1  0.37228600  0.32697200  0.96273000  1
  C  524  1  0.34070100  0.33272500  0.99632000  1
  C  526  1  0.30862500  0.33858100  0.00522400  1
  C  533  1  0.61421400  0.32765900  0.46182600  1
  C  535  1  0.58276300  0.32335900  0.49535300  1
  C  536  1  0.61198000  0.32576000  0.50788800  1
  C  538  1  0.64365400  0.33045900  0.47431300  1
  C  540  1  0.67580900  0.33533500  0.46545600  1
  C  547  1  0.37320000  0.66003700  0.46262300  1
  C  549  1  0.40554600  0.66211900  0.49551600  1
  C  550  1  0.37638400  0.66165300  0.50860800  1
  C  552  1  0.34377900  0.65921000  0.47568600  1
  C  554  1  0.31106900  0.65665800  0.46752600  1
  C  561  1  0.97994700  0.96699100  0.84015600  1
  C  563  1  0.02203000  0.99865000  0.82630300  1
  C  564  1  0.00730900  0.02215900  0.83757900  1
  C  566  1  0.96539700  0.99051300  0.85200500  1
  C  568  1  0.93821800  0.98864300  0.86678200  1
  C  575  1  0.98084700  0.02226400  0.63113800  1
  C  577  1  0.02267300  0.98922100  0.64393800  1
  C  578  1  0.00652800  0.96610700  0.63365300  1
  C  580  1  0.96482800  0.99916500  0.62023600  1
  C  582  1  0.93670800  0.00190300  0.60659300  1
  C  589  1  0.00922700  0.01995200  0.13034800  1
  C  591  1  0.96630500  0.98868000  0.14354400  1
  C  592  1  0.98169200  0.96487700  0.13301800  1
  C  594  1  0.02449500  0.99611900  0.11926200  1
  C  596  1  0.05261200  0.99758300  0.10523800  1
  C  603  1  0.00844700  0.96557500  0.33970700  1
  C  605  1  0.96584700  0.99829300  0.32756400  1
  C  606  1  0.98258000  0.02164000  0.33711500  1
  C  608  1  0.02512200  0.98891900  0.34984500  1
  C  610  1  0.05405800  0.98651700  0.36276300  1
  C  617  1  0.47860800  0.46754500  0.84003200  1
  C  619  1  0.52212800  0.49849600  0.82719300  1
  C  620  1  0.50677100  0.52246400  0.83752900  1
  C  622  1  0.46336700  0.49153700  0.85094000  1
  C  624  1  0.43500600  0.49031800  0.86476100  1
  C  631  1  0.47955300  0.52171900  0.63116100  1
  C  633  1  0.52260400  0.48926000  0.64309100  1
  C  634  1  0.50603300  0.46579100  0.63358900  1
  C  636  1  0.46305800  0.49825800  0.62104800  1
  C  638  1  0.43399700  0.50048200  0.60823400  1
  C  645  1  0.51516100  0.51788900  0.13498900  1
  C  647  1  0.46548200  0.49082000  0.12961000  1
  C  648  1  0.48266500  0.46495300  0.13475600  1
  C  650  1  0.53281600  0.49204100  0.14002200  1
  C  652  1  0.56700700  0.49038300  0.14552400  1
  C  659  1  0.50772900  0.46533200  0.33920300  1
  C  661  1  0.46561800  0.49817300  0.32646600  1
  C  662  1  0.48152200  0.52135700  0.33682800  1
  C  664  1  0.52351700  0.48849700  0.35016700  1
  C  666  1  0.55159400  0.48588900  0.36385300  1
  C  673  1  0.26804000  0.26627600  0.87959100  1
  C  675  1  0.23570200  0.23161200  0.86002600  1
  C  676  1  0.21353400  0.22911600  0.87796400  1
  C  678  1  0.24568400  0.26415600  0.89764400  1
  C  680  1  0.24820000  0.27948100  0.91767500  1
  C  687  1  0.72010600  0.72125700  0.87897200  1
  C  689  1  0.75339100  0.75634500  0.86017100  1
  C  690  1  0.77462100  0.75852800  0.87836100  1
  C  692  1  0.74145300  0.72309000  0.89730100  1
  C  694  1  0.73779800  0.70747900  0.91717100  1
  C  701  1  0.26922500  0.72129900  0.59091000  1
  C  703  1  0.23620400  0.75777200  0.60908800  1
  C  704  1  0.21332400  0.75802900  0.59170100  1
  C  706  1  0.24618800  0.72113800  0.57343500  1
  C  708  1  0.24870000  0.70359600  0.55441400  1
  C  715  1  0.71986700  0.26686000  0.59024600  1
  C  717  1  0.75288600  0.23159000  0.60938500  1
  C  718  1  0.77594600  0.23039200  0.59183800  1
  C  720  1  0.74309800  0.26606000  0.57259500  1
  C  722  1  0.74066300  0.28235100  0.55297400  1
  C  729  1  0.72023300  0.72173600  0.09080600  1
  C  731  1  0.75293200  0.75545100  0.11106900  1
  C  732  1  0.77437300  0.75922200  0.09289200  1
  C  734  1  0.74181300  0.72531500  0.07249900  1
  C  736  1  0.73896900  0.71120400  0.05202800  1
  C  743  1  0.26791600  0.26578600  0.09190600  1
  C  745  1  0.23622900  0.22935500  0.11043000  1
  C  746  1  0.21388200  0.22805900  0.09277600  1
  C  748  1  0.24539400  0.26476200  0.07417100  1
  C  750  1  0.24712000  0.28194800  0.05501300  1
  C  757  1  0.71933100  0.26604600  0.37904100  1
  C  759  1  0.75040000  0.22743600  0.36188900  1
  C  760  1  0.77459300  0.22852700  0.37845800  1
  C  762  1  0.74369400  0.26738500  0.39566700  1
  C  764  1  0.74341500  0.28712600  0.41337700  1
  C  771  1  0.26824500  0.72072700  0.37922400  1
  C  773  1  0.23812200  0.75936400  0.36180600  1
  C  774  1  0.21283400  0.75793400  0.37794800  1
  C  776  1  0.24272700  0.71897800  0.39536000  1
  C  778  1  0.24177500  0.69864400  0.41265900  1
  C  785  1  0.00521000  0.13087700  0.75756900  1
  C  787  1  0.99371100  0.15778500  0.72473900  1
  C  788  1  0.97873100  0.13343800  0.71522600  1
  C  790  1  0.98991100  0.10639200  0.74811900  1
  C  792  1  0.98618600  0.07912600  0.75837600  1
  C  799  1  0.98476000  0.85801700  0.75828800  1
  C  801  1  0.99571200  0.83126300  0.72519200  1
  C  802  1  0.01119500  0.85547200  0.71564500  1
  C  804  1  0.00055800  0.88237000  0.74880600  1
  C  806  1  0.00475600  0.90948800  0.75916700  1
  C  813  1  0.98388500  0.85629300  0.21302200  1
  C  815  1  0.99490300  0.82969600  0.24606400  1
  C  816  1  0.01033100  0.85396500  0.25537000  1
  C  818  1  0.99967300  0.88068600  0.22225100  1
  C  820  1  0.00389200  0.90774400  0.21176300  1
  C  827  1  0.00418800  0.12915300  0.21252800  1
  C  829  1  0.99275300  0.15622700  0.24540400  1
  C  830  1  0.97768100  0.13194800  0.25513500  1
  C  832  1  0.98877100  0.10473800  0.22218400  1
  C  834  1  0.98503000  0.07743400  0.21203200  1
  C  841  1  0.50452100  0.63102000  0.75751700  1
  C  843  1  0.49359800  0.65759400  0.72445600  1
  C  844  1  0.47794400  0.63339500  0.71521500  1
  C  846  1  0.48853700  0.60669000  0.74834500  1
  C  848  1  0.48418600  0.57967000  0.75886400  1
  C  855  1  0.48391800  0.35819200  0.75807500  1
  C  857  1  0.49538300  0.33114400  0.72518200  1
  C  858  1  0.51052200  0.35541100  0.71547600  1
  C  860  1  0.49936500  0.38260600  0.74843300  1
  C  862  1  0.50312300  0.40989800  0.75860900  1
  C  869  1  0.48280300  0.35699600  0.21289100  1
  C  871  1  0.49427400  0.33008900  0.24576700  1
  C  872  1  0.50961300  0.35431100  0.25522100  1
  C  874  1  0.49851700  0.38134100  0.22226300  1
  C  876  1  0.50252200  0.40853800  0.21194200  1
  C  883  1  0.50405700  0.62973400  0.21221200  1
  C  885  1  0.49408900  0.65616000  0.24562000  1
  C  886  1  0.47763100  0.63227600  0.25493300  1
  C  888  1  0.48725400  0.60574600  0.22147400  1
  C  890  1  0.48180500  0.57906500  0.21079600  1
  C  897  1  0.34355800  0.15039700  0.86332800  1
  C  898  1  0.37294600  0.16537600  0.85757300  1
  C  899  1  0.39266600  0.17963000  0.87326300  1
  C  900  1  0.38263200  0.17789400  0.89551800  1
  C  901  1  0.35378100  0.16292400  0.90232100  1
  C  902  1  0.33436400  0.14934600  0.88592500  1
  C  905  1  0.32551100  0.13489500  0.84676200  1
  C  906  1  0.31400800  0.14774400  0.82688500  1
  C  907  1  0.29634900  0.13149600  0.81090800  1
  C  908  1  0.29094300  0.10186000  0.81549200  1
  C  909  1  0.30192900  0.08843200  0.83486600  1
  C  910  1  0.31983500  0.10500700  0.84998400  1
  C  917  1  0.29600600  0.05934400  0.83852300  1
  C  918  1  0.34447500  0.16217400  0.92452900  1
  C  919  1  0.42127000  0.19453600  0.86670700  1
  C  920  1  0.28455100  0.14357900  0.79114300  1
  C  925  1  0.14305100  0.83746300  0.86431900  1
  C  926  1  0.11379700  0.82251700  0.85862000  1
  C  927  1  0.09389410  0.80798400  0.87431200  1
  C  928  1  0.10368700  0.80930500  0.89651500  1
  C  929  1  0.13244800  0.82421700  0.90322800  1
  C  930  1  0.15196700  0.83819300  0.88684100  1
  C  933  1  0.16124800  0.85323900  0.84778400  1
  C  934  1  0.17339200  0.84057600  0.82786900  1
  C  935  1  0.19112200  0.85709800  0.81187200  1
  C  936  1  0.19595200  0.88680900  0.81645400  1
  C  937  1  0.18414300  0.90001100  0.83583800  1
  C  938  1  0.16626900  0.88319200  0.85103200  1
  C  945  1  0.18857600  0.92927900  0.83923000  1
  C  946  1  0.14172100  0.82453800  0.92531800  1
  C  947  1  0.06540110  0.79321700  0.86771800  1
  C  948  1  0.20327800  0.84518400  0.79201500  1
  C  953  1  0.34111800  0.83627800  0.60677800  1
  C  954  1  0.37095900  0.82144600  0.61216800  1
  C  955  1  0.39119900  0.80754100  0.59615000  1
  C  956  1  0.38109600  0.80924400  0.57402400  1
  C  957  1  0.35167300  0.82408300  0.56764500  1
  C  958  1  0.33188600  0.83758100  0.58432700  1
  C  961  1  0.32281700  0.85167600  0.62358900  1
  C  962  1  0.31071100  0.83847100  0.64318700  1
  C  963  1  0.29260500  0.85472200  0.65935200  1
  C  964  1  0.28712600  0.88457300  0.65530000  1
  C  965  1  0.29953400  0.89833900  0.63638300  1
  C  966  1  0.31779500  0.88181300  0.62096200  1
  C  973  1  0.29456700  0.92767800  0.63329000  1
  C  974  1  0.34218200  0.82493000  0.54559500  1
  C  975  1  0.42046100  0.79317000  0.60237400  1
  C  976  1  0.27977300  0.84227300  0.67864500  1
  C  981  1  0.14629200  0.15248300  0.60733400  1
  C  982  1  0.11662100  0.16772400  0.61291100  1
  C  983  1  0.09655110  0.18150300  0.59697400  1
  C  984  1  0.10673800  0.17929600  0.57476000  1
  C  985  1  0.13599100  0.16408600  0.56818800  1
  C  986  1  0.15556000  0.15069600  0.58478500  1
  C  989  1  0.16430800  0.13706800  0.62406500  1
  C  990  1  0.17681000  0.15034900  0.64337900  1
  C  991  1  0.19468100  0.13406500  0.65943900  1
  C  992  1  0.19945700  0.10406100  0.65558700  1
  C  993  1  0.18652800  0.09027900  0.63701300  1
  C  994  1  0.16862200  0.10681400  0.62166100  1
  C  1001  1  0.19035500  0.06082000  0.63437300  1
  C  1002  1  0.14542500  0.16278200  0.54601300  1
  C  1003  1  0.06735510  0.19624600  0.60328400  1
  C  1004  1  0.20777500  0.14657700  0.67848900  1
  C  1009  1  0.14336900  0.83681300  0.10737800  1
  C  1010  1  0.11393400  0.82200900  0.11328300  1
  C  1011  1  0.09392410  0.80789900  0.09769500  1
  C  1012  1  0.10371400  0.80961900  0.07539400  1
  C  1013  1  0.13257100  0.82446600  0.06842900  1
  C  1014  1  0.15229700  0.83788900  0.08473300  1
  C  1017  1  0.16156500  0.85225200  0.12388900  1
  C  1018  1  0.17300200  0.83940200  0.14378100  1
  C  1019  1  0.19059300  0.85565700  0.15978400  1
  C  1020  1  0.19595900  0.88530500  0.15522400  1
  C  1021  1  0.18501500  0.89871400  0.13583300  1
  C  1022  1  0.16720700  0.88213900  0.12067500  1
  C  1029  1  0.19090500  0.92779000  0.13218500  1
  C  1030  1  0.14129200  0.82548300  0.04612100  1
  C  1031  1  0.06534410  0.79309300  0.10441600  1
  C  1032  1  0.20230800  0.84358700  0.17957100  1
  C  1037  1  0.34363800  0.14934600  0.10638800  1
  C  1038  1  0.37298000  0.16405600  0.11220400  1
  C  1039  1  0.39317700  0.17833700  0.09656900  1
  C  1040  1  0.38362600  0.17700500  0.07432700  1
  C  1041  1  0.35481000  0.16226400  0.06748600  1
  C  1042  1  0.33496800  0.14852400  0.08382100  1
  C  1045  1  0.32533100  0.13367600  0.12290000  1
  C  1046  1  0.31320000  0.14643000  0.14278500  1
  C  1047  1  0.29562000  0.12993900  0.15886800  1
  C  1048  1  0.29099300  0.10016700  0.15441700  1
  C  1049  1  0.30284800  0.08690200  0.13507400  1
  C  1050  1  0.32051300  0.10368500  0.11976300  1
  C  1057  1  0.29865000  0.05760500  0.13184300  1
  C  1058  1  0.34617100  0.16154400  0.04527800  1
  C  1059  1  0.42181100  0.19276800  0.10323500  1
  C  1060  1  0.28344400  0.14194000  0.17868200  1
  C  1065  1  0.14564300  0.15131200  0.36393000  1
  C  1066  1  0.11554200  0.16565100  0.35842000  1
  C  1067  1  0.09490810  0.17924300  0.37435900  1
  C  1068  1  0.10489100  0.17776100  0.39651300  1
  C  1069  1  0.13454600  0.16337500  0.40302200  1
  C  1070  1  0.15473400  0.15016300  0.38641600  1
  C  1073  1  0.16416900  0.13598800  0.34720000  1
  C  1074  1  0.17615200  0.14916400  0.32755900  1
  C  1075  1  0.19428800  0.13291700  0.31140800  1
  C  1076  1  0.19986500  0.10308800  0.31550500  1
  C  1077  1  0.18754300  0.08935100  0.33445900  1
  C  1078  1  0.16930000  0.10587800  0.34988200  1
  C  1085  1  0.19255300  0.06003300  0.33759800  1
  C  1086  1  0.14354300  0.16237700  0.42516800  1
  C  1087  1  0.06534410  0.19305200  0.36807500  1
  C  1088  1  0.20699400  0.14533200  0.29206600  1
  C  1093  1  0.34064300  0.83558700  0.36331600  1
  C  1094  1  0.37054500  0.82079000  0.35762000  1
  C  1095  1  0.39098800  0.80737700  0.37349700  1
  C  1096  1  0.38098200  0.80944800  0.39574100  1
  C  1097  1  0.35153200  0.82428400  0.40244100  1
  C  1098  1  0.33157300  0.83736500  0.38590400  1
  C  1101  1  0.32244900  0.85085700  0.34662300  1
  C  1102  1  0.30998600  0.83746300  0.32734500  1
  C  1103  1  0.29222200  0.85367500  0.31119800  1
  C  1104  1  0.28759600  0.88372500  0.31489800  1
  C  1105  1  0.30054900  0.89758900  0.33342600  1
  C  1106  1  0.31826300  0.88113100  0.34890900  1
  C  1113  1  0.29689100  0.92706000  0.33589100  1
  C  1114  1  0.34264300  0.82585400  0.42471300  1
  C  1115  1  0.42051400  0.79327400  0.36714700  1
  C  1116  1  0.27911000  0.84105800  0.29220000  1
  C  1121  1  0.84381900  0.65064200  0.86287900  1
  C  1122  1  0.87255000  0.66655600  0.85707800  1
  C  1123  1  0.89176500  0.68140100  0.87273700  1
  C  1124  1  0.88179400  0.67949100  0.89499100  1
  C  1125  1  0.85371300  0.66353500  0.90182400  1
  C  1126  1  0.83478200  0.64934200  0.88549800  1
  C  1129  1  0.82586100  0.63500500  0.84631800  1
  C  1130  1  0.81409400  0.64784400  0.82650400  1
  C  1131  1  0.79627000  0.63158900  0.81061400  1
  C  1132  1  0.79081500  0.60197400  0.81525000  1
  C  1133  1  0.80196900  0.58854800  0.83458100  1
  C  1134  1  0.82016800  0.60511000  0.84956500  1
  C  1141  1  0.79590600  0.55948100  0.83830700  1
  C  1142  1  0.84436100  0.66293800  0.92398700  1
  C  1143  1  0.91897400  0.69815300  0.86620500  1
  C  1144  1  0.78435700  0.64366600  0.79088100  1
  C  1149  1  0.64194800  0.33796700  0.86408700  1
  C  1150  1  0.61349900  0.32187400  0.85838200  1
  C  1151  1  0.59409600  0.30694200  0.87411800  1
  C  1152  1  0.60352700  0.30893900  0.89635500  1
  C  1153  1  0.63144900  0.32496000  0.90305800  1
  C  1154  1  0.65054500  0.33931800  0.88665700  1
  C  1157  1  0.65999400  0.35377500  0.84746600  1
  C  1158  1  0.67248200  0.34099500  0.82767600  1
  C  1159  1  0.69023600  0.35746700  0.81165600  1
  C  1160  1  0.69487600  0.38723200  0.81612400  1
  C  1161  1  0.68278100  0.40055500  0.83538200  1
  C  1162  1  0.66476900  0.38380200  0.85055200  1
  C  1169  1  0.68709000  0.42986900  0.83863900  1
  C  1170  1  0.64062800  0.32549200  0.92513900  1
  C  1171  1  0.56706700  0.29027900  0.86753400  1
  C  1172  1  0.70264600  0.34543400  0.79190400  1
  C  1177  1  0.84114300  0.33598500  0.60673800  1
  C  1178  1  0.86998000  0.31968400  0.61216800  1
  C  1179  1  0.88954100  0.30498000  0.59618000  1
  C  1180  1  0.87970100  0.30725100  0.57402500  1
  C  1181  1  0.85142400  0.32363700  0.56759400  1
  C  1182  1  0.83227200  0.33787800  0.58423400  1
  C  1185  1  0.82300900  0.35149100  0.62362500  1
  C  1186  1  0.81057700  0.33827700  0.64314800  1
  C  1187  1  0.79238800  0.35453100  0.65927700  1
  C  1188  1  0.78696800  0.38438600  0.65522000  1
  C  1189  1  0.79956900  0.39817500  0.63636800  1
  C  1190  1  0.81807700  0.38166200  0.62105700  1
  C  1197  1  0.79445200  0.42750500  0.63322500  1
  C  1198  1  0.84196700  0.32460400  0.54556200  1
  C  1199  1  0.91667200  0.28769300  0.60246900  1
  C  1200  1  0.77936800  0.34209300  0.67852800  1
  C  1205  1  0.64548700  0.65197600  0.60736500  1
  C  1206  1  0.61675300  0.66857400  0.61290300  1
  C  1207  1  0.59733100  0.68286900  0.59689300  1
  C  1208  1  0.60720700  0.67998000  0.57467400  1
  C  1209  1  0.63550000  0.66344000  0.56815500  1
  C  1210  1  0.65446100  0.64949400  0.58479500  1
  C  1213  1  0.66323700  0.63650800  0.62420900  1
  C  1214  1  0.67613500  0.64990500  0.64336400  1
  C  1215  1  0.69397100  0.63365600  0.65945400  1
  C  1216  1  0.69846000  0.60359300  0.65577000  1
  C  1217  1  0.68520500  0.58970400  0.63735000  1
  C  1218  1  0.66720700  0.60618400  0.62200800  1
  C  1225  1  0.68895500  0.56021600  0.63484000  1
  C  1226  1  0.64488900  0.66180800  0.54600300  1
  C  1227  1  0.56974200  0.69976600  0.60313700  1
  C  1228  1  0.70737500  0.64626800  0.67835700  1
  C  1233  1  0.64201900  0.33691000  0.10713100  1
  C  1234  1  0.61336300  0.32092900  0.11297700  1
  C  1235  1  0.59379700  0.30647700  0.09730900  1
  C  1236  1  0.60310900  0.30903400  0.07498000  1
  C  1237  1  0.63115600  0.32498800  0.06808400  1
  C  1238  1  0.65060200  0.33861700  0.08443200  1
  C  1241  1  0.66002000  0.35251700  0.12372800  1
  C  1242  1  0.67156300  0.33988800  0.14369100  1
  C  1243  1  0.68925500  0.35627400  0.15958800  1
  C  1244  1  0.69476900  0.38583400  0.15479200  1
  C  1245  1  0.68388400  0.39911700  0.13530300  1
  C  1246  1  0.66579900  0.38236500  0.12037700  1
  C  1253  1  0.69053900  0.42800900  0.13095300  1
  C  1254  1  0.63980500  0.32619200  0.04579800  1
  C  1255  1  0.56672800  0.28966600  0.10395600  1
  C  1256  1  0.70115600  0.34436100  0.17941700  1
  C  1261  1  0.84280400  0.65123200  0.10546400  1
  C  1262  1  0.87220400  0.66590600  0.11137800  1
  C  1263  1  0.89230200  0.68077700  0.09596400  1
  C  1264  1  0.88296700  0.67964100  0.07367900  1
  C  1265  1  0.85436900  0.66482600  0.06667300  1
  C  1266  1  0.83414600  0.65118300  0.08283000  1
  C  1269  1  0.82369300  0.63568400  0.12184300  1
  C  1270  1  0.81395200  0.64737500  0.14266900  1
  C  1271  1  0.79434800  0.63133300  0.15801500  1
  C  1272  1  0.78460200  0.60322000  0.15167700  1
  C  1273  1  0.79367000  0.59086900  0.13136700  1
  C  1274  1  0.81396100  0.60702000  0.11709700  1
  C  1281  1  0.78092700  0.56449300  0.12478000  1
  C  1282  1  0.84588900  0.66470200  0.04447600  1
  C  1283  1  0.91959600  0.69695300  0.10288900  1
  C  1284  1  0.78382900  0.64252800  0.17852800  1
  C  1289  1  0.64496700  0.65117000  0.36380100  1
  C  1290  1  0.61636500  0.66775600  0.35830500  1
  C  1291  1  0.59653000  0.68208900  0.37431500  1
  C  1292  1  0.60561700  0.67908700  0.39654600  1
  C  1293  1  0.63374300  0.66255200  0.40305400  1
  C  1294  1  0.65328900  0.64873900  0.38639000  1
  C  1297  1  0.66321700  0.63577200  0.34687600  1
  C  1298  1  0.67581200  0.64906000  0.32741400  1
  C  1299  1  0.69394400  0.63284500  0.31121900  1
  C  1300  1  0.69914200  0.60293700  0.31514900  1
  C  1301  1  0.68637000  0.58906900  0.33391400  1
  C  1302  1  0.66791400  0.60554500  0.34927700  1
  C  1309  1  0.69131500  0.55970000  0.33692700  1
  C  1310  1  0.64245300  0.66091800  0.42522700  1
  C  1311  1  0.56954100  0.69941000  0.36799800  1
  C  1312  1  0.70718300  0.64533500  0.29204000  1
  C  1317  1  0.84076900  0.33517000  0.36323900  1
  C  1318  1  0.86931300  0.31835300  0.35760000  1
  C  1319  1  0.88897700  0.30405300  0.37351300  1
  C  1320  1  0.87951400  0.30717800  0.39578700  1
  C  1321  1  0.85156000  0.32404700  0.40245900  1
  C  1322  1  0.83230900  0.33788600  0.38589900  1
  C  1325  1  0.82280700  0.35061200  0.34639700  1
  C  1326  1  0.81003600  0.33734500  0.32712300  1
  C  1327  1  0.79218500  0.35362700  0.31102100  1
  C  1328  1  0.78752000  0.38363800  0.31484900  1
  C  1329  1  0.80058100  0.39744300  0.33333333  1
  C  1330  1  0.81862700  0.38091400  0.34867000  1
  C  1337  1  0.79660700  0.42690400  0.33605300  1
  C  1338  1  0.84278200  0.32591200  0.42471800  1
  C  1339  1  0.91596400  0.28635600  0.36723900  1
  C  1340  1  0.77887000  0.34115000  0.29199100  1
  C  1345  1  0.36695100  0.16067100  0.00796000  1
  C  1347  1  0.33473100  0.16103600  0.97496400  1
  C  1348  1  0.36396100  0.16177900  0.96195600  1
  C  1350  1  0.39656200  0.16110000  0.99504200  1
  C  1352  1  0.42948400  0.16133700  0.00330100  1
  C  1359  1  0.12024600  0.82641300  0.00906300  1
  C  1361  1  0.15198800  0.82571800  0.97548300  1
  C  1362  1  0.12257100  0.82522000  0.96300500  1
  C  1364  1  0.09045110  0.82622400  0.99669500  1
  C  1366  1  0.05764910  0.82629700  0.00557900  1
  C  1373  1  0.36352700  0.82608700  0.46183300  1
  C  1375  1  0.33176700  0.82662800  0.49539200  1
  C  1376  1  0.36116800  0.82502000  0.50785700  1
  C  1378  1  0.39331000  0.82476100  0.47419100  1
  C  1380  1  0.42610700  0.82353700  0.46532500  1
  C  1387  1  0.12305600  0.16164100  0.46258100  1
  C  1389  1  0.15530700  0.16159400  0.49554600  1
  C  1390  1  0.12606800  0.16276300  0.50855100  1
  C  1392  1  0.09344310  0.16247200  0.47549700  1
  C  1394  1  0.06051710  0.16315700  0.46723600  1
  C  1401  1  0.86642200  0.66027400  0.00734500  1
  C  1403  1  0.83481800  0.66553100  0.97429800  1
  C  1404  1  0.86381400  0.66158800  0.96132900  1
  C  1406  1  0.89564600  0.65585300  0.99443000  1
  C  1408  1  0.92781100  0.64996100  0.00278900  1
  C  1415  1  0.61913900  0.32889100  0.00879100  1
  C  1417  1  0.65049100  0.32354500  0.97526600  1
  C  1418  1  0.62132400  0.32697200  0.96273000  1
  C  1420  1  0.58973900  0.33272500  0.99632000  1
  C  1422  1  0.55766300  0.33858100  0.00522400  1
  C  1429  1  0.86325200  0.32765900  0.46182600  1
  C  1431  1  0.83180100  0.32335900  0.49535300  1
  C  1432  1  0.86101800  0.32576000  0.50788800  1
  C  1434  1  0.89269200  0.33045900  0.47431300  1
  C  1436  1  0.92484700  0.33533500  0.46545600  1
  C  1443  1  0.62223800  0.66003700  0.46262300  1
  C  1445  1  0.65458400  0.66211900  0.49551600  1
  C  1446  1  0.62542200  0.66165300  0.50860800  1
  C  1448  1  0.59281700  0.65921000  0.47568600  1
  C  1450  1  0.56010700  0.65665800  0.46752600  1
  C  1457  1  0.22898500  0.96699100  0.84015600  1
  C  1459  1  0.27106800  0.99865000  0.82630300  1
  C  1460  1  0.25634700  0.02215900  0.83757900  1
  C  1462  1  0.21443500  0.99051300  0.85200500  1
  C  1464  1  0.18725600  0.98864300  0.86678200  1
  C  1471  1  0.22988500  0.02226400  0.63113800  1
  C  1473  1  0.27171100  0.98922100  0.64393800  1
  C  1474  1  0.25556600  0.96610700  0.63365300  1
  C  1476  1  0.21386600  0.99916500  0.62023600  1
  C  1478  1  0.18574600  0.00190300  0.60659300  1
  C  1485  1  0.25826500  0.01995200  0.13034800  1
  C  1487  1  0.21534300  0.98868000  0.14354400  1
  C  1488  1  0.23073000  0.96487700  0.13301800  1
  C  1490  1  0.27353300  0.99611900  0.11926200  1
  C  1492  1  0.30165000  0.99758300  0.10523800  1
  C  1499  1  0.25748500  0.96557500  0.33970700  1
  C  1501  1  0.21488500  0.99829300  0.32756400  1
  C  1502  1  0.23161800  0.02164000  0.33711500  1
  C  1504  1  0.27416000  0.98891900  0.34984500  1
  C  1506  1  0.30309600  0.98651700  0.36276300  1
  C  1513  1  0.72764600  0.46754500  0.84003200  1
  C  1515  1  0.77116600  0.49849600  0.82719300  1
  C  1516  1  0.75580900  0.52246400  0.83752900  1
  C  1518  1  0.71240500  0.49153700  0.85094000  1
  C  1520  1  0.68404400  0.49031800  0.86476100  1
  C  1527  1  0.72859100  0.52171900  0.63116100  1
  C  1529  1  0.77164200  0.48926000  0.64309100  1
  C  1530  1  0.75507100  0.46579100  0.63358900  1
  C  1532  1  0.71209600  0.49825800  0.62104800  1
  C  1534  1  0.68303500  0.50048200  0.60823400  1
  C  1541  1  0.76419900  0.51788900  0.13498900  1
  C  1543  1  0.71452000  0.49082000  0.12961000  1
  C  1544  1  0.73170300  0.46495300  0.13475600  1
  C  1546  1  0.78185400  0.49204100  0.14002200  1
  C  1548  1  0.81604500  0.49038300  0.14552400  1
  C  1555  1  0.75676700  0.46533200  0.33920300  1
  C  1557  1  0.71465600  0.49817300  0.32646600  1
  C  1558  1  0.73056000  0.52135700  0.33682800  1
  C  1560  1  0.77255500  0.48849700  0.35016700  1
  C  1562  1  0.80063200  0.48588900  0.36385300  1
  C  1569  1  0.51707800  0.26627600  0.87959100  1
  C  1571  1  0.48474000  0.23161200  0.86002600  1
  C  1572  1  0.46257200  0.22911600  0.87796400  1
  C  1574  1  0.49472200  0.26415600  0.89764400  1
  C  1576  1  0.49723800  0.27948100  0.91767500  1
  C  1583  1  0.96914400  0.72125700  0.87897200  1
  C  1585  1  0.00242909  0.75634500  0.86017100  1
  C  1586  1  0.02365910  0.75852800  0.87836100  1
  C  1588  1  0.99049100  0.72309000  0.89730100  1
  C  1590  1  0.98683600  0.70747900  0.91717100  1
  C  1597  1  0.51826300  0.72129900  0.59091000  1
  C  1599  1  0.48524200  0.75777200  0.60908800  1
  C  1600  1  0.46236200  0.75802900  0.59170100  1
  C  1602  1  0.49522600  0.72113800  0.57343500  1
  C  1604  1  0.49773800  0.70359600  0.55441400  1
  C  1611  1  0.96890500  0.26686000  0.59024600  1
  C  1613  1  0.00192409  0.23159000  0.60938500  1
  C  1614  1  0.02498410  0.23039200  0.59183800  1
  C  1616  1  0.99213600  0.26606000  0.57259500  1
  C  1618  1  0.98970100  0.28235100  0.55297400  1
  C  1625  1  0.96927100  0.72173600  0.09080600  1
  C  1627  1  0.00197009  0.75545100  0.11106900  1
  C  1628  1  0.02341110  0.75922200  0.09289200  1
  C  1630  1  0.99085100  0.72531500  0.07249900  1
  C  1632  1  0.98800700  0.71120400  0.05202800  1
  C  1639  1  0.51695400  0.26578600  0.09190600  1
  C  1641  1  0.48526700  0.22935500  0.11043000  1
  C  1642  1  0.46292000  0.22805900  0.09277600  1
  C  1644  1  0.49443200  0.26476200  0.07417100  1
  C  1646  1  0.49615800  0.28194800  0.05501300  1
  C  1653  1  0.96836900  0.26604600  0.37904100  1
  C  1655  1  0.99943800  0.22743600  0.36188900  1
  C  1656  1  0.02363110  0.22852700  0.37845800  1
  C  1658  1  0.99273200  0.26738500  0.39566700  1
  C  1660  1  0.99245300  0.28712600  0.41337700  1
  C  1667  1  0.51728300  0.72072700  0.37922400  1
  C  1669  1  0.48716000  0.75936400  0.36180600  1
  C  1670  1  0.46187200  0.75793400  0.37794800  1
  C  1672  1  0.49176500  0.71897800  0.39536000  1
  C  1674  1  0.49081300  0.69864400  0.41265900  1
  C  1681  1  0.25424800  0.13087700  0.75756900  1
  C  1683  1  0.24274900  0.15778500  0.72473900  1
  C  1684  1  0.22776900  0.13343800  0.71522600  1
  C  1686  1  0.23894900  0.10639200  0.74811900  1
  C  1688  1  0.23522400  0.07912600  0.75837600  1
  C  1695  1  0.23379800  0.85801700  0.75828800  1
  C  1697  1  0.24475000  0.83126300  0.72519200  1
  C  1698  1  0.26023300  0.85547200  0.71564500  1
  C  1700  1  0.24959600  0.88237000  0.74880600  1
  C  1702  1  0.25379400  0.90948800  0.75916700  1
  C  1709  1  0.23292300  0.85629300  0.21302200  1
  C  1711  1  0.24394100  0.82969600  0.24606400  1
  C  1712  1  0.25936900  0.85396500  0.25537000  1
  C  1714  1  0.24871100  0.88068600  0.22225100  1
  C  1716  1  0.25293000  0.90774400  0.21176300  1
  C  1723  1  0.25322600  0.12915300  0.21252800  1
  C  1725  1  0.24179100  0.15622700  0.24540400  1
  C  1726  1  0.22671900  0.13194800  0.25513500  1
  C  1728  1  0.23780900  0.10473800  0.22218400  1
  C  1730  1  0.23406800  0.07743400  0.21203200  1
  C  1737  1  0.75355900  0.63102000  0.75751700  1
  C  1739  1  0.74263600  0.65759400  0.72445600  1
  C  1740  1  0.72698200  0.63339500  0.71521500  1
  C  1742  1  0.73757500  0.60669000  0.74834500  1
  C  1744  1  0.73322400  0.57967000  0.75886400  1
  C  1751  1  0.73295600  0.35819200  0.75807500  1
  C  1753  1  0.74442100  0.33114400  0.72518200  1
  C  1754  1  0.75956000  0.35541100  0.71547600  1
  C  1756  1  0.74840300  0.38260600  0.74843300  1
  C  1758  1  0.75216100  0.40989800  0.75860900  1
  C  1765  1  0.73184100  0.35699600  0.21289100  1
  C  1767  1  0.74331200  0.33008900  0.24576700  1
  C  1768  1  0.75865100  0.35431100  0.25522100  1
  C  1770  1  0.74755500  0.38134100  0.22226300  1
  C  1772  1  0.75156000  0.40853800  0.21194200  1
  C  1779  1  0.75309500  0.62973400  0.21221200  1
  C  1781  1  0.74312700  0.65616000  0.24562000  1
  C  1782  1  0.72666900  0.63227600  0.25493300  1
  C  1784  1  0.73629200  0.60574600  0.22147400  1
  C  1786  1  0.73084300  0.57906500  0.21079600  1
  N  450  1  0.08833500  0.16074600  0.99715800  1
  N  453  1  0.14422500  0.16188000  0.97285700  1
  N  458  1  0.19034000  0.14723600  0.02156200  1
  N  461  1  0.11915300  0.16163600  0.02979500  1
  N  462  1  0.11684300  0.16246100  0.94013000  1
  N  464  1  0.90063400  0.82604800  0.99772400  1
  N  467  1  0.84438700  0.82541100  0.97445000  1
  N  472  1  0.79919500  0.84041000  0.02406300  1
  N  475  1  0.87023400  0.82534500  0.03091000  1
  N  476  1  0.87130300  0.82464800  0.94120300  1
  N  478  1  0.08505200  0.82684400  0.47315200  1
  N  481  1  0.14127600  0.82407600  0.49642900  1
  N  486  1  0.18685100  0.83730100  0.44685900  1
  N  489  1  0.11547200  0.82490800  0.44000700  1
  N  490  1  0.11438300  0.82431700  0.52963600  1
  N  492  1  0.90361900  0.16133700  0.47335400  1
  N  495  1  0.84770900  0.16326000  0.49767300  1
  N  500  1  0.80172600  0.14908900  0.44902300  1
  N  503  1  0.87268500  0.16268300  0.44076700  1
  N  504  1  0.87508300  0.16362900  0.53036000  1
  N  506  1  0.58828700  0.66503400  0.99649500  1
  N  509  1  0.64366800  0.65706500  0.97224000  1
  N  514  1  0.68442900  0.63217300  0.01997000  1
  N  517  1  0.61891800  0.66147300  0.02918500  1
  N  518  1  0.61684100  0.66224400  0.93951600  1
  N  520  1  0.39915800  0.32429400  0.99750500  1
  N  523  1  0.34344000  0.33131400  0.97409100  1
  N  528  1  0.30318400  0.35714000  0.02203200  1
  N  531  1  0.36866300  0.32767000  0.03065600  1
  N  532  1  0.37006400  0.32623000  0.94093400  1
  N  534  1  0.58508300  0.32403300  0.47310600  1
  N  537  1  0.64088600  0.32912800  0.49653600  1
  N  542  1  0.68144600  0.35402700  0.44884400  1
  N  545  1  0.61571700  0.32630700  0.43996300  1
  N  546  1  0.61428200  0.32484300  0.52967100  1
  N  548  1  0.40279000  0.66162300  0.47332400  1
  N  551  1  0.34705100  0.66029500  0.49784200  1
  N  556  1  0.30332600  0.63859000  0.45099600  1
  N  559  1  0.37149700  0.66118500  0.44078300  1
  N  560  1  0.37446700  0.66267100  0.53040400  1
  N  562  1  0.00763100  0.97235500  0.82790500  1
  N  565  1  0.97956200  0.01696600  0.84971700  1
  N  570  1  0.93566200  0.96741600  0.88190000  1
  N  573  1  0.96885700  0.94014000  0.83842400  1
  N  574  1  0.01768200  0.04908600  0.83573400  1
  N  576  1  0.00904100  0.01608000  0.64242500  1
  N  579  1  0.97830000  0.97217900  0.62245300  1
  N  584  1  0.93303700  0.02343400  0.59180400  1
  N  587  1  0.97064000  0.04953400  0.63286400  1
  N  588  1  0.01617600  0.93880300  0.63530800  1
  N  590  1  0.98083000  0.01491700  0.14195200  1
  N  593  1  0.01016800  0.96974200  0.12156000  1
  N  598  1  0.05619900  0.01839000  0.08987800  1
  N  601  1  0.02025900  0.04680800  0.13205100  1
  N  602  1  0.97119200  0.93799700  0.13488700  1
  N  604  1  0.97960600  0.97148500  0.32906300  1
  N  607  1  0.01148000  0.01583800  0.34763400  1
  N  612  1  0.05861500  0.96537000  0.37776100  1
  N  615  1  0.01859900  0.93829600  0.33803800  1
  N  616  1  0.97283900  0.04890600  0.33540500  1
  N  618  1  0.50732200  0.47236200  0.82870800  1
  N  621  1  0.47799900  0.51780700  0.84872800  1
  N  626  1  0.43115000  0.46973900  0.88026800  1
  N  629  1  0.46740300  0.44070500  0.83834400  1
  N  630  1  0.51750000  0.54930700  0.83565300  1
  N  632  1  0.50857300  0.51598000  0.64165900  1
  N  635  1  0.47698100  0.47142400  0.62318600  1
  N  640  1  0.42918100  0.52156900  0.59322100  1
  N  643  1  0.46920000  0.54896300  0.63285100  1
  N  644  1  0.51602300  0.43855900  0.63526800  1
  N  646  1  0.48213800  0.51614700  0.13040200  1
  N  649  1  0.51537500  0.46699900  0.13982800  1
  N  654  1  0.59066400  0.50763700  0.13683100  1
  N  657  1  0.52786500  0.54370700  0.13846100  1
  N  658  1  0.46948500  0.43894800  0.13647100  1
  N  660  1  0.47951500  0.47140000  0.32789700  1
  N  663  1  0.50979800  0.51540600  0.34801700  1
  N  668  1  0.55529200  0.46439800  0.37867100  1
  N  671  1  0.51818800  0.43812200  0.33741900  1
  N  672  1  0.47170600  0.54863700  0.33519800  1
  N  674  1  0.26204600  0.24967800  0.86163900  1
  N  677  1  0.21990300  0.24550400  0.89580200  1
  N  682  1  0.25957700  0.30678600  0.91943800  1
  N  685  1  0.29544900  0.28197000  0.88113400  1
  N  686  1  0.18706300  0.21226500  0.87947500  1
  N  688  1  0.72701700  0.73819900  0.86127800  1
  N  691  1  0.76730300  0.74179600  0.89594000  1
  N  696  1  0.72608400  0.68023600  0.91862500  1
  N  699  1  0.69280200  0.70533000  0.87998100  1
  N  700  1  0.80112000  0.77526300  0.88028300  1
  N  702  1  0.26322600  0.73983800  0.60787600  1
  N  705  1  0.21970600  0.73973000  0.57480100  1
  N  710  1  0.26139300  0.67635900  0.55408200  1
  N  713  1  0.29731700  0.70592400  0.58961900  1
  N  714  1  0.18619700  0.77451600  0.58991400  1
  N  716  1  0.72581400  0.24937000  0.60778400  1
  N  719  1  0.76962700  0.24762500  0.57437200  1
  N  724  1  0.72788100  0.30950100  0.55174300  1
  N  727  1  0.69190000  0.28239800  0.58883700  1
  N  728  1  0.80312200  0.21386400  0.59036900  1
  N  730  1  0.72673800  0.73723400  0.10924100  1
  N  733  1  0.76748700  0.74396800  0.07460200  1
  N  738  1  0.72912000  0.68355700  0.04967700  1
  N  741  1  0.69318200  0.70560300  0.08915300  1
  N  742  1  0.80085500  0.77599400  0.09150600  1
  N  744  1  0.26236800  0.24775300  0.10918700  1
  N  747  1  0.21982000  0.24584100  0.07560100  1
  N  752  1  0.25625100  0.30997800  0.05495600  1
  N  755  1  0.29516900  0.28174400  0.09045400  1
  N  756  1  0.18746200  0.21131300  0.09091500  1
  N  758  1  0.72376800  0.24585700  0.36297400  1
  N  761  1  0.76979300  0.24842200  0.39448300  1
  N  766  1  0.73418700  0.31520100  0.41140000  1
  N  769  1  0.69187900  0.28238000  0.38027500  1
  N  770  1  0.80178700  0.21217200  0.38023400  1
  N  772  1  0.26482800  0.74112000  0.36325400  1
  N  775  1  0.21659900  0.73783000  0.39388700  1
  N  780  1  0.25049700  0.67052500  0.41001100  1
  N  783  1  0.29591400  0.70485500  0.38105200  1
  N  784  1  0.18567600  0.77439300  0.37950100  1
  N  786  1  0.00658900  0.15548500  0.74527300  1
  N  789  1  0.97794900  0.10901300  0.72746300  1
  N  794  1  0.97594900  0.07600400  0.77937200  1
  N  797  1  0.01955300  0.12842500  0.77707300  1
  N  798  1  0.96614700  0.13102400  0.69529700  1
  N  800  1  0.98286000  0.83356200  0.74588400  1
  N  803  1  0.01246300  0.87976500  0.72798900  1
  N  808  1  0.01424900  0.91235300  0.78021700  1
  N  811  1  0.97028700  0.86050500  0.77790700  1
  N  812  1  0.02361200  0.85792000  0.69553400  1
  N  814  1  0.98203800  0.83189000  0.22552100  1
  N  817  1  0.01158500  0.87819300  0.24292800  1
  N  822  1  0.01389400  0.91045500  0.19068200  1
  N  825  1  0.96950000  0.85868100  0.19353600  1
  N  826  1  0.02289000  0.85649900  0.27529200  1
  N  828  1  0.00566200  0.15380800  0.22473600  1
  N  831  1  0.97682300  0.10746700  0.24298200  1
  N  836  1  0.97527200  0.07419900  0.19107000  1
  N  839  1  0.01860800  0.12660600  0.19290100  1
  N  840  1  0.96529500  0.12961100  0.27525600  1
  N  842  1  0.50651300  0.65538100  0.74498300  1
  N  845  1  0.47656500  0.60920200  0.72768600  1
  N  850  1  0.47426900  0.57704600  0.77996800  1
  N  853  1  0.51901300  0.62856700  0.77696200  1
  N  854  1  0.46529900  0.63086800  0.69532200  1
  N  856  1  0.48243900  0.33355500  0.74584400  1
  N  859  1  0.51138400  0.37987300  0.72765300  1
  N  864  1  0.51266300  0.41312000  0.77961800  1
  N  867  1  0.46937600  0.36077300  0.77766900  1
  N  868  1  0.52306400  0.35774800  0.69538900  1
  N  870  1  0.48125400  0.33245500  0.22526600  1
  N  873  1  0.51059900  0.37866600  0.24289700  1
  N  878  1  0.51240900  0.41154700  0.19086100  1
  N  881  1  0.46832900  0.35949800  0.19339100  1
  N  882  1  0.52237300  0.35665300  0.27514500  1
  N  884  1  0.50683500  0.65387700  0.22488800  1
  N  887  1  0.47543300  0.60828700  0.24231900  1
  N  892  1  0.47057400  0.57720400  0.19006900  1
  N  895  1  0.51788900  0.62738300  0.19234200  1
  N  896  1  0.46505100  0.62983100  0.27502700  1
  N  1346  1  0.33737300  0.16074600  0.99715800  1
  N  1349  1  0.39326300  0.16188000  0.97285700  1
  N  1354  1  0.43937800  0.14723600  0.02156200  1
  N  1357  1  0.36819100  0.16163600  0.02979500  1
  N  1358  1  0.36588100  0.16246100  0.94013000  1
  N  1360  1  0.14967200  0.82604800  0.99772400  1
  N  1363  1  0.09342510  0.82541100  0.97445000  1
  N  1368  1  0.04823310  0.84041000  0.02406300  1
  N  1371  1  0.11927200  0.82534500  0.03091000  1
  N  1372  1  0.12034100  0.82464800  0.94120300  1
  N  1374  1  0.33409000  0.82684400  0.47315200  1
  N  1377  1  0.39031400  0.82407600  0.49642900  1
  N  1382  1  0.43588900  0.83730100  0.44685900  1
  N  1385  1  0.36451000  0.82490800  0.44000700  1
  N  1386  1  0.36342100  0.82431700  0.52963600  1
  N  1388  1  0.15265700  0.16133700  0.47335400  1
  N  1391  1  0.09674710  0.16326000  0.49767300  1
  N  1396  1  0.05076410  0.14908900  0.44902300  1
  N  1399  1  0.12172300  0.16268300  0.44076700  1
  N  1400  1  0.12412100  0.16362900  0.53036000  1
  N  1402  1  0.83732500  0.66503400  0.99649500  1
  N  1405  1  0.89270600  0.65706500  0.97224000  1
  N  1410  1  0.93346700  0.63217300  0.01997000  1
  N  1413  1  0.86795600  0.66147300  0.02918500  1
  N  1414  1  0.86587900  0.66224400  0.93951600  1
  N  1416  1  0.64819600  0.32429400  0.99750500  1
  N  1419  1  0.59247800  0.33131400  0.97409100  1
  N  1424  1  0.55222200  0.35714000  0.02203200  1
  N  1427  1  0.61770100  0.32767000  0.03065600  1
  N  1428  1  0.61910200  0.32623000  0.94093400  1
  N  1430  1  0.83412100  0.32403300  0.47310600  1
  N  1433  1  0.88992400  0.32912800  0.49653600  1
  N  1438  1  0.93048400  0.35402700  0.44884400  1
  N  1441  1  0.86475500  0.32630700  0.43996300  1
  N  1442  1  0.86332000  0.32484300  0.52967100  1
  N  1444  1  0.65182800  0.66162300  0.47332400  1
  N  1447  1  0.59608900  0.66029500  0.49784200  1
  N  1452  1  0.55236400  0.63859000  0.45099600  1
  N  1455  1  0.62053500  0.66118500  0.44078300  1
  N  1456  1  0.62350500  0.66267100  0.53040400  1
  N  1458  1  0.25666900  0.97235500  0.82790500  1
  N  1461  1  0.22860000  0.01696600  0.84971700  1
  N  1466  1  0.18470000  0.96741600  0.88190000  1
  N  1469  1  0.21789500  0.94014000  0.83842400  1
  N  1470  1  0.26672000  0.04908600  0.83573400  1
  N  1472  1  0.25807900  0.01608000  0.64242500  1
  N  1475  1  0.22733800  0.97217900  0.62245300  1
  N  1480  1  0.18207500  0.02343400  0.59180400  1
  N  1483  1  0.21967800  0.04953400  0.63286400  1
  N  1484  1  0.26521400  0.93880300  0.63530800  1
  N  1486  1  0.22986800  0.01491700  0.14195200  1
  N  1489  1  0.25920600  0.96974200  0.12156000  1
  N  1494  1  0.30523700  0.01839000  0.08987800  1
  N  1497  1  0.26929700  0.04680800  0.13205100  1
  N  1498  1  0.22023000  0.93799700  0.13488700  1
  N  1500  1  0.22864400  0.97148500  0.32906300  1
  N  1503  1  0.26051800  0.01583800  0.34763400  1
  N  1508  1  0.30765300  0.96537000  0.37776100  1
  N  1511  1  0.26763700  0.93829600  0.33803800  1
  N  1512  1  0.22187700  0.04890600  0.33540500  1
  N  1514  1  0.75636000  0.47236200  0.82870800  1
  N  1517  1  0.72703700  0.51780700  0.84872800  1
  N  1522  1  0.68018800  0.46973900  0.88026800  1
  N  1525  1  0.71644100  0.44070500  0.83834400  1
  N  1526  1  0.76653800  0.54930700  0.83565300  1
  N  1528  1  0.75761100  0.51598000  0.64165900  1
  N  1531  1  0.72601900  0.47142400  0.62318600  1
  N  1536  1  0.67821900  0.52156900  0.59322100  1
  N  1539  1  0.71823800  0.54896300  0.63285100  1
  N  1540  1  0.76506100  0.43855900  0.63526800  1
  N  1542  1  0.73117600  0.51614700  0.13040200  1
  N  1545  1  0.76441300  0.46699900  0.13982800  1
  N  1550  1  0.83970200  0.50763700  0.13683100  1
  N  1553  1  0.77690300  0.54370700  0.13846100  1
  N  1554  1  0.71852300  0.43894800  0.13647100  1
  N  1556  1  0.72855300  0.47140000  0.32789700  1
  N  1559  1  0.75883600  0.51540600  0.34801700  1
  N  1564  1  0.80433000  0.46439800  0.37867100  1
  N  1567  1  0.76722600  0.43812200  0.33741900  1
  N  1568  1  0.72074400  0.54863700  0.33519800  1
  N  1570  1  0.51108400  0.24967800  0.86163900  1
  N  1573  1  0.46894100  0.24550400  0.89580200  1
  N  1578  1  0.50861500  0.30678600  0.91943800  1
  N  1581  1  0.54448700  0.28197000  0.88113400  1
  N  1582  1  0.43610100  0.21226500  0.87947500  1
  N  1584  1  0.97605500  0.73819900  0.86127800  1
  N  1587  1  0.01634110  0.74179600  0.89594000  1
  N  1592  1  0.97512200  0.68023600  0.91862500  1
  N  1595  1  0.94184000  0.70533000  0.87998100  1
  N  1596  1  0.05015810  0.77526300  0.88028300  1
  N  1598  1  0.51226400  0.73983800  0.60787600  1
  N  1601  1  0.46874400  0.73973000  0.57480100  1
  N  1606  1  0.51043100  0.67635900  0.55408200  1
  N  1609  1  0.54635500  0.70592400  0.58961900  1
  N  1610  1  0.43523500  0.77451600  0.58991400  1
  N  1612  1  0.97485200  0.24937000  0.60778400  1
  N  1615  1  0.01866510  0.24762500  0.57437200  1
  N  1620  1  0.97691900  0.30950100  0.55174300  1
  N  1623  1  0.94093800  0.28239800  0.58883700  1
  N  1624  1  0.05216010  0.21386400  0.59036900  1
  N  1626  1  0.97577600  0.73723400  0.10924100  1
  N  1629  1  0.01652510  0.74396800  0.07460200  1
  N  1634  1  0.97815800  0.68355700  0.04967700  1
  N  1637  1  0.94222000  0.70560300  0.08915300  1
  N  1638  1  0.04989310  0.77599400  0.09150600  1
  N  1640  1  0.51140600  0.24775300  0.10918700  1
  N  1643  1  0.46885800  0.24584100  0.07560100  1
  N  1648  1  0.50528900  0.30997800  0.05495600  1
  N  1651  1  0.54420700  0.28174400  0.09045400  1
  N  1652  1  0.43650000  0.21131300  0.09091500  1
  N  1654  1  0.97280600  0.24585700  0.36297400  1
  N  1657  1  0.01883110  0.24842200  0.39448300  1
  N  1662  1  0.98322500  0.31520100  0.41140000  1
  N  1665  1  0.94091700  0.28238000  0.38027500  1
  N  1666  1  0.05082510  0.21217200  0.38023400  1
  N  1668  1  0.51386600  0.74112000  0.36325400  1
  N  1671  1  0.46563700  0.73783000  0.39388700  1
  N  1676  1  0.49953500  0.67052500  0.41001100  1
  N  1679  1  0.54495200  0.70485500  0.38105200  1
  N  1680  1  0.43471400  0.77439300  0.37950100  1
  N  1682  1  0.25562700  0.15548500  0.74527300  1
  N  1685  1  0.22698700  0.10901300  0.72746300  1
  N  1690  1  0.22498700  0.07600400  0.77937200  1
  N  1693  1  0.26859100  0.12842500  0.77707300  1
  N  1694  1  0.21518500  0.13102400  0.69529700  1
  N  1696  1  0.23189800  0.83356200  0.74588400  1
  N  1699  1  0.26150100  0.87976500  0.72798900  1
  N  1704  1  0.26328700  0.91235300  0.78021700  1
  N  1707  1  0.21932500  0.86050500  0.77790700  1
  N  1708  1  0.27265000  0.85792000  0.69553400  1
  N  1710  1  0.23107600  0.83189000  0.22552100  1
  N  1713  1  0.26062300  0.87819300  0.24292800  1
  N  1718  1  0.26293200  0.91045500  0.19068200  1
  N  1721  1  0.21853800  0.85868100  0.19353600  1
  N  1722  1  0.27192800  0.85649900  0.27529200  1
  N  1724  1  0.25470000  0.15380800  0.22473600  1
  N  1727  1  0.22586100  0.10746700  0.24298200  1
  N  1732  1  0.22431000  0.07419900  0.19107000  1
  N  1735  1  0.26764600  0.12660600  0.19290100  1
  N  1736  1  0.21433300  0.12961100  0.27525600  1
  N  1738  1  0.75555100  0.65538100  0.74498300  1
  N  1741  1  0.72560300  0.60920200  0.72768600  1
  N  1746  1  0.72330700  0.57704600  0.77996800  1
  N  1749  1  0.76805100  0.62856700  0.77696200  1
  N  1750  1  0.71433700  0.63086800  0.69532200  1
  N  1752  1  0.73147700  0.33355500  0.74584400  1
  N  1755  1  0.76042200  0.37987300  0.72765300  1
  N  1760  1  0.76170100  0.41312000  0.77961800  1
  N  1763  1  0.71841400  0.36077300  0.77766900  1
  N  1764  1  0.77210200  0.35774800  0.69538900  1
  N  1766  1  0.73029200  0.33245500  0.22526600  1
  N  1769  1  0.75963700  0.37866600  0.24289700  1
  N  1774  1  0.76144700  0.41154700  0.19086100  1
  N  1777  1  0.71736700  0.35949800  0.19339100  1
  N  1778  1  0.77141100  0.35665300  0.27514500  1
  N  1780  1  0.75587300  0.65387700  0.22488800  1
  N  1783  1  0.72447100  0.60828700  0.24231900  1
  N  1788  1  0.71961200  0.57720400  0.19006900  1
  N  1791  1  0.76692700  0.62738300  0.19234200  1
  N  1792  1  0.71408900  0.62983100  0.27502700  1
  O  17  1  0.05628700  0.13612700  0.89170800  1
  O  18  1  0.06944900  0.17665500  0.82383200  1
  O  45  1  0.93177800  0.85152800  0.89252300  1
  O  46  1  0.92033100  0.81162300  0.82477600  1
  O  73  1  0.05357100  0.85111200  0.57901000  1
  O  74  1  0.06629600  0.80942300  0.64586600  1
  O  101  1  0.93562200  0.13677400  0.57926200  1
  O  102  1  0.92371100  0.17948600  0.64587300  1
  O  129  1  0.93228000  0.85102100  0.07880400  1
  O  130  1  0.91947100  0.81049100  0.14683500  1
  O  157  1  0.05710400  0.13524400  0.07803500  1
  O  158  1  0.06811300  0.17541100  0.14577800  1
  O  185  1  0.93512300  0.13698100  0.39185300  1
  O  186  1  0.92229200  0.17818000  0.32481800  1
  O  213  1  0.05335300  0.85107300  0.39152900  1
  O  214  1  0.06501400  0.80831000  0.32495300  1
  O  241  1  0.55710900  0.63556100  0.89138900  1
  O  242  1  0.56932100  0.67678400  0.82344400  1
  O  269  1  0.42983600  0.35341200  0.89239900  1
  O  270  1  0.41981600  0.31196700  0.82473800  1
  O  297  1  0.55460100  0.35235200  0.57880400  1
  O  298  1  0.56578400  0.30917700  0.64576600  1
  O  325  1  0.43388600  0.63460500  0.57926700  1
  O  326  1  0.42356200  0.67912200  0.64565500  1
  O  353  1  0.43020800  0.35231400  0.07843700  1
  O  354  1  0.41819000  0.31098800  0.14688700  1
  O  381  1  0.55554600  0.63939000  0.07672100  1
  O  382  1  0.57242400  0.67541100  0.14720200  1
  O  409  1  0.43271800  0.63408500  0.39191800  1
  O  410  1  0.42273100  0.67819400  0.32491200  1
  O  437  1  0.55494200  0.35283400  0.39163000  1
  O  438  1  0.56464100  0.30815700  0.32472200  1
  O  457  1  0.20437400  0.17431300  0.99117500  1
  O  471  1  0.78429600  0.81372600  0.99384100  1
  O  485  1  0.20105600  0.80994500  0.47704200  1
  O  499  1  0.78738900  0.17643600  0.47936100  1
  O  513  1  0.70555200  0.65915300  0.99122500  1
  O  527  1  0.28174200  0.32911700  0.99423700  1
  O  541  1  0.70259700  0.32509700  0.47644800  1
  O  555  1  0.28551900  0.66856600  0.47916300  1
  O  569  1  0.91671200  0.01134000  0.86830000  1
  O  583  1  0.91507400  0.97972400  0.60578400  1
  O  597  1  0.07412300  0.97482500  0.10461300  1
  O  611  1  0.07582300  0.00863100  0.36261600  1
  O  625  1  0.41352700  0.51310600  0.86500000  1
  O  639  1  0.41247500  0.47818700  0.60844000  1
  O  653  1  0.57743500  0.46830300  0.15839700  1
  O  667  1  0.57316800  0.50810700  0.36466500  1
  O  681  1  0.23561200  0.26719400  0.93603100  1
  O  695  1  0.74954600  0.71943700  0.93574300  1
  O  709  1  0.23472800  0.71350300  0.53573600  1
  O  723  1  0.75478200  0.27126400  0.53454600  1
  O  737  1  0.75066300  0.72476200  0.03393500  1
  O  751  1  0.23435400  0.27128400  0.03628400  1
  O  765  1  0.75809700  0.27899100  0.43230000  1
  O  779  1  0.22587500  0.70612700  0.43149600  1
  O  793  1  0.98821000  0.05503300  0.74583100  1
  O  807  1  0.00400100  0.93365800  0.74666900  1
  O  821  1  0.00264700  0.93202800  0.22412700  1
  O  835  1  0.98652300  0.05340000  0.22465000  1
  O  849  1  0.48536300  0.55536500  0.74652300  1
  O  863  1  0.50190600  0.43391300  0.74595600  1
  O  877  1  0.50122500  0.43266900  0.22447400  1
  O  891  1  0.48254700  0.55449700  0.22283400  1
  O  913  1  0.30532500  0.13612700  0.89170800  1
  O  914  1  0.31848700  0.17665500  0.82383200  1
  O  941  1  0.18081600  0.85152800  0.89252300  1
  O  942  1  0.16936900  0.81162300  0.82477600  1
  O  969  1  0.30260900  0.85111200  0.57901000  1
  O  970  1  0.31533400  0.80942300  0.64586600  1
  O  997  1  0.18466000  0.13677400  0.57926200  1
  O  998  1  0.17274900  0.17948600  0.64587300  1
  O  1025  1  0.18131800  0.85102100  0.07880400  1
  O  1026  1  0.16850900  0.81049100  0.14683500  1
  O  1053  1  0.30614200  0.13524400  0.07803500  1
  O  1054  1  0.31715100  0.17541100  0.14577800  1
  O  1081  1  0.18416100  0.13698100  0.39185300  1
  O  1082  1  0.17133000  0.17818000  0.32481800  1
  O  1109  1  0.30239100  0.85107300  0.39152900  1
  O  1110  1  0.31405200  0.80831000  0.32495300  1
  O  1137  1  0.80614700  0.63556100  0.89138900  1
  O  1138  1  0.81835900  0.67678400  0.82344400  1
  O  1165  1  0.67887400  0.35341200  0.89239900  1
  O  1166  1  0.66885400  0.31196700  0.82473800  1
  O  1193  1  0.80363900  0.35235200  0.57880400  1
  O  1194  1  0.81482200  0.30917700  0.64576600  1
  O  1221  1  0.68292400  0.63460500  0.57926700  1
  O  1222  1  0.67260000  0.67912200  0.64565500  1
  O  1249  1  0.67924600  0.35231400  0.07843700  1
  O  1250  1  0.66722800  0.31098800  0.14688700  1
  O  1277  1  0.80458400  0.63939000  0.07672100  1
  O  1278  1  0.82146200  0.67541100  0.14720200  1
  O  1305  1  0.68175600  0.63408500  0.39191800  1
  O  1306  1  0.67176900  0.67819400  0.32491200  1
  O  1333  1  0.80398000  0.35283400  0.39163000  1
  O  1334  1  0.81367900  0.30815700  0.32472200  1
  O  1353  1  0.45341200  0.17431300  0.99117500  1
  O  1367  1  0.03333410  0.81372600  0.99384100  1
  O  1381  1  0.45009400  0.80994500  0.47704200  1
  O  1395  1  0.03642710  0.17643600  0.47936100  1
  O  1409  1  0.95459000  0.65915300  0.99122500  1
  O  1423  1  0.53078000  0.32911700  0.99423700  1
  O  1437  1  0.95163500  0.32509700  0.47644800  1
  O  1451  1  0.53455700  0.66856600  0.47916300  1
  O  1465  1  0.16575000  0.01134000  0.86830000  1
  O  1479  1  0.16411200  0.97972400  0.60578400  1
  O  1493  1  0.32316100  0.97482500  0.10461300  1
  O  1507  1  0.32486100  0.00863100  0.36261600  1
  O  1521  1  0.66256500  0.51310600  0.86500000  1
  O  1535  1  0.66151300  0.47818700  0.60844000  1
  O  1549  1  0.82647300  0.46830300  0.15839700  1
  O  1563  1  0.82220600  0.50810700  0.36466500  1
  O  1577  1  0.48465000  0.26719400  0.93603100  1
  O  1591  1  0.99858400  0.71943700  0.93574300  1
  O  1605  1  0.48376600  0.71350300  0.53573600  1
  O  1619  1  0.00382009  0.27126400  0.53454600  1
  O  1633  1  0.99970100  0.72476200  0.03393500  1
  O  1647  1  0.48339200  0.27128400  0.03628400  1
  O  1661  1  0.00713509  0.27899100  0.43230000  1
  O  1675  1  0.47491300  0.70612700  0.43149600  1
  O  1689  1  0.23724800  0.05503300  0.74583100  1
  O  1703  1  0.25303900  0.93365800  0.74666900  1
  O  1717  1  0.25168500  0.93202800  0.22412700  1
  O  1731  1  0.23556100  0.05340000  0.22465000  1
  O  1745  1  0.73440100  0.55536500  0.74652300  1
  O  1759  1  0.75094400  0.43391300  0.74595600  1
  O  1773  1  0.75026300  0.43266900  0.22447400  1
  O  1787  1  0.73158500  0.55449700  0.22283400  1
