# generated using pymatgen
data_H31(C11N)4
_symmetry_space_group_name_H-M   'P 1'
_cell_length_a   34.90780000
_cell_length_b   34.90780000
_cell_length_c   69.81180000
_cell_angle_alpha   89.95060000
_cell_angle_beta   90.04940000
_cell_angle_gamma   90.00000000
_symmetry_Int_Tables_number   1
_chemical_formula_structural   H31(C11N)4
_chemical_formula_sum   'H372 C528 N48'
_cell_volume   85069.41986311
_cell_formula_units_Z   12
loop_
 _symmetry_equiv_pos_site_id
 _symmetry_equiv_pos_as_xyz
  1  'x, y, z'
loop_
 _atom_site_type_symbol
 _atom_site_label
 _atom_site_symmetry_multiplicity
 _atom_site_fract_x
 _atom_site_fract_y
 _atom_site_fract_z
 _atom_site_occupancy
  H  73  1  0.95286100  0.96388500  0.82612800  1
  H  74  1  0.95227400  0.96574400  0.86025200  1
  H  75  1  0.04528000  0.04110100  0.82544800  1
  H  76  1  0.04531800  0.04250900  0.85950200  1
  H  77  1  0.01126900  0.06455200  0.88810600  1
  H  78  1  0.01094400  0.06607700  0.92228900  1
  H  79  1  0.98568900  0.94664500  0.88950800  1
  H  80  1  0.98478500  0.94852300  0.92366200  1
  H  81  1  0.92049200  0.00893600  0.93347600  1
  H  82  1  0.86830600  0.00895800  0.95863500  1
  H  83  1  0.97157500  0.00876500  0.98601600  1
  H  84  1  0.01906300  0.00917000  0.01038100  1
  H  85  1  0.07523400  0.00815800  0.93427900  1
  H  86  1  0.12589500  0.00876600  0.96037100  1
  H  87  1  0.14656500  0.06653200  0.00701100  1
  H  88  1  0.21494000  0.06594900  0.00781700  1
  H  89  1  0.14610300  0.94992600  0.99199300  1
  H  90  1  0.21447000  0.94906700  0.99294700  1
  H  91  1  0.12228200  0.00814000  0.03781400  1
  H  92  1  0.07010500  0.00852900  0.06293600  1
  H  93  1  0.86473700  0.00909700  0.03603600  1
  H  94  1  0.91543700  0.00865600  0.06214500  1
  H  95  1  0.00441000  0.94917600  0.07324600  1
  H  96  1  0.00416500  0.94853600  0.10741000  1
  H  97  1  0.98167100  0.06745200  0.07357600  1
  H  98  1  0.98232400  0.06724700  0.10771300  1
  H  99  1  0.95002800  0.04945900  0.13673100  1
  H  100  1  0.95163600  0.05045100  0.17083300  1
  H  101  1  0.03777400  0.96639400  0.17071700  1
  H  102  1  0.03730800  0.96609700  0.13654100  1
  H  103  1  0.84442100  0.06795500  0.99123500  1
  H  104  1  0.77612700  0.06811000  0.99116500  1
  H  105  1  0.71768400  0.96747000  0.01868100  1
  H  106  1  0.64948600  0.96788200  0.01871500  1
  H  107  1  0.64959500  0.05154200  0.97541900  1
  H  108  1  0.71781700  0.05057400  0.97492000  1
  H  109  1  0.77602500  0.94953300  0.00239000  1
  H  110  1  0.84433100  0.94980400  0.00289100  1
  H  111  1  0.27388800  0.97120700  0.97699400  1
  H  112  1  0.34234000  0.96942300  0.97879900  1
  H  113  1  0.27102200  0.04165700  0.02592000  1
  H  114  1  0.33936800  0.03982700  0.02751000  1
  H  191  1  0.96831100  0.04287000  0.32577400  1
  H  192  1  0.96946600  0.04373400  0.35979700  1
  H  193  1  0.04514800  0.95012700  0.32562600  1
  H  194  1  0.04589800  0.95040400  0.35978800  1
  H  195  1  0.06709700  0.98457000  0.38857000  1
  H  196  1  0.06755700  0.98531800  0.42276300  1
  H  197  1  0.94923900  0.01049400  0.38888400  1
  H  198  1  0.95005100  0.01181300  0.42304400  1
  H  199  1  0.00960000  0.07612700  0.43336800  1
  H  200  1  0.00905000  0.12837300  0.45849700  1
  H  201  1  0.00887100  0.02517100  0.48593500  1
  H  202  1  0.00869000  0.97773500  0.51033600  1
  H  203  1  0.00881700  0.92137500  0.43426600  1
  H  204  1  0.00883900  0.87078600  0.46039200  1
  H  205  1  0.06631900  0.85023700  0.50691800  1
  H  206  1  0.06575000  0.78186100  0.50769200  1
  H  207  1  0.94956900  0.85072100  0.49207500  1
  H  208  1  0.94871500  0.78235300  0.49301400  1
  H  209  1  0.00782300  0.87456600  0.53781400  1
  H  210  1  0.00814200  0.92679400  0.56291600  1
  H  211  1  0.00873700  0.13210400  0.53590500  1
  H  212  1  0.00823200  0.08145700  0.56203800  1
  H  213  1  0.94900600  0.99266700  0.57335400  1
  H  214  1  0.94882500  0.99318000  0.60752700  1
  H  215  1  0.06734700  0.01507100  0.57334800  1
  H  216  1  0.06760100  0.01466300  0.60747600  1
  H  217  1  0.05032800  0.04759700  0.63628600  1
  H  218  1  0.05183900  0.04686500  0.67036800  1
  H  219  1  0.96737100  0.96113900  0.67108100  1
  H  220  1  0.96657000  0.96070300  0.63688600  1
  H  221  1  0.06767500  0.15234600  0.49112600  1
  H  222  1  0.06786100  0.22063400  0.49108100  1
  H  223  1  0.96728200  0.27910400  0.51858000  1
  H  224  1  0.96774700  0.34730300  0.51864700  1
  H  225  1  0.05138800  0.34720900  0.47541500  1
  H  226  1  0.05036200  0.27899300  0.47488100  1
  H  227  1  0.94931700  0.22078100  0.50228000  1
  H  228  1  0.94955600  0.15247500  0.50275400  1
  H  229  1  0.97056500  0.72296700  0.47704600  1
  H  230  1  0.96873700  0.65452100  0.47884800  1
  H  231  1  0.04178400  0.72573200  0.52575900  1
  H  232  1  0.03993300  0.65738500  0.52733500  1
  H  242  1  0.93964100  0.02982600  0.26160300  1
  H  244  1  0.04644100  0.97824200  0.26931800  1
  H  246  1  0.90948300  0.03705000  0.23239100  1
  H  247  1  0.92256000  0.00270900  0.21515600  1
  H  248  1  0.94265100  0.04952200  0.21448900  1
  H  250  1  0.06929600  0.96473700  0.21831900  1
  H  251  1  0.06714900  0.93562500  0.23896200  1
  H  252  1  0.08994400  0.98101600  0.23970500  1
  H  254  1  0.96708500  0.02793600  0.29291800  1
  H  256  1  0.00773500  0.96032400  0.20399800  1
  H  262  1  0.03323000  0.06374100  0.76049000  1
  H  264  1  0.98198700  0.95748600  0.77026900  1
  H  266  1  0.03962500  0.09196000  0.73077200  1
  H  267  1  0.00498700  0.07765400  0.71391100  1
  H  268  1  0.05184400  0.05763100  0.71339600  1
  H  270  1  0.96744500  0.93105600  0.71976900  1
  H  271  1  0.93875900  0.93455100  0.74049100  1
  H  272  1  0.98425000  0.91198000  0.74142900  1
  H  274  1  0.03323100  0.03741900  0.79224600  1
  H  276  1  0.96245000  0.99142700  0.70440500  1
  H  282  1  0.52211400  0.93964700  0.99264700  1
  H  284  1  0.53661900  0.05458000  0.00759000  1
  H  286  1  0.46315300  0.91179100  0.98565300  1
  H  287  1  0.43063500  0.94427600  0.97519000  1
  H  288  1  0.42585600  0.93105600  0.99965300  1
  H  290  1  0.43401400  0.08058300  0.00737900  1
  H  291  1  0.47692400  0.09813500  0.99735300  1
  H  292  1  0.47479800  0.08556800  0.02195800  1
  H  294  1  0.58333200  0.96385100  0.00713800  1
  H  296  1  0.40763200  0.02766400  0.98220500  1
  H  302  1  0.93960300  0.47476900  0.49256100  1
  H  304  1  0.05448600  0.46011100  0.50764900  1
  H  306  1  0.91184900  0.53376000  0.48551400  1
  H  307  1  0.94439200  0.56632900  0.47516400  1
  H  308  1  0.93104900  0.57097100  0.49960700  1
  H  310  1  0.08060600  0.56266700  0.50757100  1
  H  311  1  0.09813800  0.51979700  0.49751100  1
  H  312  1  0.08550400  0.52180500  0.52210200  1
  H  314  1  0.96371800  0.41348900  0.50705000  1
  H  316  1  0.02835900  0.58916800  0.48246400  1
  H  389  1  0.72368600  0.76335700  0.76883100  1
  H  390  1  0.72309900  0.76521600  0.80295500  1
  H  391  1  0.81610500  0.84057300  0.76815100  1
  H  392  1  0.81614300  0.84198100  0.80220500  1
  H  393  1  0.78209400  0.86402400  0.83080900  1
  H  394  1  0.78176900  0.86554900  0.86499200  1
  H  395  1  0.75651400  0.74611700  0.83221100  1
  H  396  1  0.75561000  0.74799500  0.86636500  1
  H  397  1  0.69131700  0.80840800  0.87617900  1
  H  398  1  0.63913100  0.80843000  0.90133810  1
  H  399  1  0.74240000  0.80823700  0.92871910  1
  H  400  1  0.78988800  0.80864200  0.95308410  1
  H  401  1  0.84605900  0.80763000  0.87698200  1
  H  402  1  0.89672000  0.80823800  0.90307410  1
  H  403  1  0.91738990  0.86600400  0.94971410  1
  H  404  1  0.98576490  0.86542100  0.95052010  1
  H  405  1  0.91692790  0.74939800  0.93469610  1
  H  406  1  0.98529490  0.74853900  0.93565010  1
  H  407  1  0.89310700  0.80761200  0.98051710  1
  H  408  1  0.84093000  0.80800100  0.00563900  1
  H  409  1  0.63556200  0.80856900  0.97873910  1
  H  410  1  0.68626200  0.80812800  0.00484800  1
  H  411  1  0.77523500  0.74864800  0.01594900  1
  H  412  1  0.77499000  0.74800800  0.05011300  1
  H  413  1  0.75249600  0.86692400  0.01627900  1
  H  414  1  0.75314900  0.86671900  0.05041600  1
  H  415  1  0.72085300  0.84893100  0.07943400  1
  H  416  1  0.72246100  0.84992300  0.11353600  1
  H  417  1  0.80859900  0.76586600  0.11342000  1
  H  418  1  0.80813300  0.76556900  0.07924400  1
  H  419  1  0.61524600  0.86742700  0.93393810  1
  H  420  1  0.54695200  0.86758200  0.93386810  1
  H  421  1  0.48850900  0.76694200  0.96138410  1
  H  422  1  0.42031100  0.76735400  0.96141810  1
  H  423  1  0.42042000  0.85101400  0.91812210  1
  H  424  1  0.48864200  0.85004600  0.91762310  1
  H  425  1  0.54685000  0.74900500  0.94509310  1
  H  426  1  0.61515600  0.74927600  0.94559410  1
  H  427  1  0.04471300  0.77067900  0.91969710  1
  H  428  1  0.11316500  0.76889500  0.92150210  1
  H  429  1  0.04184700  0.84112900  0.96862310  1
  H  430  1  0.11019300  0.83929900  0.97021310  1
  H  507  1  0.73913600  0.84234200  0.26847700  1
  H  508  1  0.74029100  0.84320600  0.30250000  1
  H  509  1  0.81597300  0.74959900  0.26832900  1
  H  510  1  0.81672300  0.74987600  0.30249100  1
  H  511  1  0.83792200  0.78404200  0.33127300  1
  H  512  1  0.83838200  0.78479000  0.36546600  1
  H  513  1  0.72006400  0.80996600  0.33158700  1
  H  514  1  0.72087600  0.81128500  0.36574700  1
  H  515  1  0.78042500  0.87559900  0.37607100  1
  H  516  1  0.77987500  0.92784480  0.40120000  1
  H  517  1  0.77969600  0.82464300  0.42863800  1
  H  518  1  0.77951500  0.77720700  0.45303900  1
  H  519  1  0.77964200  0.72084700  0.37696900  1
  H  520  1  0.77966400  0.67025800  0.40309500  1
  H  521  1  0.83714400  0.64970900  0.44962100  1
  H  522  1  0.83657500  0.58133300  0.45039500  1
  H  523  1  0.72039400  0.65019300  0.43477800  1
  H  524  1  0.71954000  0.58182500  0.43571700  1
  H  525  1  0.77864800  0.67403800  0.48051700  1
  H  526  1  0.77896700  0.72626600  0.50561900  1
  H  527  1  0.77956200  0.93157580  0.47860800  1
  H  528  1  0.77905700  0.88092900  0.50474100  1
  H  529  1  0.71983100  0.79213900  0.51605700  1
  H  530  1  0.71965000  0.79265200  0.55023000  1
  H  531  1  0.83817200  0.81454300  0.51605100  1
  H  532  1  0.83842600  0.81413500  0.55017900  1
  H  533  1  0.82115300  0.84706900  0.57898900  1
  H  534  1  0.82266400  0.84633700  0.61307100  1
  H  535  1  0.73819600  0.76061100  0.61378400  1
  H  536  1  0.73739500  0.76017500  0.57958900  1
  H  537  1  0.83850000  0.95181780  0.43382900  1
  H  538  1  0.83868600  0.02010600  0.43378400  1
  H  539  1  0.73810700  0.07857600  0.46128300  1
  H  540  1  0.73857200  0.14677500  0.46135000  1
  H  541  1  0.82221300  0.14668100  0.41811800  1
  H  542  1  0.82118700  0.07846500  0.41758400  1
  H  543  1  0.72014200  0.02025300  0.44498300  1
  H  544  1  0.72038100  0.95194680  0.44545700  1
  H  545  1  0.74139000  0.52243900  0.41974900  1
  H  546  1  0.73956200  0.45399300  0.42155100  1
  H  547  1  0.81260900  0.52520400  0.46846200  1
  H  548  1  0.81075800  0.45685700  0.47003800  1
  H  558  1  0.71046600  0.82929800  0.20430600  1
  H  560  1  0.81726600  0.77771400  0.21202100  1
  H  562  1  0.68030800  0.83652200  0.17509400  1
  H  563  1  0.69338500  0.80218100  0.15785900  1
  H  564  1  0.71347600  0.84899400  0.15719200  1
  H  566  1  0.84012100  0.76420900  0.16102200  1
  H  567  1  0.83797400  0.73509700  0.18166500  1
  H  568  1  0.86076900  0.78048800  0.18240800  1
  H  570  1  0.73791000  0.82740800  0.23562100  1
  H  572  1  0.77856000  0.75979600  0.14670100  1
  H  578  1  0.80405500  0.86321300  0.70319300  1
  H  580  1  0.75281200  0.75695800  0.71297200  1
  H  582  1  0.81045000  0.89143200  0.67347500  1
  H  583  1  0.77581200  0.87712600  0.65661400  1
  H  584  1  0.82266900  0.85710300  0.65609900  1
  H  586  1  0.73827000  0.73052800  0.66247200  1
  H  587  1  0.70958400  0.73402300  0.68319400  1
  H  588  1  0.75507500  0.71145200  0.68413200  1
  H  590  1  0.80405600  0.83689100  0.73494900  1
  H  592  1  0.73327500  0.79089900  0.64710800  1
  H  598  1  0.29293900  0.73911900  0.93535010  1
  H  600  1  0.30744400  0.85405200  0.95029310  1
  H  602  1  0.23397800  0.71126300  0.92835610  1
  H  603  1  0.20146000  0.74374800  0.91789310  1
  H  604  1  0.19668100  0.73052800  0.94235610  1
  H  606  1  0.20483900  0.88005500  0.95008210  1
  H  607  1  0.24774900  0.89760700  0.94005610  1
  H  608  1  0.24562300  0.88504000  0.96466110  1
  H  610  1  0.35415700  0.76332300  0.94984110  1
  H  612  1  0.17845700  0.82713600  0.92490810  1
  H  618  1  0.71042800  0.27424100  0.43526400  1
  H  620  1  0.82531100  0.25958300  0.45035200  1
  H  622  1  0.68267400  0.33323200  0.42821700  1
  H  623  1  0.71521700  0.36580100  0.41786700  1
  H  624  1  0.70187400  0.37044300  0.44231000  1
  H  626  1  0.85143100  0.36213900  0.45027400  1
  H  627  1  0.86896300  0.31926900  0.44021400  1
  H  628  1  0.85632900  0.32127700  0.46480500  1
  H  630  1  0.73454300  0.21296100  0.44975300  1
  H  632  1  0.79918400  0.38864000  0.42516700  1
  H  705  1  0.49451100  0.56282900  0.71153400  1
  H  706  1  0.49392400  0.56468800  0.74565800  1
  H  707  1  0.58693000  0.64004500  0.71085400  1
  H  708  1  0.58696800  0.64145300  0.74490800  1
  H  709  1  0.55291900  0.66349600  0.77351200  1
  H  710  1  0.55259400  0.66502100  0.80769500  1
  H  711  1  0.52733900  0.54558900  0.77491400  1
  H  712  1  0.52643500  0.54746700  0.80906800  1
  H  713  1  0.46214200  0.60788000  0.81888200  1
  H  714  1  0.40995600  0.60790200  0.84404100  1
  H  715  1  0.51322500  0.60770900  0.87142200  1
  H  716  1  0.56071300  0.60811400  0.89578700  1
  H  717  1  0.61688400  0.60710200  0.81968500  1
  H  718  1  0.66754500  0.60771000  0.84577700  1
  H  719  1  0.68821500  0.66547600  0.89241700  1
  H  720  1  0.75659000  0.66489300  0.89322300  1
  H  721  1  0.68775300  0.54887000  0.87739900  1
  H  722  1  0.75612000  0.54801100  0.87835300  1
  H  723  1  0.66393200  0.60708400  0.92322020  1
  H  724  1  0.61175500  0.60747300  0.94834220  1
  H  725  1  0.40638700  0.60804100  0.92144220  1
  H  726  1  0.45708700  0.60760000  0.94755120  1
  H  727  1  0.54606000  0.54812000  0.95865220  1
  H  728  1  0.54581500  0.54748000  0.99281619  1
  H  729  1  0.52332100  0.66639600  0.95898220  1
  H  730  1  0.52397400  0.66619100  0.99311919  1
  H  731  1  0.49167800  0.64840300  0.02213700  1
  H  732  1  0.49328600  0.64939500  0.05623900  1
  H  733  1  0.57942400  0.56533800  0.05612300  1
  H  734  1  0.57895800  0.56504100  0.02194700  1
  H  735  1  0.38607100  0.66689900  0.87664100  1
  H  736  1  0.31777700  0.66705400  0.87657100  1
  H  737  1  0.25933400  0.56641400  0.90408720  1
  H  738  1  0.19113600  0.56682600  0.90412120  1
  H  739  1  0.19124500  0.65048600  0.86082500  1
  H  740  1  0.25946700  0.64951800  0.86032600  1
  H  741  1  0.31767500  0.54847700  0.88779600  1
  H  742  1  0.38598100  0.54874800  0.88829700  1
  H  743  1  0.81553800  0.57015100  0.86240000  1
  H  744  1  0.88399000  0.56836700  0.86420500  1
  H  745  1  0.81267200  0.64060100  0.91132620  1
  H  746  1  0.88101800  0.63877100  0.91291620  1
  H  823  1  0.50996100  0.64181400  0.21118000  1
  H  824  1  0.51111600  0.64267800  0.24520300  1
  H  825  1  0.58679800  0.54907100  0.21103200  1
  H  826  1  0.58754800  0.54934800  0.24519400  1
  H  827  1  0.60874700  0.58351400  0.27397600  1
  H  828  1  0.60920700  0.58426200  0.30816900  1
  H  829  1  0.49088900  0.60943800  0.27429000  1
  H  830  1  0.49170100  0.61075700  0.30845000  1
  H  831  1  0.55125000  0.67507100  0.31877400  1
  H  832  1  0.55070000  0.72731700  0.34390300  1
  H  833  1  0.55052100  0.62411500  0.37134100  1
  H  834  1  0.55034000  0.57667900  0.39574200  1
  H  835  1  0.55046700  0.52031900  0.31967200  1
  H  836  1  0.55048900  0.46973000  0.34579800  1
  H  837  1  0.60796900  0.44918100  0.39232400  1
  H  838  1  0.60740000  0.38080500  0.39309800  1
  H  839  1  0.49121900  0.44966500  0.37748100  1
  H  840  1  0.49036500  0.38129700  0.37842000  1
  H  841  1  0.54947300  0.47351000  0.42322000  1
  H  842  1  0.54979200  0.52573800  0.44832200  1
  H  843  1  0.55038700  0.73104800  0.42131100  1
  H  844  1  0.54988200  0.68040100  0.44744400  1
  H  845  1  0.49065600  0.59161100  0.45876000  1
  H  846  1  0.49047500  0.59212400  0.49293300  1
  H  847  1  0.60899700  0.61401500  0.45875400  1
  H  848  1  0.60925100  0.61360700  0.49288200  1
  H  849  1  0.59197800  0.64654100  0.52169200  1
  H  850  1  0.59348900  0.64580900  0.55577400  1
  H  851  1  0.50902100  0.56008300  0.55648700  1
  H  852  1  0.50822000  0.55964700  0.52229200  1
  H  853  1  0.60932500  0.75129000  0.37653200  1
  H  854  1  0.60951100  0.81957800  0.37648700  1
  H  855  1  0.50893200  0.87804800  0.40398600  1
  H  856  1  0.50939700  0.94624650  0.40405300  1
  H  857  1  0.59303800  0.94615250  0.36082100  1
  H  858  1  0.59201200  0.87793700  0.36028700  1
  H  859  1  0.49096700  0.81972500  0.38768600  1
  H  860  1  0.49120600  0.75141900  0.38816000  1
  H  861  1  0.51221500  0.32191100  0.36245200  1
  H  862  1  0.51038700  0.25346500  0.36425400  1
  H  863  1  0.58343400  0.32467600  0.41116500  1
  H  864  1  0.58158300  0.25632900  0.41274100  1
  H  874  1  0.48129100  0.62877000  0.14700900  1
  H  876  1  0.58809100  0.57718600  0.15472400  1
  H  878  1  0.45113300  0.63599400  0.11779700  1
  H  879  1  0.46421000  0.60165300  0.10056200  1
  H  880  1  0.48430100  0.64846600  0.09989500  1
  H  882  1  0.61094600  0.56368100  0.10372500  1
  H  883  1  0.60879900  0.53456900  0.12436800  1
  H  884  1  0.63159400  0.57996000  0.12511100  1
  H  886  1  0.50873500  0.62688000  0.17832400  1
  H  888  1  0.54938500  0.55926800  0.08940400  1
  H  894  1  0.57488000  0.66268500  0.64589600  1
  H  896  1  0.52363700  0.55643000  0.65567500  1
  H  898  1  0.58127500  0.69090400  0.61617800  1
  H  899  1  0.54663700  0.67659800  0.59931700  1
  H  900  1  0.59349400  0.65657500  0.59880200  1
  H  902  1  0.50909500  0.53000000  0.60517500  1
  H  903  1  0.48040900  0.53349500  0.62589700  1
  H  904  1  0.52590000  0.51092400  0.62683500  1
  H  906  1  0.57488100  0.63636300  0.67765200  1
  H  908  1  0.50410000  0.59037100  0.58981100  1
  H  914  1  0.06376400  0.53859100  0.87805300  1
  H  916  1  0.07826900  0.65352400  0.89299600  1
  H  918  1  0.00480300  0.51073500  0.87105900  1
  H  919  1  0.97228470  0.54322000  0.86059600  1
  H  920  1  0.96750570  0.53000000  0.88505900  1
  H  922  1  0.97566370  0.67952700  0.89278500  1
  H  923  1  0.01857400  0.69707900  0.88275900  1
  H  924  1  0.01644800  0.68451200  0.90736420  1
  H  926  1  0.12498200  0.56279500  0.89254400  1
  H  928  1  0.94928170  0.62660800  0.86761100  1
  H  934  1  0.48125300  0.07371300  0.37796700  1
  H  936  1  0.59613600  0.05905500  0.39305500  1
  H  938  1  0.45349900  0.13270400  0.37092000  1
  H  939  1  0.48604200  0.16527300  0.36057000  1
  H  940  1  0.47269900  0.16991500  0.38501300  1
  H  942  1  0.62225600  0.16161100  0.39297700  1
  H  943  1  0.63978800  0.11874100  0.38291700  1
  H  944  1  0.62715400  0.12074900  0.40750800  1
  H  946  1  0.50536800  0.01243300  0.39245600  1
  H  948  1  0.57000900  0.18811200  0.36787000  1
  C  1  1  0.92550700  0.00887700  0.94789900  1
  C  2  1  0.89695600  0.00899900  0.96165700  1
  C  3  1  0.91399100  0.00909700  0.97977700  1
  C  5  1  0.96112700  0.00861400  0.95706500  1
  C  6  1  0.99737100  0.00838800  0.94740600  1
  C  7  1  0.03333500  0.00860800  0.95726600  1
  C  9  1  0.07868900  0.00861400  0.98061900  1
  C  10  1  0.09705200  0.00864500  0.96285100  1
  C  11  1  0.06941500  0.00839100  0.94862100  1
  C  12  1  0.09732100  0.00870800  0.99888900  1
  C  13  1  0.07664800  0.00891300  0.01663400  1
  C  15  1  0.02949800  0.00872400  0.03933200  1
  C  16  1  0.06509600  0.00865700  0.04851100  1
  C  17  1  0.09365000  0.00854900  0.03476400  1
  C  18  1  0.99326500  0.00870200  0.04899200  1
  C  19  1  0.95729700  0.00893700  0.03914600  1
  C  21  1  0.91195900  0.00889400  0.01580000  1
  C  22  1  0.89358700  0.00898600  0.03356700  1
  C  23  1  0.92122800  0.00881600  0.04779900  1
  C  24  1  0.89334800  0.00900000  0.99752800  1
  C  25  1  0.85168200  0.00887200  0.99705600  1
  C  26  1  0.83028600  0.97503700  0.00034700  1
  C  27  1  0.78967400  0.97507700  0.00020800  1
  C  28  1  0.76787900  0.00880700  0.99673600  1
  C  29  1  0.78973200  0.04254100  0.99335100  1
  C  30  1  0.83034400  0.04265600  0.99354500  1
  C  31  1  0.72597500  0.00885000  0.99673100  1
  C  32  1  0.70418800  0.03305500  0.98447700  1
  C  33  1  0.66358200  0.03345800  0.98461400  1
  C  34  1  0.64205800  0.00947400  0.99689900  1
  C  35  1  0.66344400  0.98525100  0.00921700  1
  C  36  1  0.70407900  0.98495000  0.00908700  1
  C  37  1  0.99295300  0.00834500  0.06979800  1
  C  38  1  0.99963200  0.97434800  0.08035800  1
  C  39  1  0.99982200  0.97417100  0.10065600  1
  C  40  1  0.99323500  0.00782600  0.11163200  1
  C  41  1  0.98645600  0.04173700  0.10083500  1
  C  42  1  0.98636200  0.04207000  0.08054300  1
  C  43  1  0.99348800  0.00763000  0.13255600  1
  C  44  1  0.01825300  0.98357000  0.14340800  1
  C  45  1  0.01872900  0.98372500  0.16372100  1
  C  46  1  0.99432700  0.00805000  0.17440700  1
  C  47  1  0.96976300  0.03225500  0.16377100  1
  C  48  1  0.96916300  0.03185500  0.14348900  1
  C  49  1  0.13900900  0.00830900  0.99940200  1
  C  50  1  0.16051000  0.04145400  0.00402900  1
  C  51  1  0.20109800  0.04092900  0.00462900  1
  C  52  1  0.22269700  0.00743600  0.00046000  1
  C  53  1  0.20085900  0.97440000  0.99572600  1
  C  54  1  0.16025700  0.97472900  0.99530200  1
  C  55  1  0.26448200  0.00696000  0.00114900  1
  C  56  1  0.28700100  0.98609500  0.98777200  1
  C  57  1  0.32760100  0.98542200  0.98860500  1
  C  58  1  0.34800500  0.00550400  0.00296100  1
  C  59  1  0.32590500  0.02575400  0.01655700  1
  C  60  1  0.28537300  0.02693900  0.01549400  1
  C  61  1  0.99775000  0.00749000  0.92659600  1
  C  62  1  0.00559600  0.04060700  0.91554800  1
  C  63  1  0.99036600  0.97330500  0.91633500  1
  C  64  1  0.99062500  0.97237800  0.89604800  1
  C  65  1  0.99852100  0.00540500  0.88479600  1
  C  66  1  0.00608500  0.03950800  0.89525700  1
  C  67  1  0.99874900  0.00435500  0.86390400  1
  C  68  1  0.02511100  0.02604800  0.85281300  1
  C  69  1  0.02532200  0.02503500  0.83251400  1
  C  70  1  0.99894000  0.00235600  0.82201300  1
  C  71  1  0.97266200  0.98064200  0.83296800  1
  C  72  1  0.97259300  0.98154700  0.85326000  1
  C  119  1  0.00932100  0.07114600  0.44779300  1
  C  120  1  0.00911300  0.09972900  0.46153500  1
  C  121  1  0.00903200  0.08274200  0.47966600  1
  C  123  1  0.00905300  0.03554500  0.45697700  1
  C  124  1  0.00913700  0.99927200  0.44733900  1
  C  125  1  0.00908800  0.96333900  0.45722600  1
  C  127  1  0.00857600  0.91805400  0.48060500  1
  C  128  1  0.00878900  0.89963700  0.46285100  1
  C  129  1  0.00887600  0.92723700  0.44860400  1
  C  130  1  0.00842700  0.89946800  0.49888400  1
  C  131  1  0.00855500  0.92016800  0.51661900  1
  C  133  1  0.00830400  0.96735500  0.53929200  1
  C  134  1  0.00827400  0.93177300  0.54849000  1
  C  135  1  0.00818200  0.90319400  0.53475600  1
  C  136  1  0.00828400  0.00360600  0.54893100  1
  C  137  1  0.00851300  0.03955200  0.53906000  1
  C  139  1  0.00853600  0.08484600  0.51568900  1
  C  140  1  0.00858900  0.10324900  0.53344800  1
  C  141  1  0.00839900  0.07563800  0.54769500  1
  C  142  1  0.00873300  0.10342300  0.49740700  1
  C  143  1  0.00860100  0.14509700  0.49692300  1
  C  144  1  0.97478800  0.16650700  0.50021700  1
  C  145  1  0.97484800  0.20712300  0.50009700  1
  C  146  1  0.00858000  0.22890900  0.49664500  1
  C  147  1  0.04229500  0.20704000  0.49326600  1
  C  148  1  0.04238400  0.16642700  0.49342900  1
  C  149  1  0.00864900  0.27081700  0.49666100  1
  C  150  1  0.03287200  0.29261200  0.48443800  1
  C  151  1  0.03330200  0.33321600  0.48459200  1
  C  152  1  0.00932800  0.35474000  0.49686400  1
  C  153  1  0.98509800  0.33333333  0.50915400  1
  C  154  1  0.98478900  0.29271000  0.50901400  1
  C  155  1  0.00815400  0.00396500  0.56973700  1
  C  156  1  0.97428600  0.99741800  0.58039600  1
  C  157  1  0.97437800  0.99738800  0.60069800  1
  C  158  1  0.00819100  0.00401400  0.61157500  1
  C  159  1  0.04198200  0.01055200  0.60067500  1
  C  160  1  0.04204400  0.01049900  0.58038400  1
  C  161  1  0.00828800  0.00417800  0.63250200  1
  C  162  1  0.98426900  0.97981100  0.64358300  1
  C  163  1  0.98473200  0.97986500  0.66390500  1
  C  164  1  0.00935900  0.00441200  0.67435400  1
  C  165  1  0.03349000  0.02859200  0.66348500  1
  C  166  1  0.03276800  0.02868400  0.64320900  1
  C  167  1  0.00801800  0.85779300  0.49940900  1
  C  168  1  0.04121000  0.83629300  0.50397200  1
  C  169  1  0.04069900  0.79570400  0.50454300  1
  C  170  1  0.00716300  0.77411300  0.50042600  1
  C  171  1  0.97407600  0.79595600  0.49575800  1
  C  172  1  0.97440000  0.83655900  0.49534700  1
  C  173  1  0.00669700  0.73232600  0.50109700  1
  C  174  1  0.98560700  0.70983700  0.48777800  1
  C  175  1  0.98491200  0.66923700  0.48860600  1
  C  176  1  0.00522500  0.64880400  0.50288600  1
  C  177  1  0.02570800  0.67087300  0.51642400  1
  C  178  1  0.02686900  0.71140500  0.51538100  1
  C  179  1  0.00889500  0.99879200  0.42652500  1
  C  180  1  0.04232400  0.99068600  0.41578600  1
  C  181  1  0.97505100  0.00611300  0.41594900  1
  C  182  1  0.97475800  0.00559800  0.39566000  1
  C  183  1  0.00810900  0.99748600  0.38471800  1
  C  184  1  0.04185700  0.98993100  0.39549100  1
  C  185  1  0.00766700  0.99704700  0.36382100  1
  C  186  1  0.02958600  0.97054700  0.35294600  1
  C  187  1  0.02894600  0.97011500  0.33264400  1
  C  188  1  0.00643400  0.99616000  0.32192100  1
  C  189  1  0.98472000  0.02291700  0.33266100  1
  C  190  1  0.98526200  0.02322000  0.35295600  1
  C  237  1  0.99232800  0.00450400  0.26890100  1
  C  238  1  0.96368400  0.01728300  0.25600300  1
  C  239  1  0.96630600  0.01294900  0.23578000  1
  C  240  1  0.99948800  0.99561500  0.22744200  1
  C  241  1  0.02907300  0.98298400  0.24027500  1
  C  243  1  0.02488300  0.98742700  0.26046700  1
  C  245  1  0.93338700  0.02629000  0.22386800  1
  C  249  1  0.06570200  0.96513100  0.23381700  1
  C  253  1  0.98781300  0.01019900  0.28888600  1
  C  255  1  0.00135800  0.98712600  0.20757000  1
  C  257  1  0.00809900  0.01159200  0.76879000  1
  C  258  1  0.02056800  0.03933400  0.75535600  1
  C  259  1  0.01573500  0.03533800  0.73521400  1
  C  260  1  0.99825400  0.00158500  0.72752100  1
  C  261  1  0.98599800  0.97286600  0.74092000  1
  C  263  1  0.99088100  0.97845500  0.76100600  1
  C  265  1  0.02876200  0.06746700  0.72270300  1
  C  269  1  0.96814800  0.93574000  0.73519200  1
  C  273  1  0.01429200  0.01743300  0.78864900  1
  C  275  1  0.98924400  0.99837900  0.70773400  1
  C  277  1  0.53613600  0.99638500  0.99993000  1
  C  278  1  0.51070100  0.96612500  0.99538500  1
  C  279  1  0.47031800  0.97106300  0.99403000  1
  C  280  1  0.45351400  0.00756700  0.99793100  1
  C  281  1  0.47874400  0.03836800  0.00290300  1
  C  283  1  0.51910600  0.03228500  0.00378800  1
  C  285  1  0.44631900  0.93761700  0.98830600  1
  C  289  1  0.46511900  0.07771500  0.00761000  1
  C  293  1  0.57584100  0.98922500  0.00185300  1
  C  295  1  0.41415000  0.01387300  0.99424500  1
  C  297  1  0.99631200  0.46066800  0.49990600  1
  C  298  1  0.96609300  0.48614600  0.49533000  1
  C  299  1  0.97107400  0.52652900  0.49400500  1
  C  300  1  0.00758300  0.54329500  0.49796400  1
  C  301  1  0.03835000  0.51801100  0.50296500  1
  C  303  1  0.03222100  0.47765500  0.50381700  1
  C  305  1  0.93766300  0.55056800  0.48824500  1
  C  309  1  0.07769900  0.53157600  0.50775300  1
  C  313  1  0.98911600  0.42096600  0.50181200  1
  C  315  1  0.01400200  0.58266200  0.49432900  1
  C  317  1  0.69633200  0.80834900  0.89060200  1
  C  318  1  0.66778100  0.80847100  0.90436010  1
  C  319  1  0.68481600  0.80856900  0.92248010  1
  C  321  1  0.73195200  0.80808600  0.89976800  1
  C  322  1  0.76819600  0.80786000  0.89010900  1
  C  323  1  0.80416000  0.80808000  0.89996900  1
  C  325  1  0.84951400  0.80808600  0.92332210  1
  C  326  1  0.86787700  0.80811700  0.90555410  1
  C  327  1  0.84024000  0.80786300  0.89132400  1
  C  328  1  0.86814600  0.80818000  0.94159210  1
  C  329  1  0.84747300  0.80838500  0.95933710  1
  C  331  1  0.80032300  0.80819600  0.98203510  1
  C  332  1  0.83592100  0.80812900  0.99121410  1
  C  333  1  0.86447500  0.80802100  0.97746710  1
  C  334  1  0.76409000  0.80817400  0.99169510  1
  C  335  1  0.72812200  0.80840900  0.98184910  1
  C  337  1  0.68278400  0.80836600  0.95850310  1
  C  338  1  0.66441200  0.80845800  0.97627010  1
  C  339  1  0.69205300  0.80828800  0.99050210  1
  C  340  1  0.66417300  0.80847200  0.94023110  1
  C  341  1  0.62250700  0.80834400  0.93975910  1
  C  342  1  0.60111100  0.77450900  0.94305010  1
  C  343  1  0.56049900  0.77454900  0.94291110  1
  C  344  1  0.53870400  0.80827900  0.93943910  1
  C  345  1  0.56055700  0.84201300  0.93605410  1
  C  346  1  0.60116900  0.84212800  0.93624810  1
  C  347  1  0.49680000  0.80832200  0.93943410  1
  C  348  1  0.47501300  0.83252700  0.92718010  1
  C  349  1  0.43440700  0.83293000  0.92731710  1
  C  350  1  0.41288300  0.80894600  0.93960210  1
  C  351  1  0.43426900  0.78472300  0.95192010  1
  C  352  1  0.47490400  0.78442200  0.95179010  1
  C  353  1  0.76377800  0.80781700  0.01250100  1
  C  354  1  0.77045700  0.77382000  0.02306100  1
  C  355  1  0.77064700  0.77364300  0.04335900  1
  C  356  1  0.76406000  0.80729800  0.05433500  1
  C  357  1  0.75728100  0.84120900  0.04353800  1
  C  358  1  0.75718700  0.84154200  0.02324600  1
  C  359  1  0.76431300  0.80710200  0.07525900  1
  C  360  1  0.78907800  0.78304200  0.08611100  1
  C  361  1  0.78955400  0.78319700  0.10642400  1
  C  362  1  0.76515200  0.80752200  0.11711000  1
  C  363  1  0.74058800  0.83172700  0.10647400  1
  C  364  1  0.73998800  0.83132700  0.08619200  1
  C  365  1  0.90983390  0.80778100  0.94210510  1
  C  366  1  0.93133490  0.84092600  0.94673210  1
  C  367  1  0.97192290  0.84040100  0.94733210  1
  C  368  1  0.99352186  0.80690800  0.94316310  1
  C  369  1  0.97168390  0.77387200  0.93842910  1
  C  370  1  0.93108190  0.77420100  0.93800510  1
  C  371  1  0.03530700  0.80643200  0.94385210  1
  C  372  1  0.05782600  0.78556700  0.93047510  1
  C  373  1  0.09842600  0.78489400  0.93130810  1
  C  374  1  0.11883000  0.80497600  0.94566410  1
  C  375  1  0.09673000  0.82522600  0.95926010  1
  C  376  1  0.05619800  0.82641100  0.95819710  1
  C  377  1  0.76857500  0.80696200  0.86929900  1
  C  378  1  0.77642100  0.84007900  0.85825100  1
  C  379  1  0.76119100  0.77277700  0.85903800  1
  C  380  1  0.76145000  0.77185000  0.83875100  1
  C  381  1  0.76934600  0.80487700  0.82749900  1
  C  382  1  0.77691000  0.83898000  0.83796000  1
  C  383  1  0.76957400  0.80382700  0.80660700  1
  C  384  1  0.79593600  0.82552000  0.79551600  1
  C  385  1  0.79614700  0.82450700  0.77521700  1
  C  386  1  0.76976500  0.80182800  0.76471600  1
  C  387  1  0.74348700  0.78011400  0.77567100  1
  C  388  1  0.74341800  0.78101900  0.79596300  1
  C  435  1  0.78014600  0.87061800  0.39049600  1
  C  436  1  0.77993800  0.89920100  0.40423800  1
  C  437  1  0.77985700  0.88221400  0.42236900  1
  C  439  1  0.77987800  0.83501700  0.39968000  1
  C  440  1  0.77996200  0.79874400  0.39004200  1
  C  441  1  0.77991300  0.76281100  0.39992900  1
  C  443  1  0.77940100  0.71752600  0.42330800  1
  C  444  1  0.77961400  0.69910900  0.40555400  1
  C  445  1  0.77970100  0.72670900  0.39130700  1
  C  446  1  0.77925200  0.69894000  0.44158700  1
  C  447  1  0.77938000  0.71964000  0.45932200  1
  C  449  1  0.77912900  0.76682700  0.48199500  1
  C  450  1  0.77909900  0.73124500  0.49119300  1
  C  451  1  0.77900700  0.70266600  0.47745900  1
  C  452  1  0.77910900  0.80307800  0.49163400  1
  C  453  1  0.77933800  0.83902400  0.48176300  1
  C  455  1  0.77936100  0.88431800  0.45839200  1
  C  456  1  0.77941400  0.90272080  0.47615100  1
  C  457  1  0.77922400  0.87511000  0.49039800  1
  C  458  1  0.77955800  0.90289480  0.44011000  1
  C  459  1  0.77942600  0.94456880  0.43962600  1
  C  460  1  0.74561300  0.96597880  0.44292000  1
  C  461  1  0.74567300  0.00659500  0.44280000  1
  C  462  1  0.77940500  0.02838100  0.43934800  1
  C  463  1  0.81312000  0.00651200  0.43596900  1
  C  464  1  0.81320900  0.96589880  0.43613200  1
  C  465  1  0.77947400  0.07028900  0.43936400  1
  C  466  1  0.80369700  0.09208400  0.42714100  1
  C  467  1  0.80412700  0.13268800  0.42729500  1
  C  468  1  0.78015300  0.15421200  0.43956700  1
  C  469  1  0.75592300  0.13282100  0.45185700  1
  C  470  1  0.75561400  0.09218200  0.45171700  1
  C  471  1  0.77897900  0.80343700  0.51244000  1
  C  472  1  0.74511100  0.79689000  0.52309900  1
  C  473  1  0.74520300  0.79686000  0.54340100  1
  C  474  1  0.77901600  0.80348600  0.55427800  1
  C  475  1  0.81280700  0.81002400  0.54337800  1
  C  476  1  0.81286900  0.80997100  0.52308700  1
  C  477  1  0.77911300  0.80365000  0.57520500  1
  C  478  1  0.75509400  0.77928300  0.58628600  1
  C  479  1  0.75555700  0.77933700  0.60660800  1
  C  480  1  0.78018400  0.80388400  0.61705700  1
  C  481  1  0.80431500  0.82806400  0.60618800  1
  C  482  1  0.80359300  0.82815600  0.58591200  1
  C  483  1  0.77884300  0.65726500  0.44211200  1
  C  484  1  0.81203500  0.63576500  0.44667500  1
  C  485  1  0.81152400  0.59517600  0.44724600  1
  C  486  1  0.77798800  0.57358500  0.44312900  1
  C  487  1  0.74490100  0.59542800  0.43846100  1
  C  488  1  0.74522500  0.63603100  0.43805000  1
  C  489  1  0.77752200  0.53179800  0.44380000  1
  C  490  1  0.75643200  0.50930900  0.43048100  1
  C  491  1  0.75573700  0.46870900  0.43130900  1
  C  492  1  0.77605000  0.44827600  0.44558900  1
  C  493  1  0.79653300  0.47034500  0.45912700  1
  C  494  1  0.79769400  0.51087700  0.45808400  1
  C  495  1  0.77972000  0.79826400  0.36922800  1
  C  496  1  0.81314900  0.79015800  0.35848900  1
  C  497  1  0.74587600  0.80558500  0.35865200  1
  C  498  1  0.74558300  0.80507000  0.33836300  1
  C  499  1  0.77893400  0.79695800  0.32742100  1
  C  500  1  0.81268200  0.78940300  0.33819400  1
  C  501  1  0.77849200  0.79651900  0.30652400  1
  C  502  1  0.80041100  0.77001900  0.29564900  1
  C  503  1  0.79977100  0.76958700  0.27534700  1
  C  504  1  0.77725900  0.79563200  0.26462400  1
  C  505  1  0.75554500  0.82238900  0.27536400  1
  C  506  1  0.75608700  0.82269200  0.29565900  1
  C  553  1  0.76315300  0.80397600  0.21160400  1
  C  554  1  0.73450900  0.81675500  0.19870600  1
  C  555  1  0.73713100  0.81242100  0.17848300  1
  C  556  1  0.77031300  0.79508700  0.17014500  1
  C  557  1  0.79989800  0.78245600  0.18297800  1
  C  559  1  0.79570800  0.78689900  0.20317000  1
  C  561  1  0.70421200  0.82576200  0.16657100  1
  C  565  1  0.83652700  0.76460300  0.17652000  1
  C  569  1  0.75863800  0.80967100  0.23158900  1
  C  571  1  0.77218300  0.78659800  0.15027300  1
  C  573  1  0.77892400  0.81106400  0.71149300  1
  C  574  1  0.79139300  0.83880600  0.69805900  1
  C  575  1  0.78656000  0.83481000  0.67791700  1
  C  576  1  0.76907900  0.80105700  0.67022400  1
  C  577  1  0.75682300  0.77233800  0.68362300  1
  C  579  1  0.76170600  0.77792700  0.70370900  1
  C  581  1  0.79958700  0.86693900  0.66540600  1
  C  585  1  0.73897300  0.73521200  0.67789500  1
  C  589  1  0.78511700  0.81690500  0.73135200  1
  C  591  1  0.76006900  0.79785100  0.65043700  1
  C  593  1  0.30696100  0.79585700  0.94263310  1
  C  594  1  0.28152600  0.76559700  0.93808810  1
  C  595  1  0.24114300  0.77053500  0.93673310  1
  C  596  1  0.22433900  0.80703900  0.94063410  1
  C  597  1  0.24956900  0.83784000  0.94560610  1
  C  599  1  0.28993100  0.83175700  0.94649110  1
  C  601  1  0.21714400  0.73708900  0.93100910  1
  C  605  1  0.23594400  0.87718700  0.95031310  1
  C  609  1  0.34666600  0.78869700  0.94455610  1
  C  611  1  0.18497500  0.81334500  0.93694810  1
  C  613  1  0.76713700  0.26014000  0.44260900  1
  C  614  1  0.73691800  0.28561800  0.43803300  1
  C  615  1  0.74189900  0.32600100  0.43670800  1
  C  616  1  0.77840800  0.34276700  0.44066700  1
  C  617  1  0.80917500  0.31748300  0.44566800  1
  C  619  1  0.80304600  0.27712700  0.44652000  1
  C  621  1  0.70848800  0.35004000  0.43094800  1
  C  625  1  0.84852400  0.33104800  0.45045600  1
  C  629  1  0.75994100  0.22043800  0.44451500  1
  C  631  1  0.78482700  0.38213400  0.43703200  1
  C  633  1  0.46715700  0.60782100  0.83330500  1
  C  634  1  0.43860600  0.60794300  0.84706300  1
  C  635  1  0.45564100  0.60804100  0.86518300  1
  C  637  1  0.50277700  0.60755800  0.84247100  1
  C  638  1  0.53902100  0.60733200  0.83281200  1
  C  639  1  0.57498500  0.60755200  0.84267200  1
  C  641  1  0.62033900  0.60755800  0.86602500  1
  C  642  1  0.63870200  0.60758900  0.84825700  1
  C  643  1  0.61106500  0.60733500  0.83402700  1
  C  644  1  0.63897100  0.60765200  0.88429500  1
  C  645  1  0.61829800  0.60785700  0.90204020  1
  C  647  1  0.57114800  0.60766800  0.92473820  1
  C  648  1  0.60674600  0.60760100  0.93391720  1
  C  649  1  0.63530000  0.60749300  0.92017020  1
  C  650  1  0.53491500  0.60764600  0.93439820  1
  C  651  1  0.49894700  0.60788100  0.92455220  1
  C  653  1  0.45360900  0.60783800  0.90120620  1
  C  654  1  0.43523700  0.60793000  0.91897320  1
  C  655  1  0.46287800  0.60776000  0.93320520  1
  C  656  1  0.43499800  0.60794400  0.88293400  1
  C  657  1  0.39333200  0.60781600  0.88246200  1
  C  658  1  0.37193600  0.57398100  0.88575300  1
  C  659  1  0.33132400  0.57402100  0.88561400  1
  C  660  1  0.30952900  0.60775100  0.88214200  1
  C  661  1  0.33138200  0.64148500  0.87875700  1
  C  662  1  0.37199400  0.64160000  0.87895100  1
  C  663  1  0.26762500  0.60779400  0.88213700  1
  C  664  1  0.24583800  0.63199900  0.86988300  1
  C  665  1  0.20523200  0.63240200  0.87002000  1
  C  666  1  0.18370800  0.60841800  0.88230500  1
  C  667  1  0.20509400  0.58419500  0.89462300  1
  C  668  1  0.24572900  0.58389400  0.89449300  1
  C  669  1  0.53460300  0.60728900  0.95520420  1
  C  670  1  0.54128200  0.57329200  0.96576420  1
  C  671  1  0.54147200  0.57311500  0.98606220  1
  C  672  1  0.53488500  0.60677000  0.99703819  1
  C  673  1  0.52810600  0.64068100  0.98624120  1
  C  674  1  0.52801200  0.64101400  0.96594920  1
  C  675  1  0.53513800  0.60657400  0.01796200  1
  C  676  1  0.55990300  0.58251400  0.02881400  1
  C  677  1  0.56037900  0.58266900  0.04912700  1
  C  678  1  0.53597700  0.60699400  0.05981300  1
  C  679  1  0.51141300  0.63119900  0.04917700  1
  C  680  1  0.51081300  0.63079900  0.02889500  1
  C  681  1  0.68065900  0.60725300  0.88480800  1
  C  682  1  0.70216000  0.64039800  0.88943500  1
  C  683  1  0.74274800  0.63987300  0.89003500  1
  C  684  1  0.76434700  0.60638000  0.88586600  1
  C  685  1  0.74250900  0.57334400  0.88113200  1
  C  686  1  0.70190700  0.57367300  0.88070800  1
  C  687  1  0.80613200  0.60590400  0.88655500  1
  C  688  1  0.82865100  0.58503900  0.87317800  1
  C  689  1  0.86925100  0.58436600  0.87401100  1
  C  690  1  0.88965500  0.60444800  0.88836700  1
  C  691  1  0.86755500  0.62469800  0.90196320  1
  C  692  1  0.82702300  0.62588300  0.90090020  1
  C  693  1  0.53940000  0.60643400  0.81200200  1
  C  694  1  0.54724600  0.63955100  0.80095400  1
  C  695  1  0.53201600  0.57224900  0.80174100  1
  C  696  1  0.53227500  0.57132200  0.78145400  1
  C  697  1  0.54017100  0.60434900  0.77020200  1
  C  698  1  0.54773500  0.63845200  0.78066300  1
  C  699  1  0.54039900  0.60329900  0.74931000  1
  C  700  1  0.56676100  0.62499200  0.73821900  1
  C  701  1  0.56697200  0.62397900  0.71792000  1
  C  702  1  0.54059000  0.60130000  0.70741900  1
  C  703  1  0.51431200  0.57958600  0.71837400  1
  C  704  1  0.51424300  0.58049100  0.73866600  1
  C  751  1  0.55097100  0.67009000  0.33319900  1
  C  752  1  0.55076300  0.69867300  0.34694100  1
  C  753  1  0.55068200  0.68168600  0.36507200  1
  C  755  1  0.55070300  0.63448900  0.34238300  1
  C  756  1  0.55078700  0.59821600  0.33274500  1
  C  757  1  0.55073800  0.56228300  0.34263200  1
  C  759  1  0.55022600  0.51699800  0.36601100  1
  C  760  1  0.55043900  0.49858100  0.34825700  1
  C  761  1  0.55052600  0.52618100  0.33401000  1
  C  762  1  0.55007700  0.49841200  0.38429000  1
  C  763  1  0.55020500  0.51911200  0.40202500  1
  C  765  1  0.54995400  0.56629900  0.42469800  1
  C  766  1  0.54992400  0.53071700  0.43389600  1
  C  767  1  0.54983200  0.50213800  0.42016200  1
  C  768  1  0.54993400  0.60255000  0.43433700  1
  C  769  1  0.55016300  0.63849600  0.42446600  1
  C  771  1  0.55018600  0.68379000  0.40109500  1
  C  772  1  0.55023900  0.70219300  0.41885400  1
  C  773  1  0.55004900  0.67458200  0.43310100  1
  C  774  1  0.55038300  0.70236700  0.38281300  1
  C  775  1  0.55025100  0.74404100  0.38232900  1
  C  776  1  0.51643800  0.76545100  0.38562300  1
  C  777  1  0.51649800  0.80606700  0.38550300  1
  C  778  1  0.55023000  0.82785300  0.38205100  1
  C  779  1  0.58394500  0.80598400  0.37867200  1
  C  780  1  0.58403400  0.76537100  0.37883500  1
  C  781  1  0.55029900  0.86976100  0.38206700  1
  C  782  1  0.57452200  0.89155600  0.36984400  1
  C  783  1  0.57495200  0.93215950  0.36999800  1
  C  784  1  0.55097800  0.95368350  0.38227000  1
  C  785  1  0.52674800  0.93229250  0.39456000  1
  C  786  1  0.52643900  0.89165400  0.39442000  1
  C  787  1  0.54980400  0.60290900  0.45514300  1
  C  788  1  0.51593600  0.59636200  0.46580200  1
  C  789  1  0.51602800  0.59633200  0.48610400  1
  C  790  1  0.54984100  0.60295800  0.49698100  1
  C  791  1  0.58363200  0.60949600  0.48608100  1
  C  792  1  0.58369400  0.60944300  0.46579000  1
  C  793  1  0.54993800  0.60312200  0.51790800  1
  C  794  1  0.52591900  0.57875500  0.52898900  1
  C  795  1  0.52638200  0.57880900  0.54931100  1
  C  796  1  0.55100900  0.60335600  0.55976000  1
  C  797  1  0.57514000  0.62753600  0.54889100  1
  C  798  1  0.57441800  0.62762800  0.52861500  1
  C  799  1  0.54966800  0.45673700  0.38481500  1
  C  800  1  0.58286000  0.43523700  0.38937800  1
  C  801  1  0.58234900  0.39464800  0.38994900  1
  C  802  1  0.54881300  0.37305700  0.38583200  1
  C  803  1  0.51572600  0.39490000  0.38116400  1
  C  804  1  0.51605000  0.43550300  0.38075300  1
  C  805  1  0.54834700  0.33127000  0.38650300  1
  C  806  1  0.52725700  0.30878100  0.37318400  1
  C  807  1  0.52656200  0.26818100  0.37401200  1
  C  808  1  0.54687500  0.24774800  0.38829200  1
  C  809  1  0.56735800  0.26981700  0.40183000  1
  C  810  1  0.56851900  0.31034900  0.40078700  1
  C  811  1  0.55054500  0.59773600  0.31193100  1
  C  812  1  0.58397400  0.58963000  0.30119200  1
  C  813  1  0.51670100  0.60505700  0.30135500  1
  C  814  1  0.51640800  0.60454200  0.28106600  1
  C  815  1  0.54975900  0.59643000  0.27012400  1
  C  816  1  0.58350700  0.58887500  0.28089700  1
  C  817  1  0.54931700  0.59599100  0.24922700  1
  C  818  1  0.57123600  0.56949100  0.23835200  1
  C  819  1  0.57059600  0.56905900  0.21805000  1
  C  820  1  0.54808400  0.59510400  0.20732700  1
  C  821  1  0.52637000  0.62186100  0.21806700  1
  C  822  1  0.52691200  0.62216400  0.23836200  1
  C  869  1  0.53397800  0.60344800  0.15430700  1
  C  870  1  0.50533400  0.61622700  0.14140900  1
  C  871  1  0.50795600  0.61189300  0.12118600  1
  C  872  1  0.54113800  0.59455900  0.11284800  1
  C  873  1  0.57072300  0.58192800  0.12568100  1
  C  875  1  0.56653300  0.58637100  0.14587300  1
  C  877  1  0.47503700  0.62523400  0.10927400  1
  C  881  1  0.60735200  0.56407500  0.11922300  1
  C  885  1  0.52946300  0.60914300  0.17429200  1
  C  887  1  0.54300800  0.58607000  0.09297600  1
  C  889  1  0.54974900  0.61053600  0.65419600  1
  C  890  1  0.56221800  0.63827800  0.64076200  1
  C  891  1  0.55738500  0.63428200  0.62062000  1
  C  892  1  0.53990400  0.60052900  0.61292700  1
  C  893  1  0.52764800  0.57181000  0.62632600  1
  C  895  1  0.53253100  0.57739900  0.64641200  1
  C  897  1  0.57041200  0.66641100  0.60810900  1
  C  901  1  0.50979800  0.53468400  0.62059800  1
  C  905  1  0.55594200  0.61637700  0.67405500  1
  C  907  1  0.53089400  0.59732300  0.59314000  1
  C  909  1  0.07778600  0.59532900  0.88533600  1
  C  910  1  0.05235100  0.56506900  0.88079100  1
  C  911  1  0.01196800  0.57000700  0.87943600  1
  C  912  1  0.99516372  0.60651100  0.88333700  1
  C  913  1  0.02039400  0.63731200  0.88830900  1
  C  915  1  0.06075600  0.63122900  0.88919400  1
  C  917  1  0.98796870  0.53656100  0.87371200  1
  C  921  1  0.00676900  0.67665900  0.89301600  1
  C  925  1  0.11749100  0.58816900  0.88725900  1
  C  927  1  0.95579970  0.61281700  0.87965100  1
  C  929  1  0.53796200  0.05961200  0.38531200  1
  C  930  1  0.50774300  0.08509000  0.38073600  1
  C  931  1  0.51272400  0.12547300  0.37941100  1
  C  932  1  0.54923300  0.14223900  0.38337000  1
  C  933  1  0.58000000  0.11695500  0.38837100  1
  C  935  1  0.57387100  0.07659900  0.38922300  1
  C  937  1  0.47931300  0.14951200  0.37365100  1
  C  941  1  0.61934900  0.13052000  0.39315900  1
  C  945  1  0.53076600  0.01991000  0.38721800  1
  C  947  1  0.55565200  0.18160600  0.37973500  1
  N  4  1  0.95241100  0.00890800  0.97611700  1
  N  8  1  0.04060100  0.00872100  0.97641900  1
  N  14  1  0.03822500  0.00901800  0.02028200  1
  N  20  1  0.95004100  0.00894700  0.01999400  1
  N  115  1  0.60318300  0.01193800  0.99648800  1
  N  116  1  0.99703700  0.00000900  0.80259100  1
  N  117  1  0.38642200  0.00245800  0.00515200  1
  N  118  1  0.99431800  0.01089900  0.19375900  1
  N  122  1  0.00900300  0.04431300  0.47602500  1
  N  126  1  0.00886600  0.95612800  0.47638300  1
  N  132  1  0.00859000  0.95859600  0.52024800  1
  N  138  1  0.00855500  0.04677000  0.51990500  1
  N  233  1  0.01182000  0.39361200  0.49647000  1
  N  234  1  0.00738600  0.99406200  0.30246800  1
  N  235  1  0.00205800  0.61040500  0.50506900  1
  N  236  1  0.01247500  0.00520100  0.69368900  1
  N  320  1  0.72323600  0.80838000  0.91882010  1
  N  324  1  0.81142600  0.80819300  0.91912210  1
  N  330  1  0.80905000  0.80849000  0.96298510  1
  N  336  1  0.72086600  0.80841900  0.96269710  1
  N  431  1  0.37400800  0.81141000  0.93919110  1
  N  432  1  0.76786200  0.79948100  0.74529400  1
  N  433  1  0.15724700  0.80193000  0.94785510  1
  N  434  1  0.76514300  0.81037100  0.13646200  1
  N  438  1  0.77982800  0.84378500  0.41872800  1
  N  442  1  0.77969100  0.75560000  0.41908600  1
  N  448  1  0.77941500  0.75806800  0.46295100  1
  N  454  1  0.77938000  0.84624200  0.46260800  1
  N  549  1  0.78264500  0.19308400  0.43917300  1
  N  550  1  0.77821100  0.79353400  0.24517100  1
  N  551  1  0.77288300  0.40987700  0.44777200  1
  N  552  1  0.78330000  0.80467300  0.63639200  1
  N  636  1  0.49406100  0.60785200  0.86152300  1
  N  640  1  0.58225100  0.60766500  0.86182500  1
  N  646  1  0.57987500  0.60796200  0.90568820  1
  N  652  1  0.49169100  0.60789100  0.90540020  1
  N  747  1  0.14483300  0.61088200  0.88189400  1
  N  748  1  0.53868700  0.59895300  0.68799700  1
  N  749  1  0.92807170  0.60140200  0.89055800  1
  N  750  1  0.53596800  0.60984300  0.07916500  1
  N  754  1  0.55065300  0.64325700  0.36143100  1
  N  758  1  0.55051600  0.55507200  0.36178900  1
  N  764  1  0.55024000  0.55754000  0.40565400  1
  N  770  1  0.55020500  0.64571400  0.40531100  1
  N  865  1  0.55347000  0.99255550  0.38187600  1
  N  866  1  0.54903600  0.59300600  0.18787400  1
  N  867  1  0.54370800  0.20934900  0.39047500  1
  N  868  1  0.55412500  0.60414500  0.57909500  1
