# generated using pymatgen
data_H28C51(NO)4
_symmetry_space_group_name_H-M   'P 1'
_cell_length_a   34.47280000
_cell_length_b   34.47280000
_cell_length_c   93.14750000
_cell_angle_alpha   90.00000000
_cell_angle_beta   90.00000000
_cell_angle_gamma   90.00000000
_symmetry_Int_Tables_number   1
_chemical_formula_structural   H28C51(NO)4
_chemical_formula_sum   'H448 C816 N64 O64'
_cell_volume   110694.06156125
_cell_formula_units_Z   16
loop_
 _symmetry_equiv_pos_site_id
 _symmetry_equiv_pos_as_xyz
  1  'x, y, z'
loop_
 _atom_site_type_symbol
 _atom_site_label
 _atom_site_symmetry_multiplicity
 _atom_site_fract_x
 _atom_site_fract_y
 _atom_site_fract_z
 _atom_site_occupancy
  H  25  1  0.29851000  0.74856900  0.04127600  1
  H  26  1  0.23167200  0.74361400  0.04562400  1
  H  27  1  0.11299000  0.67069900  0.04526000  1
  H  28  1  0.07623000  0.61349200  0.04779900  1
  H  29  1  0.17857000  0.54911600  0.05495200  1
  H  30  1  0.30959700  0.62714600  0.04272300  1
  H  31  1  0.22995200  0.58283800  0.02468100  1
  H  32  1  0.31590400  0.49591200  0.02805300  1
  H  33  1  0.31864800  0.50515400  0.05300200  1
  H  34  1  0.21487600  0.66755700  0.07398200  1
  H  35  1  0.26854200  0.55468300  0.09729400  1
  H  36  1  0.24681600  0.60756200  0.11124800  1
  H  39  1  0.17735700  0.70065900  0.05562200  1
  H  40  1  0.17785900  0.69550700  0.03668600  1
  H  42  1  0.26486200  0.52088800  0.07280800  1
  H  43  1  0.30687300  0.55075500  0.07330100  1
  H  68  1  0.70890300  0.25680700  0.04070900  1
  H  69  1  0.77575800  0.26195500  0.04494500  1
  H  70  1  0.89413600  0.33537400  0.04476800  1
  H  71  1  0.93066900  0.39266300  0.04753300  1
  H  72  1  0.82808400  0.45636500  0.05501900  1
  H  73  1  0.69725900  0.37814100  0.04263800  1
  H  74  1  0.77662300  0.42317700  0.02461000  1
  H  75  1  0.69041900  0.50979800  0.02839100  1
  H  76  1  0.68799400  0.49996500  0.05330500  1
  H  77  1  0.79234800  0.33723100  0.07356500  1
  H  78  1  0.73794900  0.44899400  0.09738300  1
  H  79  1  0.75969100  0.39560400  0.11109400  1
  H  82  1  0.82994600  0.30481100  0.05503000  1
  H  83  1  0.82931600  0.31059200  0.03611900  1
  H  85  1  0.74197500  0.48373400  0.07302700  1
  H  86  1  0.69993300  0.45390800  0.07340700  1
  H  111  1  0.74875700  0.70790800  0.96513200  1
  H  112  1  0.74382000  0.77472900  0.96080300  1
  H  113  1  0.67088500  0.89339600  0.96119000  1
  H  114  1  0.61370300  0.93016700  0.95859800  1
  H  115  1  0.54940600  0.82786000  0.95128300  1
  H  116  1  0.62733400  0.69678300  0.96356200  1
  H  117  1  0.58297200  0.77624900  0.98160100  1
  H  118  1  0.49596700  0.69039800  0.97806000  1
  H  119  1  0.50529600  0.68791000  0.95312600  1
  H  120  1  0.66801000  0.79156800  0.93239800  1
  H  121  1  0.55532400  0.73803900  0.90891700  1
  H  122  1  0.60839500  0.75967300  0.89503800  1
  H  125  1  0.70094000  0.82908700  0.95081000  1
  H  126  1  0.69562900  0.82849000  0.96974000  1
  H  128  1  0.52127400  0.74194300  0.93338800  1
  H  129  1  0.55089400  0.69976200  0.93287400  1
  H  154  1  0.25706300  0.29759100  0.96527700  1
  H  155  1  0.26228600  0.23072900  0.96100900  1
  H  156  1  0.33573400  0.11238100  0.96123300  1
  H  157  1  0.39303700  0.07587100  0.95849500  1
  H  158  1  0.45681500  0.17851600  0.95120100  1
  H  159  1  0.37840500  0.30924900  0.96359100  1
  H  160  1  0.42365200  0.22925400  0.98158600  1
  H  161  1  0.50981600  0.31597900  0.97816000  1
  H  162  1  0.49980800  0.31927200  0.95325100  1
  H  163  1  0.33807200  0.21412000  0.93249500  1
  H  164  1  0.44989900  0.26938500  0.90899100  1
  H  165  1  0.39697000  0.24729700  0.89513400  1
  H  168  1  0.30529000  0.17660800  0.95097100  1
  H  169  1  0.31082100  0.17715000  0.96989400  1
  H  171  1  0.48419300  0.26583400  0.93335900  1
  H  172  1  0.45373700  0.30743300  0.93307100  1
  H  197  1  0.20789800  0.74836000  0.71515800  1
  H  198  1  0.27457300  0.74353600  0.71045000  1
  H  199  1  0.39340800  0.67068100  0.71054100  1
  H  200  1  0.43011500  0.61340200  0.70805600  1
  H  201  1  0.32764900  0.54894800  0.70127400  1
  H  202  1  0.19701000  0.62692200  0.71380000  1
  H  203  1  0.27729700  0.58244700  0.73150500  1
  H  204  1  0.19000100  0.49669500  0.72855200  1
  H  205  1  0.18656700  0.50594900  0.70363000  1
  H  206  1  0.29137100  0.66704700  0.68209400  1
  H  207  1  0.23657600  0.55425100  0.65910600  1
  H  208  1  0.25863800  0.60669500  0.64500000  1
  H  211  1  0.32878600  0.70053400  0.70029100  1
  H  212  1  0.32869600  0.69559400  0.71923300  1
  H  214  1  0.24014500  0.52080100  0.68362400  1
  H  215  1  0.19845900  0.55112400  0.68321400  1
  H  240  1  0.79775300  0.25699800  0.71548100  1
  H  241  1  0.73102800  0.26186300  0.71093500  1
  H  242  1  0.61230200  0.33491000  0.71115000  1
  H  243  1  0.57562400  0.39216400  0.70852400  1
  H  244  1  0.67807000  0.45628100  0.70125600  1
  H  245  1  0.80877300  0.37841700  0.71387400  1
  H  246  1  0.72869200  0.42323700  0.73158700  1
  H  247  1  0.81583000  0.50903000  0.72831700  1
  H  248  1  0.81900700  0.49939900  0.70341600  1
  H  249  1  0.71402600  0.33781400  0.68243400  1
  H  250  1  0.76918800  0.44988200  0.65905800  1
  H  251  1  0.74730700  0.39695900  0.64514200  1
  H  254  1  0.67669800  0.30473300  0.70081800  1
  H  255  1  0.67713300  0.31007600  0.71974500  1
  H  257  1  0.76540800  0.48403600  0.68348600  1
  H  258  1  0.80710200  0.45371900  0.68314300  1
  H  283  1  0.75457400  0.71069300  0.78949400  1
  H  284  1  0.76025300  0.77787300  0.79278500  1
  H  285  1  0.83528600  0.89531600  0.79196400  1
  H  286  1  0.89249700  0.93143200  0.79552000  1
  H  287  1  0.95404400  0.82872800  0.80499600  1
  H  288  1  0.87562000  0.69795200  0.79261000  1
  H  289  1  0.92386600  0.77602500  0.77467500  1
  H  290  1  0.00986300  0.69012600  0.78049400  1
  H  291  1  0.99609400  0.68798800  0.80521300  1
  H  292  1  0.83386200  0.79900000  0.82174100  1
  H  293  1  0.93751500  0.73786800  0.84812700  1
  H  294  1  0.88369600  0.76432000  0.86062700  1
  H  297  1  0.80258500  0.83273100  0.80217100  1
  H  298  1  0.81102700  0.82970500  0.78343200  1
  H  300  1  0.97676300  0.74024300  0.82470400  1
  H  301  1  0.94499000  0.69968700  0.82408000  1
  H  326  1  0.25166200  0.29500300  0.78957200  1
  H  327  1  0.24585600  0.22781900  0.79282600  1
  H  328  1  0.17060500  0.11051600  0.79192900  1
  H  329  1  0.11333200  0.07447900  0.79546700  1
  H  330  1  0.05198700  0.17725100  0.80502900  1
  H  331  1  0.13064200  0.30795300  0.79269700  1
  H  332  1  0.08210100  0.22976500  0.77472700  1
  H  333  1  0.99667700  0.31623100  0.78048900  1
  H  334  1  0.01042600  0.31837200  0.80519900  1
  H  335  1  0.17215600  0.20680700  0.82179400  1
  H  336  1  0.06846000  0.26796500  0.84814200  1
  H  337  1  0.12209800  0.24133400  0.86066400  1
  H  340  1  0.20340600  0.17300700  0.80220300  1
  H  341  1  0.19501500  0.17611400  0.78346400  1
  H  343  1  0.02935300  0.26595000  0.82468200  1
  H  344  1  0.06136200  0.30632800  0.82411800  1
  H  369  1  0.79567600  0.25140900  0.53973500  1
  H  370  1  0.72845200  0.24574900  0.54297400  1
  H  371  1  0.61096800  0.17078800  0.54194900  1
  H  372  1  0.57478900  0.11357900  0.54541100  1
  H  373  1  0.67739100  0.05189000  0.55491900  1
  H  374  1  0.80827700  0.13033000  0.54265100  1
  H  375  1  0.73017200  0.08226900  0.52465400  1
  H  376  1  0.81612900  0.99632600  0.53036200  1
  H  377  1  0.81816000  0.00977900  0.55510700  1
  H  378  1  0.70723500  0.17191800  0.57181100  1
  H  379  1  0.76815200  0.06795200  0.59809000  1
  H  380  1  0.74181900  0.12172000  0.61064000  1
  H  383  1  0.67351000  0.20334500  0.55226600  1
  H  384  1  0.67664000  0.19511300  0.53351800  1
  H  386  1  0.76581400  0.02889600  0.57460000  1
  H  387  1  0.80638000  0.06067100  0.57405800  1
  H  412  1  0.21133900  0.75405700  0.53947500  1
  H  413  1  0.27852500  0.75985600  0.54272500  1
  H  414  1  0.39581900  0.83515600  0.54185100  1
  H  415  1  0.43183300  0.89243600  0.54541200  1
  H  416  1  0.32905300  0.95367500  0.55505000  1
  H  417  1  0.19836900  0.87505400  0.54268600  1
  H  418  1  0.27628500  0.92362000  0.52474900  1
  H  419  1  0.18997600  0.00915300  0.53068300  1
  H  420  1  0.18810200  0.99530800  0.55539900  1
  H  421  1  0.29962400  0.83332000  0.57172000  1
  H  422  1  0.23854400  0.93673100  0.59823900  1
  H  423  1  0.26521000  0.88293000  0.61067200  1
  H  426  1  0.33333333  0.80225200  0.55210400  1
  H  427  1  0.33020500  0.81078300  0.53337400  1
  H  429  1  0.24062100  0.97610700  0.57482700  1
  H  430  1  0.20015700  0.94421300  0.57423900  1
  H  455  1  0.24861500  0.20772900  0.46549600  1
  H  456  1  0.24395500  0.27442500  0.46082900  1
  H  457  1  0.17128200  0.39335900  0.46092000  1
  H  458  1  0.11410000  0.43017900  0.45836900  1
  H  459  1  0.04958100  0.32787300  0.45133700  1
  H  460  1  0.12716800  0.19703600  0.46393200  1
  H  461  1  0.08298700  0.27699900  0.48163000  1
  H  462  1  0.99636100  0.19068000  0.47842100  1
  H  463  1  0.00568500  0.18755100  0.45349600  1
  H  464  1  0.16793100  0.29136600  0.43237100  1
  H  465  1  0.05534900  0.23698500  0.40909800  1
  H  466  1  0.10824700  0.25861900  0.39513000  1
  H  469  1  0.20116900  0.32877200  0.45064700  1
  H  470  1  0.19598300  0.32854600  0.46958100  1
  H  472  1  0.02139000  0.24113000  0.43356100  1
  H  473  1  0.05124500  0.19910600  0.43318200  1
  H  498  1  0.75732400  0.79748900  0.46558800  1
  H  499  1  0.76229900  0.73074000  0.46100000  1
  H  500  1  0.83552700  0.61215400  0.46094200  1
  H  501  1  0.89284800  0.57561800  0.45824200  1
  H  502  1  0.95680200  0.67828700  0.45121900  1
  H  503  1  0.87869200  0.80875500  0.46392400  1
  H  504  1  0.92377900  0.72836500  0.48158200  1
  H  505  1  0.00962100  0.81547900  0.47844600  1
  H  506  1  0.99961300  0.81932600  0.45354800  1
  H  507  1  0.83822500  0.71411900  0.43244900  1
  H  508  1  0.94993000  0.77014800  0.40912500  1
  H  509  1  0.89711500  0.74813100  0.39519200  1
  H  512  1  0.80521900  0.67664600  0.45078900  1
  H  513  1  0.81064100  0.67682000  0.46971400  1
  H  515  1  0.98418600  0.76629000  0.43347900  1
  H  516  1  0.95357900  0.80778400  0.43332300  1
  H  541  1  0.71067800  0.25109400  0.21668200  1
  H  542  1  0.77777200  0.24560600  0.21305900  1
  H  543  1  0.89545500  0.17075100  0.21377100  1
  H  544  1  0.93155600  0.11343800  0.21037500  1
  H  545  1  0.82875400  0.05159700  0.20132300  1
  H  546  1  0.69828000  0.12997900  0.21389600  1
  H  547  1  0.77701200  0.08189300  0.23154800  1
  H  548  1  0.68980400  0.99694700  0.22630700  1
  H  549  1  0.68708900  0.01031900  0.20157600  1
  H  550  1  0.79876800  0.17134400  0.18422600  1
  H  551  1  0.73679700  0.06733100  0.15832100  1
  H  552  1  0.76317500  0.12076700  0.14559100  1
  H  555  1  0.83260300  0.20316100  0.20357900  1
  H  556  1  0.82997200  0.19519200  0.22235200  1
  H  558  1  0.73918500  0.02861400  0.18185900  1
  H  559  1  0.69895900  0.06080400  0.18248900  1
  H  584  1  0.29529900  0.75425200  0.21677400  1
  H  585  1  0.22818700  0.75973100  0.21326100  1
  H  586  1  0.11054400  0.83469500  0.21423000  1
  H  587  1  0.07439700  0.89195700  0.21078300  1
  H  588  1  0.17703800  0.95355600  0.20125800  1
  H  589  1  0.30764500  0.87536700  0.21386600  1
  H  590  1  0.22914000  0.92370100  0.23149700  1
  H  591  1  0.31626900  0.00856200  0.22597200  1
  H  592  1  0.31869400  0.99489900  0.20126500  1
  H  593  1  0.20669000  0.83371700  0.18438000  1
  H  594  1  0.26839100  0.93736100  0.15817800  1
  H  595  1  0.24176000  0.88380000  0.14558800  1
  H  598  1  0.17316100  0.80209800  0.20388100  1
  H  599  1  0.17619700  0.81028100  0.22263200  1
  H  601  1  0.26640400  0.97635400  0.18166600  1
  H  602  1  0.30659500  0.94412000  0.18227400  1
  H  627  1  0.25470200  0.21055300  0.28920100  1
  H  628  1  0.26007400  0.27765600  0.29282500  1
  H  629  1  0.33485800  0.39539200  0.29224300  1
  H  630  1  0.39209700  0.43152800  0.29574600  1
  H  631  1  0.45385300  0.32878900  0.30497500  1
  H  632  1  0.37578600  0.19826000  0.29227700  1
  H  633  1  0.42385000  0.27675300  0.27469000  1
  H  634  1  0.50942700  0.19030500  0.28021500  1
  H  635  1  0.49565100  0.18762800  0.30492700  1
  H  636  1  0.33385100  0.29884700  0.32181400  1
  H  637  1  0.43741400  0.23698200  0.34800800  1
  H  638  1  0.38369900  0.26336100  0.36059500  1
  H  641  1  0.30231000  0.33254300  0.30237700  1
  H  642  1  0.31061000  0.32986500  0.28362500  1
  H  644  1  0.47659800  0.23954200  0.32458600  1
  H  645  1  0.44460500  0.19917300  0.32384900  1
  H  670  1  0.75146400  0.79490100  0.28932900  1
  H  671  1  0.74592300  0.72778400  0.29289100  1
  H  672  1  0.67086700  0.61023100  0.29222600  1
  H  673  1  0.61354700  0.57419700  0.29571200  1
  H  674  1  0.55204000  0.67703400  0.30502700  1
  H  675  1  0.63041200  0.80747300  0.29240700  1
  H  676  1  0.58201700  0.72890100  0.27475800  1
  H  677  1  0.49699100  0.81588300  0.28023800  1
  H  678  1  0.51074700  0.81853700  0.30494200  1
  H  679  1  0.67206500  0.70677900  0.32188400  1
  H  680  1  0.56848200  0.76868600  0.34804600  1
  H  681  1  0.62203200  0.74214900  0.36064900  1
  H  684  1  0.70354200  0.67296700  0.30242700  1
  H  685  1  0.69529200  0.67572900  0.28367300  1
  H  687  1  0.52942200  0.76645500  0.32458800  1
  H  688  1  0.56163900  0.80665200  0.32391100  1
  H  695  1  0.09178700  0.54570500  0.07480100  1
  H  700  1  0.08839800  0.53917800  0.02981100  1
  H  705  1  0.91519900  0.45943700  0.07482100  1
  H  706  1  0.91779200  0.46736200  0.02984000  1
  H  708  1  0.95231500  0.50935200  0.09481000  1
  H  710  1  0.03236800  0.54393000  0.09503100  1
  H  717  1  0.54631100  0.91465600  0.93146600  1
  H  722  1  0.53921300  0.91799500  0.97643500  1
  H  727  1  0.46023800  0.09133700  0.93130400  1
  H  728  1  0.46753900  0.08871000  0.97628800  1
  H  730  1  0.51031200  0.05416700  0.91139800  1
  H  732  1  0.54481700  0.97407100  0.91123400  1
  H  739  1  0.41442800  0.54541500  0.68123800  1
  H  744  1  0.41776600  0.53938400  0.72624500  1
  H  749  1  0.59098400  0.45914100  0.68136600  1
  H  750  1  0.58823400  0.46705500  0.72631300  1
  H  752  1  0.55394600  0.50885600  0.66132500  1
  H  754  1  0.47388600  0.54342800  0.66103500  1
  H  761  1  0.95839200  0.91522800  0.82404700  1
  H  766  1  0.96703100  0.91802700  0.77906600  1
  H  771  1  0.04774600  0.09052500  0.82403500  1
  H  772  1  0.03859800  0.08804600  0.77908900  1
  H  774  1  0.99705100  0.05423900  0.84409000  1
  H  776  1  0.96117100  0.97474400  0.84432800  1
  H  783  1  0.59101000  0.04749000  0.57390500  1
  H  788  1  0.58793800  0.03900400  0.52893300  1
  H  793  1  0.41582000  0.95788700  0.57401400  1
  H  794  1  0.41799600  0.96722800  0.52904400  1
  H  796  1  0.45216500  0.00861300  0.59405200  1
  H  798  1  0.53158900  0.04465800  0.59422900  1
  H  805  1  0.04652400  0.41459900  0.43139400  1
  H  810  1  0.03961300  0.41803000  0.47636700  1
  H  815  1  0.96019300  0.59112600  0.43121000  1
  H  816  1  0.96736100  0.58851800  0.47619700  1
  H  818  1  0.01030100  0.55402400  0.41131100  1
  H  820  1  0.04493700  0.47397900  0.41115500  1
  H  827  1  0.91519300  0.04707700  0.18212200  1
  H  832  1  0.91813100  0.03917300  0.22711700  1
  H  837  1  0.09036900  0.95752500  0.18223500  1
  H  838  1  0.08792800  0.96691200  0.22716800  1
  H  840  1  0.05413700  0.00802700  0.16212100  1
  H  842  1  0.97468900  0.04403100  0.16184200  1
  H  849  1  0.45818400  0.41522000  0.32413000  1
  H  854  1  0.46662800  0.41809700  0.27914400  1
  H  859  1  0.54780200  0.59034600  0.32413300  1
  H  860  1  0.53880700  0.58786300  0.27918200  1
  H  862  1  0.49706700  0.55414600  0.34418100  1
  H  864  1  0.46105000  0.47470400  0.34441400  1
  H  871  1  0.16841000  0.69115000  0.09742300  1
  H  876  1  0.28373100  0.67358800  0.11099500  1
  H  881  1  0.16015800  0.83287600  0.14812300  1
  H  882  1  0.27255100  0.79811200  0.16027400  1
  H  884  1  0.10139100  0.78601900  0.13553600  1
  H  886  1  0.10548400  0.72464300  0.11223900  1
  H  893  1  0.83968100  0.31520800  0.09812800  1
  H  898  1  0.72195700  0.32816600  0.10936200  1
  H  903  1  0.84641100  0.17412300  0.14913700  1
  H  904  1  0.73101000  0.20424100  0.15892200  1
  H  906  1  0.90485100  0.22322900  0.13756200  1
  H  908  1  0.90159900  0.28415000  0.11415200  1
  H  915  1  0.69094400  0.83848000  0.90854400  1
  H  920  1  0.67483500  0.72230500  0.89575800  1
  H  925  1  0.83212700  0.84625700  0.85762600  1
  H  926  1  0.79887200  0.73282600  0.84627300  1
  H  928  1  0.78457400  0.90494400  0.86989700  1
  H  930  1  0.72351100  0.90111500  0.89330000  1
  H  937  1  0.31551200  0.16731900  0.90844000  1
  H  942  1  0.33007100  0.28408900  0.89614000  1
  H  947  1  0.17441800  0.15926400  0.85748500  1
  H  948  1  0.20635100  0.27339700  0.84658000  1
  H  950  1  0.22267900  0.10082500  0.86954900  1
  H  952  1  0.28364900  0.10473900  0.89296300  1
  H  959  1  0.33744800  0.69061300  0.65884000  1
  H  964  1  0.22253000  0.67257600  0.64488900  1
  H  969  1  0.34629300  0.83238300  0.60818000  1
  H  970  1  0.23435100  0.79715500  0.59564500  1
  H  972  1  0.40499700  0.78574600  0.62091900  1
  H  974  1  0.40062300  0.72431200  0.64421400  1
  H  981  1  0.66733100  0.31542200  0.65833200  1
  H  986  1  0.78418000  0.32999000  0.64615100  1
  H  991  1  0.65963500  0.17423100  0.60739900  1
  H  992  1  0.77394800  0.20598100  0.59665900  1
  H  994  1  0.60114600  0.22254900  0.61937600  1
  H  996  1  0.60487600  0.28360000  0.64277000  1
  H  1003  1  0.19085000  0.33787800  0.40856600  1
  H  1008  1  0.17469100  0.22174700  0.39573000  1
  H  1013  1  0.33216300  0.34567500  0.35769000  1
  H  1014  1  0.29888200  0.23227600  0.34630300  1
  H  1016  1  0.28461600  0.40437000  0.36996500  1
  H  1018  1  0.22347800  0.40053300  0.39334200  1
  H  1025  1  0.81563900  0.66773400  0.40844100  1
  H  1030  1  0.83020700  0.78447800  0.39610700  1
  H  1035  1  0.67434500  0.65967600  0.35755200  1
  H  1036  1  0.70624600  0.77380600  0.34663100  1
  H  1038  1  0.72263500  0.60123300  0.36960100  1
  H  1040  1  0.78371000  0.60514600  0.39297900  1
  H  1047  1  0.32238100  0.73582800  0.01811400  1
  H  1052  1  0.38242300  0.65326200  0.04274700  1
  H  1057  1  0.48720100  0.78639900  0.98655900  1
  H  1058  1  0.54021400  0.69151200  0.00678500  1
  H  1060  1  0.42436300  0.83220600  0.99505600  1
  H  1062  1  0.34701500  0.80695400  0.00870500  1
  H  1069  1  0.68460300  0.27002800  0.01764700  1
  H  1074  1  0.62454400  0.35166500  0.04269200  1
  H  1079  1  0.51953900  0.21935400  0.98628500  1
  H  1080  1  0.46637000  0.31351300  0.00691300  1
  H  1082  1  0.58272500  0.17366200  0.99447800  1
  H  1084  1  0.66019800  0.19897900  0.00808200  1
  H  1091  1  0.73580200  0.68404600  0.98829200  1
  H  1096  1  0.65356900  0.62392300  0.96353300  1
  H  1101  1  0.78631700  0.51916200  0.01985000  1
  H  1102  1  0.69187500  0.46604200  0.99950900  1
  H  1104  1  0.83209300  0.58213400  0.01147500  1
  H  1106  1  0.80687600  0.65949900  0.99779400  1
  H  1113  1  0.26960900  0.32215200  0.98827700  1
  H  1118  1  0.35242200  0.38175300  0.96361100  1
  H  1123  1  0.21954800  0.48737200  0.01968300  1
  H  1124  1  0.31458700  0.53988300  0.99940900  1
  H  1126  1  0.17348000  0.42462400  0.01123000  1
  H  1128  1  0.19848900  0.34705600  0.99760800  1
  H  1135  1  0.18487100  0.73557600  0.73843900  1
  H  1140  1  0.12431900  0.65254800  0.71418500  1
  H  1145  1  0.02096600  0.78486400  0.77098100  1
  H  1146  1  0.96766900  0.68989700  0.75097400  1
  H  1148  1  0.08331200  0.83092900  0.76225400  1
  H  1150  1  0.16011200  0.80640000  0.74810700  1
  H  1157  1  0.82097400  0.27005200  0.73868300  1
  H  1162  1  0.88142400  0.35275900  0.71424700  1
  H  1167  1  0.98509700  0.22112600  0.77119900  1
  H  1168  1  0.03831500  0.31583700  0.75095800  1
  H  1170  1  0.92265100  0.17497400  0.76262100  1
  H  1172  1  0.84575800  0.19933200  0.74845500  1
  H  1179  1  0.76833800  0.68466300  0.76690400  1
  H  1184  1  0.84928000  0.62566600  0.79259400  1
  H  1189  1  0.71891400  0.51865500  0.73607200  1
  H  1190  1  0.81268900  0.46638400  0.75715900  1
  H  1192  1  0.67267700  0.58181400  0.74393000  1
  H  1194  1  0.69748800  0.65984400  0.75732700  1
  H  1201  1  0.23797900  0.32125000  0.76702600  1
  H  1206  1  0.15695900  0.38014300  0.79271700  1
  H  1211  1  0.28708300  0.48730200  0.73617800  1
  H  1212  1  0.19333900  0.53938100  0.75733700  1
  H  1214  1  0.33344500  0.42423000  0.74400500  1
  H  1216  1  0.30878800  0.34615900  0.75742400  1
  H  1223  1  0.82175400  0.23800800  0.51716100  1
  H  1228  1  0.88053100  0.15637100  0.54261700  1
  H  1233  1  0.98774800  0.28741200  0.48637500  1
  H  1234  1  0.03967900  0.19282000  0.50715900  1
  H  1236  1  0.92485000  0.33371500  0.49440200  1
  H  1238  1  0.84681100  0.30894500  0.50775800  1
  H  1245  1  0.18519600  0.76786800  0.51691500  1
  H  1250  1  0.12614500  0.84865100  0.54265600  1
  H  1255  1  0.01924100  0.71827300  0.48610700  1
  H  1256  1  0.96690900  0.81209400  0.50723300  1
  H  1258  1  0.08246200  0.67216700  0.49390000  1
  H  1260  1  0.16045800  0.69702400  0.50730700  1
  H  1267  1  0.23539500  0.18480800  0.48877500  1
  H  1272  1  0.15289000  0.12420800  0.46429500  1
  H  1277  1  0.28462100  0.02071300  0.52126700  1
  H  1278  1  0.19008500  0.96733200  0.50105600  1
  H  1280  1  0.33059600  0.08331200  0.51271600  1
  H  1282  1  0.30610500  0.16014100  0.49857800  1
  H  1289  1  0.77009000  0.82113600  0.48870600  1
  H  1294  1  0.85321600  0.88120700  0.46433500  1
  H  1299  1  0.72118200  0.98559000  0.52100300  1
  H  1300  1  0.81638500  0.03834900  0.50090900  1
  H  1302  1  0.67495200  0.92321100  0.51236600  1
  H  1304  1  0.69929000  0.84616500  0.49830500  1
  H  1311  1  0.68549600  0.23763900  0.23940300  1
  H  1316  1  0.62613900  0.15552300  0.21433800  1
  H  1321  1  0.52042400  0.28577700  0.27120400  1
  H  1322  1  0.46814500  0.19109900  0.25064800  1
  H  1324  1  0.58284700  0.33231400  0.26293700  1
  H  1326  1  0.66031700  0.30826900  0.24906500  1
  H  1333  1  0.32037400  0.76797300  0.23948200  1
  H  1338  1  0.37983200  0.84977300  0.21431100  1
  H  1343  1  0.48544900  0.72014600  0.27141900  1
  H  1344  1  0.53783200  0.81451100  0.25066500  1
  H  1346  1  0.42293900  0.67357700  0.26325600  1
  H  1348  1  0.34549500  0.69746500  0.24929800  1
  H  1355  1  0.26870900  0.18547800  0.26647800  1
  H  1360  1  0.35005500  0.12601500  0.29185300  1
  H  1365  1  0.22068500  0.02020900  0.23470100  1
  H  1366  1  0.31472300  0.96777000  0.25559200  1
  H  1368  1  0.17421200  0.08295400  0.24275600  1
  H  1370  1  0.19823200  0.16046400  0.25661600  1
  H  1377  1  0.73758300  0.82024000  0.26665200  1
  H  1382  1  0.65617700  0.87960500  0.29203200  1
  H  1387  1  0.78550200  0.98558100  0.23493200  1
  H  1388  1  0.69147800  0.03786300  0.25587200  1
  H  1390  1  0.83203200  0.92287400  0.24294900  1
  H  1392  1  0.80806200  0.84530300  0.25679500  1
  C  1  1  0.23761900  0.61126400  0.06960600  1
  C  2  1  0.25506500  0.57964200  0.07698500  1
  C  3  1  0.27681200  0.55047100  0.05384000  1
  C  4  1  0.25236700  0.57561000  0.04577700  1
  C  5  1  0.24952700  0.56767300  0.03072500  1
  C  6  1  0.27262200  0.53868500  0.02390600  1
  C  7  1  0.29988200  0.51819900  0.03231500  1
  C  8  1  0.30113800  0.52317700  0.04711000  1
  C  9  1  0.25600800  0.57773000  0.09211100  1
  C  10  1  0.24345200  0.60903600  0.10032900  1
  C  11  1  0.23027200  0.64324800  0.09364900  1
  C  12  1  0.22537600  0.64292000  0.07852000  1
  C  13  1  0.25249300  0.64747200  0.04741600  1
  C  14  1  0.23002900  0.68203200  0.04660200  1
  C  15  1  0.16825100  0.64422900  0.04805000  1
  C  16  1  0.18871900  0.60905000  0.05077900  1
  C  17  1  0.12747800  0.64518900  0.04707000  1
  C  18  1  0.10583600  0.61141700  0.04863400  1
  C  19  1  0.12410300  0.57555400  0.05130400  1
  C  20  1  0.16535500  0.57493100  0.05265300  1
  C  21  1  0.29274900  0.65139700  0.04358300  1
  C  22  1  0.30962000  0.68778800  0.03973700  1
  C  23  1  0.28732900  0.72131000  0.04269800  1
  C  24  1  0.24776500  0.71861200  0.04541000  1
  C  37  1  0.23287300  0.61037300  0.05315500  1
  C  38  1  0.18736800  0.68225600  0.04678200  1
  C  41  1  0.27674900  0.54903800  0.06958400  1
  C  44  1  0.76932700  0.39356800  0.06944100  1
  C  45  1  0.75169900  0.42484700  0.07696300  1
  C  46  1  0.72994300  0.45473200  0.05393900  1
  C  47  1  0.75438500  0.42985100  0.04576200  1
  C  48  1  0.75706500  0.43813900  0.03073200  1
  C  49  1  0.73379500  0.46721100  0.02405400  1
  C  50  1  0.70652400  0.48741800  0.03254300  1
  C  51  1  0.70554100  0.48217700  0.04733000  1
  C  52  1  0.75066900  0.42621700  0.09210000  1
  C  53  1  0.76328500  0.39465800  0.10017600  1
  C  54  1  0.77679100  0.36084100  0.09332400  1
  C  55  1  0.78171400  0.36167000  0.07820600  1
  C  56  1  0.75453300  0.35794500  0.04712400  1
  C  57  1  0.77714800  0.32351500  0.04613700  1
  C  58  1  0.83877600  0.36151900  0.04771200  1
  C  59  1  0.81816900  0.39651800  0.05060700  1
  C  60  1  0.87955000  0.36076500  0.04670100  1
  C  61  1  0.90106000  0.39457100  0.04839900  1
  C  62  1  0.88264500  0.43026600  0.05123300  1
  C  63  1  0.84139800  0.43067800  0.05260800  1
  C  64  1  0.71424900  0.35395400  0.04333900  1
  C  65  1  0.69747900  0.31759200  0.03939600  1
  C  66  1  0.71996400  0.28409700  0.04219000  1
  C  67  1  0.75956600  0.28689900  0.04480600  1
  C  80  1  0.77402900  0.39495700  0.05299600  1
  C  81  1  0.81980800  0.32346600  0.04628200  1
  C  84  1  0.73005300  0.45570100  0.06969000  1
  C  87  1  0.61166100  0.76884900  0.93669200  1
  C  88  1  0.58011200  0.75141200  0.92926400  1
  C  89  1  0.55069700  0.72966400  0.95236700  1
  C  90  1  0.57580700  0.75403400  0.96047200  1
  C  91  1  0.56781200  0.75674300  0.97552300  1
  C  92  1  0.53879800  0.73359200  0.98229900  1
  C  93  1  0.51833300  0.70640800  0.97385000  1
  C  94  1  0.52327000  0.70539300  0.95904900  1
  C  95  1  0.57835700  0.75050400  0.91413300  1
  C  96  1  0.60970900  0.76314300  0.90595500  1
  C  97  1  0.64385200  0.77624600  0.91269900  1
  C  98  1  0.64340500  0.78110800  0.92782600  1
  C  99  1  0.64768700  0.75390900  0.95892000  1
  C  100  1  0.68224400  0.77637000  0.95977300  1
  C  101  1  0.64444600  0.83815000  0.95832300  1
  C  102  1  0.60929100  0.81769300  0.95553900  1
  C  103  1  0.64539200  0.87891500  0.95933700  1
  C  104  1  0.61163800  0.90056700  0.95774300  1
  C  105  1  0.57580700  0.88231200  0.95500400  1
  C  106  1  0.57519200  0.84106500  0.95362900  1
  C  107  1  0.65158800  0.71363700  0.96273300  1
  C  108  1  0.68795300  0.69677200  0.96661700  1
  C  109  1  0.72149200  0.71906400  0.96369100  1
  C  110  1  0.71881800  0.75863500  0.96098700  1
  C  123  1  0.61063400  0.77354500  0.95314300  1
  C  124  1  0.68246200  0.81903000  0.95962300  1
  C  127  1  0.54933400  0.72986700  0.93662100  1
  C  130  1  0.39420600  0.23740500  0.93676600  1
  C  131  1  0.42550300  0.25528600  0.92933700  1
  C  132  1  0.45489700  0.27699800  0.95245000  1
  C  133  1  0.43016500  0.25217000  0.96052800  1
  C  134  1  0.43847600  0.24910200  0.97554600  1
  C  135  1  0.46758300  0.27218400  0.98230100  1
  C  136  1  0.48753700  0.29989400  0.97392600  1
  C  137  1  0.48215000  0.30142600  0.95915500  1
  C  138  1  0.42713900  0.25643200  0.91420700  1
  C  139  1  0.39579800  0.24367900  0.90604800  1
  C  140  1  0.36188800  0.23000500  0.91279700  1
  C  141  1  0.36252000  0.22492800  0.92791400  1
  C  142  1  0.35829600  0.25199500  0.95903400  1
  C  143  1  0.32385500  0.22937000  0.95993100  1
  C  144  1  0.36190500  0.16776300  0.95838600  1
  C  145  1  0.39692700  0.18838600  0.95554500  1
  C  146  1  0.36114200  0.12698300  0.95935300  1
  C  147  1  0.39496600  0.10548900  0.95767200  1
  C  148  1  0.43069500  0.12392400  0.95491500  1
  C  149  1  0.43111300  0.16518200  0.95357500  1
  C  150  1  0.35422400  0.29227400  0.96281500  1
  C  151  1  0.31781200  0.30899700  0.96672800  1
  C  152  1  0.28436400  0.28651800  0.96385000  1
  C  153  1  0.28721700  0.24693500  0.96120200  1
  C  166  1  0.39538700  0.23255200  0.95320600  1
  C  167  1  0.32382600  0.18671000  0.95976000  1
  C  170  1  0.45595600  0.27726600  0.93670200  1
  C  173  1  0.26836400  0.61095900  0.68661700  1
  C  174  1  0.25049500  0.57940700  0.67933600  1
  C  175  1  0.22895600  0.55070000  0.70258500  1
  C  176  1  0.25400300  0.57553400  0.71052200  1
  C  177  1  0.25727300  0.56758300  0.72555900  1
  C  178  1  0.23401400  0.53891400  0.73247800  1
  C  179  1  0.20602600  0.51891000  0.72424100  1
  C  180  1  0.20450800  0.52374000  0.70943900  1
  C  181  1  0.24931100  0.57730900  0.66421600  1
  C  182  1  0.26219800  0.60830500  0.65590700  1
  C  183  1  0.27561800  0.64255800  0.66249500  1
  C  184  1  0.28066500  0.64241900  0.67762000  1
  C  185  1  0.25390300  0.64734400  0.70881300  1
  C  186  1  0.27632000  0.68195700  0.70949600  1
  C  187  1  0.33809800  0.64417900  0.70793600  1
  C  188  1  0.31758900  0.60894600  0.70534000  1
  C  189  1  0.37888700  0.64514300  0.70882300  1
  C  190  1  0.40049800  0.61133300  0.70729500  1
  C  191  1  0.38217000  0.57543300  0.70475700  1
  C  192  1  0.34090600  0.57479200  0.70349000  1
  C  193  1  0.21379800  0.65118800  0.71285800  1
  C  194  1  0.19698600  0.68754400  0.71676600  1
  C  195  1  0.21907100  0.72111500  0.71368400  1
  C  196  1  0.25854900  0.71849900  0.71078100  1
  C  209  1  0.27340700  0.61021400  0.70305800  1
  C  210  1  0.31898100  0.68221800  0.70918800  1
  C  213  1  0.22864100  0.54911000  0.68684300  1
  C  216  1  0.73719200  0.39396200  0.68676800  1
  C  217  1  0.75504900  0.42533800  0.67937500  1
  C  218  1  0.77669500  0.45454900  0.70253000  1
  C  219  1  0.75177100  0.42981900  0.71056100  1
  C  220  1  0.74866200  0.43800800  0.72558400  1
  C  221  1  0.77201600  0.46673300  0.73242700  1
  C  222  1  0.79980000  0.48671100  0.72408400  1
  C  223  1  0.80120200  0.48162500  0.70929000  1
  C  224  1  0.75630200  0.42703800  0.66424700  1
  C  225  1  0.74363700  0.39572600  0.65605200  1
  C  226  1  0.72998000  0.36176600  0.66277000  1
  C  227  1  0.72481700  0.36230500  0.67788200  1
  C  228  1  0.75179500  0.35799200  0.70903100  1
  C  229  1  0.72935100  0.32342300  0.70983800  1
  C  230  1  0.66760100  0.36125800  0.70830900  1
  C  231  1  0.68811300  0.39639300  0.70554300  1
  C  232  1  0.62682700  0.36037900  0.70930100  1
  C  233  1  0.60523300  0.39417100  0.70768700  1
  C  234  1  0.62356600  0.42995600  0.70494100  1
  C  235  1  0.66481000  0.43051600  0.70360100  1
  C  236  1  0.79195100  0.35415400  0.71300100  1
  C  237  1  0.80875800  0.31782700  0.71694400  1
  C  238  1  0.78665400  0.28423100  0.71391500  1
  C  239  1  0.74711000  0.28687400  0.71112800  1
  C  252  1  0.73226900  0.39503300  0.70320800  1
  C  253  1  0.68668800  0.32322300  0.70963700  1
  C  256  1  0.77693300  0.45580200  0.68678300  1
  C  259  1  0.88892000  0.77190000  0.81890200  1
  C  260  1  0.91790800  0.75282700  0.82716300  1
  C  261  1  0.95105600  0.73016900  0.80481800  1
  C  262  1  0.92775300  0.75470100  0.79605200  1
  C  263  1  0.93800200  0.75675200  0.78118000  1
  C  264  1  0.96797100  0.73331300  0.77518900  1
  C  265  1  0.98711300  0.70651500  0.78418900  1
  C  266  1  0.97945500  0.70563700  0.79884200  1
  C  267  1  0.91661400  0.75206700  0.84232700  1
  C  268  1  0.88514600  0.76784500  0.84971200  1
  C  269  1  0.85419400  0.78444100  0.84204900  1
  C  270  1  0.85681300  0.78694700  0.82691100  1
  C  271  1  0.85572300  0.75574000  0.79627900  1
  C  272  1  0.82171600  0.77866200  0.79456200  1
  C  273  1  0.86039300  0.83991000  0.79585800  1
  C  274  1  0.89471600  0.81918100  0.79962300  1
  C  275  1  0.86022500  0.88060000  0.79447900  1
  C  276  1  0.89397600  0.90186600  0.79666000  1
  C  277  1  0.92909400  0.88326900  0.80024200  1
  C  278  1  0.92885300  0.84214700  0.80201400  1
  C  279  1  0.85156600  0.71521800  0.79289100  1
  C  280  1  0.81530500  0.69855600  0.78875100  1
  C  281  1  0.78189700  0.72157400  0.79106400  1
  C  282  1  0.78499200  0.76139100  0.79312500  1
  C  295  1  0.89231700  0.77527400  0.80247100  1
  C  296  1  0.82230500  0.82128700  0.79397800  1
  C  299  1  0.94891500  0.72977700  0.82057500  1
  C  302  1  0.11711100  0.23390900  0.81893700  1
  C  303  1  0.08812100  0.25301200  0.82718700  1
  C  304  1  0.05526000  0.27598000  0.80482900  1
  C  305  1  0.07842200  0.25128900  0.79607600  1
  C  306  1  0.06812900  0.24920800  0.78121000  1
  C  307  1  0.03841800  0.27289200  0.77517200  1
  C  308  1  0.01937600  0.29976300  0.78418200  1
  C  309  1  0.02699900  0.30063700  0.79883800  1
  C  310  1  0.08927800  0.25361200  0.84235400  1
  C  311  1  0.12066400  0.23771300  0.84975200  1
  C  312  1  0.15165400  0.22111500  0.84210300  1
  C  313  1  0.14916400  0.21880600  0.82695900  1
  C  314  1  0.15042600  0.25011100  0.79633200  1
  C  315  1  0.18439500  0.22713600  0.79461600  1
  C  316  1  0.14560400  0.16594800  0.79586800  1
  C  317  1  0.11130800  0.18672600  0.79963400  1
  C  318  1  0.14569400  0.12526200  0.79445600  1
  C  319  1  0.11191200  0.10404000  0.79663400  1
  C  320  1  0.07686100  0.12268000  0.80026500  1
  C  321  1  0.07715300  0.16379900  0.80203700  1
  C  322  1  0.15466600  0.29064900  0.79298700  1
  C  323  1  0.19095700  0.30728200  0.78886700  1
  C  324  1  0.22432000  0.28416700  0.79114000  1
  C  325  1  0.22114900  0.24434600  0.79317900  1
  C  338  1  0.11378700  0.23061200  0.80250400  1
  C  339  1  0.18372800  0.18451200  0.79400800  1
  C  342  1  0.05729000  0.27628000  0.82058800  1
  C  345  1  0.73422400  0.11683100  0.56891500  1
  C  346  1  0.75322200  0.08773000  0.57714400  1
  C  347  1  0.77600500  0.05483800  0.55476400  1
  C  348  1  0.75149600  0.07822000  0.54602100  1
  C  349  1  0.74947400  0.06810400  0.53113800  1
  C  350  1  0.77303700  0.03832500  0.52508200  1
  C  351  1  0.79976900  0.01906100  0.53408600  1
  C  352  1  0.80059200  0.02654500  0.54875200  1
  C  353  1  0.75392700  0.08887400  0.59231000  1
  C  354  1  0.73826500  0.12035000  0.59972400  1
  C  355  1  0.72172200  0.15140600  0.59209900  1
  C  356  1  0.71921500  0.14889100  0.57695900  1
  C  357  1  0.75050100  0.15022900  0.54633900  1
  C  358  1  0.72761000  0.18427200  0.54466900  1
  C  359  1  0.66633300  0.14561200  0.54586100  1
  C  360  1  0.68701900  0.11124000  0.54960000  1
  C  361  1  0.62564900  0.14582000  0.54445100  1
  C  362  1  0.60434500  0.11206700  0.54657900  1
  C  363  1  0.62289000  0.07692500  0.55016300  1
  C  364  1  0.66400700  0.07711600  0.55195600  1
  C  365  1  0.79104000  0.15439800  0.54298400  1
  C  366  1  0.80775200  0.19069400  0.53891200  1
  C  367  1  0.78473900  0.22409400  0.54126500  1
  C  368  1  0.74492000  0.22100400  0.54332400  1
  C  381  1  0.73090900  0.11359800  0.55247800  1
  C  382  1  0.68498800  0.18371200  0.54405200  1
  C  385  1  0.77630700  0.05679100  0.57052500  1
  C  388  1  0.27245700  0.88836000  0.56894600  1
  C  389  1  0.25340300  0.91727800  0.57724600  1
  C  390  1  0.23045000  0.95043800  0.55494100  1
  C  391  1  0.25502400  0.92727800  0.54613900  1
  C  392  1  0.25696200  0.93761600  0.53127400  1
  C  393  1  0.23326600  0.96741100  0.52530600  1
  C  394  1  0.20648600  0.98645200  0.53434900  1
  C  395  1  0.20576200  0.97875600  0.54900100  1
  C  396  1  0.25281100  0.91593800  0.59241100  1
  C  397  1  0.26868300  0.88444700  0.59975600  1
  C  398  1  0.28531000  0.85355900  0.59206300  1
  C  399  1  0.28759800  0.85623600  0.57692000  1
  C  400  1  0.25622200  0.85526200  0.54630200  1
  C  401  1  0.27920400  0.82130700  0.54455200  1
  C  402  1  0.34038400  0.86010600  0.54582700  1
  C  403  1  0.31959400  0.89436500  0.54963000  1
  C  404  1  0.38106800  0.86004200  0.54440700  1
  C  405  1  0.40227300  0.89382800  0.54659400  1
  C  406  1  0.38362100  0.92885900  0.55024600  1
  C  407  1  0.34251000  0.92852500  0.55204300  1
  C  408  1  0.21569600  0.85104400  0.54293200  1
  C  409  1  0.19907000  0.81476900  0.53878900  1
  C  410  1  0.22217400  0.78139500  0.54105800  1
  C  411  1  0.26199600  0.78456000  0.54309500  1
  C  424  1  0.27571600  0.89185300  0.55251500  1
  C  425  1  0.32182700  0.82198900  0.54393400  1
  C  428  1  0.23020300  0.94824200  0.57069800  1
  C  431  1  0.11168400  0.26853500  0.43675900  1
  C  432  1  0.08017100  0.25083500  0.42939400  1
  C  433  1  0.05089200  0.22948600  0.45257500  1
  C  434  1  0.07591000  0.25416200  0.46059000  1
  C  435  1  0.06792000  0.25724800  0.47562800  1
  C  436  1  0.03902300  0.23415400  0.48249700  1
  C  437  1  0.01868500  0.20663800  0.47415200  1
  C  438  1  0.02359600  0.20526000  0.45935200  1
  C  439  1  0.07835700  0.24963200  0.41426900  1
  C  440  1  0.10961600  0.26226400  0.40603900  1
  C  441  1  0.14374500  0.27561900  0.41272400  1
  C  442  1  0.14334700  0.28073600  0.42784100  1
  C  443  1  0.14775200  0.25390800  0.45900600  1
  C  444  1  0.18239100  0.27626600  0.45976600  1
  C  445  1  0.14473300  0.33811500  0.45819700  1
  C  446  1  0.10950600  0.31768500  0.45551000  1
  C  447  1  0.14574700  0.37889500  0.45913200  1
  C  448  1  0.11199600  0.40057000  0.45756300  1
  C  449  1  0.07611000  0.38232400  0.45491800  1
  C  450  1  0.07541800  0.34107100  0.45361400  1
  C  451  1  0.15148300  0.21376400  0.46301300  1
  C  452  1  0.18776300  0.19690400  0.46698800  1
  C  453  1  0.22140600  0.21894200  0.46396900  1
  C  454  1  0.21889500  0.25842400  0.46106200  1
  C  467  1  0.11072900  0.27351100  0.45319900  1
  C  468  1  0.18272200  0.31892600  0.45950100  1
  C  471  1  0.04952100  0.22929100  0.43682900  1
  C  474  1  0.89427800  0.73748500  0.43680000  1
  C  475  1  0.92552800  0.75561800  0.42942700  1
  C  476  1  0.95486500  0.77690700  0.45260600  1
  C  477  1  0.93021900  0.75180900  0.46060300  1
  C  478  1  0.93852700  0.74841800  0.47561000  1
  C  479  1  0.96753300  0.77145400  0.48244400  1
  C  480  1  0.98738300  0.79944100  0.47416200  1
  C  481  1  0.98201300  0.80128600  0.45939400  1
  C  482  1  0.92716700  0.75708900  0.41430200  1
  C  483  1  0.89590800  0.74434500  0.40609700  1
  C  484  1  0.86201800  0.73045300  0.41280100  1
  C  485  1  0.86264400  0.72509000  0.42790500  1
  C  486  1  0.85837700  0.75173400  0.45910100  1
  C  487  1  0.82386000  0.72920300  0.45990300  1
  C  488  1  0.86178800  0.66754300  0.45823300  1
  C  489  1  0.89687100  0.68815600  0.45548300  1
  C  490  1  0.86097000  0.62675100  0.45912300  1
  C  491  1  0.89480000  0.60524400  0.45746600  1
  C  492  1  0.93057600  0.62368800  0.45480000  1
  C  493  1  0.93105700  0.66495200  0.45352800  1
  C  494  1  0.85445500  0.79189300  0.46306200  1
  C  495  1  0.81811900  0.80860200  0.46705800  1
  C  496  1  0.78457400  0.78636100  0.46408300  1
  C  497  1  0.78728000  0.74686000  0.46124700  1
  C  510  1  0.89542900  0.73234700  0.45323000  1
  C  511  1  0.82372700  0.68654000  0.45961600  1
  C  514  1  0.95591200  0.77754200  0.43685900  1
  C  517  1  0.77167100  0.11638000  0.18730200  1
  C  518  1  0.75230800  0.08729500  0.17918000  1
  C  519  1  0.72976600  0.05488300  0.20168700  1
  C  520  1  0.75483200  0.07804100  0.21029300  1
  C  521  1  0.75728300  0.06796700  0.22517000  1
  C  522  1  0.73358000  0.03849000  0.23134300  1
  C  523  1  0.70616200  0.01960500  0.22251700  1
  C  524  1  0.70506500  0.02690700  0.20783800  1
  C  525  1  0.75125800  0.08826200  0.16401600  1
  C  526  1  0.76707600  0.11946500  0.15648900  1
  C  527  1  0.78387200  0.15056600  0.16401900  1
  C  528  1  0.78664200  0.14827000  0.17915600  1
  C  529  1  0.75586200  0.15000700  0.20988600  1
  C  530  1  0.77872000  0.18412300  0.21140700  1
  C  531  1  0.84000900  0.14551000  0.21008200  1
  C  532  1  0.81925300  0.11105100  0.20650500  1
  C  533  1  0.88072200  0.14573600  0.21137800  1
  C  534  1  0.90197700  0.11192900  0.20929000  1
  C  535  1  0.88334200  0.07672000  0.20586800  1
  C  536  1  0.84220200  0.07687800  0.20418000  1
  C  537  1  0.71546200  0.15407400  0.21346800  1
  C  538  1  0.69880800  0.19033200  0.21759600  1
  C  539  1  0.72160900  0.22379600  0.21510300  1
  C  540  1  0.76136200  0.22081100  0.21283900  1
  C  553  1  0.77532000  0.11333400  0.20373400  1
  C  554  1  0.82136200  0.18362900  0.21187000  1
  C  557  1  0.72907500  0.05666000  0.18592500  1
  C  560  1  0.23393800  0.88865900  0.18731100  1
  C  561  1  0.25316000  0.91766100  0.17910400  1
  C  562  1  0.27604800  0.95031000  0.20151900  1
  C  563  1  0.25109600  0.92726000  0.21020700  1
  C  564  1  0.24882300  0.93752000  0.22506900  1
  C  565  1  0.27264300  0.96700700  0.23117400  1
  C  566  1  0.29989400  0.98583100  0.22225400  1
  C  567  1  0.30085100  0.97832700  0.20758600  1
  C  568  1  0.25396800  0.91653600  0.16393800  1
  C  569  1  0.23812500  0.88518700  0.15650000  1
  C  570  1  0.22135700  0.85422300  0.16410600  1
  C  571  1  0.21882300  0.85668900  0.17924800  1
  C  572  1  0.25004700  0.85529600  0.20992100  1
  C  573  1  0.22722000  0.82119100  0.21151900  1
  C  574  1  0.16592000  0.85982700  0.21030600  1
  C  575  1  0.18662100  0.89422000  0.20659700  1
  C  576  1  0.12523900  0.85965600  0.21173300  1
  C  577  1  0.10395500  0.89343400  0.20961400  1
  C  578  1  0.12252900  0.92853900  0.20601200  1
  C  579  1  0.16363800  0.92834200  0.20422800  1
  C  580  1  0.29047500  0.85126100  0.21345900  1
  C  581  1  0.30714900  0.81502700  0.21760200  1
  C  582  1  0.28440800  0.78152200  0.21510400  1
  C  583  1  0.24461000  0.78450700  0.21292800  1
  C  596  1  0.23051100  0.89189600  0.20374500  1
  C  597  1  0.18458700  0.82171900  0.21210800  1
  C  600  1  0.27652800  0.94834300  0.18575800  1
  C  603  1  0.38884200  0.27168500  0.31888600  1
  C  604  1  0.41780700  0.25240000  0.32709000  1
  C  605  1  0.45082700  0.23003700  0.30467600  1
  C  606  1  0.42763200  0.25487700  0.29599100  1
  C  607  1  0.43788100  0.25724100  0.28112700  1
  C  608  1  0.46772200  0.23379800  0.27505300  1
  C  609  1  0.48672500  0.20667500  0.28396200  1
  C  610  1  0.47908700  0.20549600  0.29861400  1
  C  611  1  0.41653900  0.25135000  0.34225300  1
  C  612  1  0.38513500  0.26707900  0.34968700  1
  C  613  1  0.35420300  0.28389500  0.34207800  1
  C  614  1  0.35679400  0.28665900  0.32694500  1
  C  615  1  0.35563400  0.25582000  0.29623000  1
  C  616  1  0.32152800  0.27865100  0.29461500  1
  C  617  1  0.36006900  0.33996900  0.29601000  1
  C  618  1  0.39447300  0.31924800  0.29968500  1
  C  619  1  0.35984000  0.38067900  0.29469800  1
  C  620  1  0.39360500  0.40195400  0.29684600  1
  C  621  1  0.42877800  0.38334200  0.30034100  1
  C  622  1  0.42861000  0.34221100  0.30205600  1
  C  623  1  0.35166200  0.21540900  0.29265300  1
  C  624  1  0.31548900  0.19874400  0.28843000  1
  C  625  1  0.28196200  0.22150700  0.29084900  1
  C  626  1  0.28487700  0.26126500  0.29310900  1
  C  639  1  0.39218700  0.27531500  0.30246000  1
  C  640  1  0.32199500  0.32129300  0.29413800  1
  C  643  1  0.44868900  0.22931500  0.32043100  1
  C  646  1  0.61708600  0.73394300  0.31894000  1
  C  647  1  0.58812400  0.75325700  0.32713600  1
  C  648  1  0.55537900  0.77593000  0.30470900  1
  C  649  1  0.57843500  0.75094500  0.29603400  1
  C  650  1  0.56814000  0.74856600  0.28117700  1
  C  651  1  0.53854800  0.77224800  0.27505800  1
  C  652  1  0.51964100  0.79942600  0.28398200  1
  C  653  1  0.52724700  0.80059000  0.29863700  1
  C  654  1  0.58926700  0.75416200  0.34230100  1
  C  655  1  0.62060400  0.73832600  0.34974700  1
  C  656  1  0.65156500  0.72150400  0.34215000  1
  C  657  1  0.64908800  0.71891900  0.32701100  1
  C  658  1  0.65041300  0.74982800  0.29630300  1
  C  659  1  0.68446900  0.72692900  0.29468600  1
  C  660  1  0.64578400  0.66568900  0.29603900  1
  C  661  1  0.61142000  0.68647700  0.29971500  1
  C  662  1  0.64592000  0.62498500  0.29469400  1
  C  663  1  0.61211400  0.60377100  0.29683900  1
  C  664  1  0.57701600  0.62244100  0.30038300  1
  C  665  1  0.57725400  0.66356900  0.30209900  1
  C  666  1  0.65448900  0.79025100  0.29276200  1
  C  667  1  0.69071200  0.80689000  0.28858500  1
  C  668  1  0.72417600  0.78400000  0.29096200  1
  C  669  1  0.72116200  0.74423500  0.29318800  1
  C  682  1  0.61380200  0.73038900  0.30251200  1
  C  683  1  0.68390300  0.68428900  0.29418600  1
  C  686  1  0.55741300  0.77655300  0.32046700  1
  C  689  1  0.09807500  0.54331700  0.05229800  1
  C  690  1  0.07792200  0.53199600  0.03973600  1
  C  692  1  0.02246600  0.51027700  0.05303000  1
  C  693  1  0.04182000  0.51847200  0.06616200  1
  C  694  1  0.07927900  0.53568200  0.06554200  1
  C  696  1  0.98381200  0.49618500  0.05304300  1
  C  697  1  0.92827000  0.47451500  0.03976600  1
  C  698  1  0.90852400  0.46260500  0.05234300  1
  C  699  1  0.92741400  0.46995200  0.06558400  1
  C  702  1  0.96472400  0.48748200  0.06618300  1
  C  703  1  0.98441500  0.49490000  0.07926100  1
  C  704  1  0.02219100  0.51105700  0.07925000  1
  C  711  1  0.54358700  0.90835300  0.95396000  1
  C  712  1  0.53209400  0.92848700  0.96650700  1
  C  714  1  0.51062500  0.98398600  0.95317600  1
  C  715  1  0.51897700  0.96463500  0.94005800  1
  C  716  1  0.53611200  0.92714100  0.94070100  1
  C  718  1  0.49655600  0.02265000  0.95314200  1
  C  719  1  0.47468100  0.07818400  0.96636600  1
  C  720  1  0.46301900  0.09805000  0.95377100  1
  C  721  1  0.47051500  0.07905400  0.94056500  1
  C  724  1  0.48807100  0.04175700  0.93998700  1
  C  725  1  0.49564200  0.02207200  0.92692200  1
  C  726  1  0.51175900  0.98427900  0.92695900  1
  C  733  1  0.40813900  0.54314900  0.70372900  1
  C  734  1  0.42815700  0.53192000  0.71633700  1
  C  736  1  0.48364700  0.51005700  0.70307400  1
  C  737  1  0.46434200  0.51815600  0.68992300  1
  C  738  1  0.42687800  0.53535200  0.69049900  1
  C  740  1  0.52227800  0.49590300  0.70309000  1
  C  741  1  0.57769200  0.47407700  0.71638300  1
  C  742  1  0.59763600  0.46221000  0.70383600  1
  C  743  1  0.57869000  0.46958400  0.69060000  1
  C  746  1  0.54140900  0.48714600  0.68996600  1
  C  747  1  0.52178500  0.49450800  0.67687000  1
  C  748  1  0.48400700  0.51065700  0.67685000  1
  C  755  1  0.96165300  0.90878200  0.80156700  1
  C  756  1  0.97388500  0.92851300  0.78902400  1
  C  758  1  0.99550800  0.98383500  0.80237100  1
  C  759  1  0.98682000  0.96466600  0.81549600  1
  C  760  1  0.96908200  0.92745200  0.81484100  1
  C  762  1  0.00986900  0.02234800  0.80237600  1
  C  763  1  0.03163200  0.07765500  0.78904700  1
  C  764  1  0.04428600  0.09723700  0.80156800  1
  C  765  1  0.03694300  0.07840100  0.81482900  1
  C  768  1  0.01882800  0.04137800  0.81549500  1
  C  769  1  0.01110100  0.02182900  0.82857800  1
  C  770  1  0.99431600  0.98430800  0.82857700  1
  C  777  1  0.59733700  0.04439100  0.55140800  1
  C  778  1  0.57751200  0.03212000  0.53889500  1
  C  780  1  0.52228600  0.01041400  0.55227300  1
  C  781  1  0.54151300  0.01911100  0.56538200  1
  C  782  1  0.57867600  0.03695300  0.56469300  1
  C  784  1  0.48380100  0.99597800  0.55230100  1
  C  785  1  0.42848200  0.97411700  0.53899600  1
  C  786  1  0.40905500  0.96147600  0.55154200  1
  C  787  1  0.42785000  0.96878300  0.56480600  1
  C  790  1  0.46487000  0.98692700  0.56543600  1
  C  791  1  0.48449400  0.99465500  0.57850500  1
  C  792  1  0.52197900  0.01152600  0.57847800  1
  C  799  1  0.04389200  0.40835300  0.45389200  1
  C  800  1  0.03243500  0.42849400  0.46644000  1
  C  802  1  0.01077500  0.48390000  0.45310300  1
  C  803  1  0.01914300  0.46455100  0.43998500  1
  C  804  1  0.03633800  0.42709300  0.44063100  1
  C  806  1  0.99660800  0.52252700  0.45306200  1
  C  807  1  0.97455300  0.57800000  0.46627900  1
  C  808  1  0.96290900  0.59783900  0.45367700  1
  C  809  1  0.97047100  0.57886100  0.44047400  1
  C  812  1  0.98809100  0.54160000  0.43990400  1
  C  813  1  0.99570000  0.52192100  0.42684000  1
  C  814  1  0.01187400  0.48415500  0.42688200  1
  C  821  1  0.90881100  0.04412600  0.20460700  1
  C  822  1  0.92848100  0.03197900  0.21717500  1
  C  824  1  0.98377700  0.01013200  0.20384700  1
  C  825  1  0.96462600  0.01870700  0.19071100  1
  C  826  1  0.92745200  0.03651800  0.19134300  1
  C  828  1  0.02224800  0.99566200  0.20386000  1
  C  829  1  0.07743200  0.97373700  0.21721000  1
  C  830  1  0.09705000  0.96107200  0.20470000  1
  C  831  1  0.07824200  0.96837700  0.19143300  1
  C  834  1  0.04125000  0.98654500  0.19074900  1
  C  835  1  0.02171900  0.99418500  0.17765600  1
  C  836  1  0.98422700  0.01102800  0.17763800  1
  C  843  1  0.46134900  0.40882300  0.30164600  1
  C  844  1  0.47354700  0.42855500  0.28909900  1
  C  846  1  0.49536400  0.48378100  0.30245400  1
  C  847  1  0.48666100  0.46462100  0.31557800  1
  C  848  1  0.46885900  0.42744400  0.31492200  1
  C  850  1  0.50983000  0.52225200  0.30246100  1
  C  851  1  0.53178400  0.57748600  0.28913600  1
  C  852  1  0.54441700  0.59704100  0.30166300  1
  C  853  1  0.53700200  0.57823800  0.31492300  1
  C  856  1  0.51881700  0.54125200  0.31558300  1
  C  857  1  0.51105100  0.52171800  0.32866700  1
  C  858  1  0.49420600  0.48422700  0.32866100  1
  C  865  1  0.22645300  0.67705200  0.10240200  1
  C  866  1  0.25760500  0.68758800  0.11150200  1
  C  868  1  0.21936300  0.73452900  0.12375700  1
  C  869  1  0.18745900  0.72754400  0.11444600  1
  C  870  1  0.19154100  0.69834700  0.10377600  1
  C  872  1  0.21672300  0.76191300  0.13495700  1
  C  873  1  0.24749800  0.79426600  0.15455800  1
  C  874  1  0.21542700  0.81919300  0.15644600  1
  C  875  1  0.18296300  0.81396200  0.14735500  1
  C  878  1  0.18269100  0.78463500  0.13666800  1
  C  879  1  0.15086600  0.77802400  0.12734200  1
  C  880  1  0.15301700  0.74932000  0.11647900  1
  C  887  1  0.78042000  0.32671800  0.10188300  1
  C  888  1  0.74840400  0.31496700  0.11033500  1
  C  890  1  0.78666800  0.26952400  0.12334600  1
  C  891  1  0.81959600  0.27782700  0.11469400  1
  C  892  1  0.81592300  0.30688500  0.10395500  1
  C  894  1  0.78882700  0.24234600  0.13462700  1
  C  895  1  0.75664800  0.20900000  0.15367500  1
  C  896  1  0.78945900  0.18553400  0.15627900  1
  C  897  1  0.82292900  0.19196000  0.14782600  1
  C  900  1  0.82350300  0.22112700  0.13707800  1
  C  901  1  0.85633200  0.22900700  0.12838700  1
  C  902  1  0.85457100  0.25752900  0.11744800  1
  C  909  1  0.67775400  0.77997300  0.90400900  1
  C  910  1  0.68862000  0.74852200  0.89510800  1
  C  912  1  0.73491500  0.78682200  0.88253500  1
  C  913  1  0.72755800  0.81907900  0.89163900  1
  C  914  1  0.69851200  0.81511700  0.90237000  1
  C  916  1  0.76213300  0.78932300  0.87127700  1
  C  917  1  0.79473300  0.75807800  0.85183800  1
  C  918  1  0.81911700  0.79045700  0.84967000  1
  C  919  1  0.81354800  0.82322800  0.85857600  1
  C  922  1  0.78433300  0.82359900  0.86930300  1
  C  923  1  0.77736800  0.85576600  0.87842900  1
  C  924  1  0.74881000  0.85373000  0.88934600  1
  C  931  1  0.32794500  0.22612500  0.90413600  1
  C  932  1  0.31665500  0.25770400  0.89537100  1
  C  934  1  0.27081500  0.21919600  0.88266300  1
  C  935  1  0.27858200  0.18677300  0.89163800  1
  C  936  1  0.30760200  0.19078300  0.90237800  1
  C  938  1  0.24365600  0.21666800  0.87138700  1
  C  939  1  0.21081600  0.24801300  0.85202600  1
  C  940  1  0.18673800  0.21546300  0.84975500  1
  C  941  1  0.19270300  0.18249600  0.85853200  1
  C  944  1  0.22189300  0.18218000  0.86926900  1
  C  945  1  0.22924600  0.14984500  0.87827300  1
  C  946  1  0.25777000  0.15192600  0.88920300  1
  C  953  1  0.27960900  0.67621000  0.65366000  1
  C  954  1  0.24864500  0.68660700  0.64444800  1
  C  956  1  0.28699700  0.73365900  0.63229700  1
  C  957  1  0.31869400  0.72682700  0.64172000  1
  C  958  1  0.31445900  0.69765600  0.65239300  1
  C  960  1  0.28978400  0.76105700  0.62110600  1
  C  961  1  0.25932400  0.79332300  0.60140800  1
  C  962  1  0.29131000  0.81843300  0.59966100  1
  C  963  1  0.32358800  0.81332400  0.60885000  1
  C  966  1  0.32374800  0.78394700  0.61951800  1
  C  967  1  0.35537200  0.77747600  0.62895000  1
  C  968  1  0.35308700  0.74876000  0.63980400  1
  C  975  1  0.72616000  0.32787000  0.65408100  1
  C  976  1  0.75781100  0.31655300  0.64535700  1
  C  978  1  0.71941500  0.27065400  0.63262700  1
  C  979  1  0.68690900  0.27847300  0.64155300  1
  C  980  1  0.69083100  0.30752300  0.65228600  1
  C  982  1  0.71699300  0.24342900  0.62136800  1
  C  983  1  0.74853400  0.21042900  0.60208900  1
  C  984  1  0.71592600  0.18647100  0.59975200  1
  C  985  1  0.68290000  0.19245700  0.60848900  1
  C  988  1  0.68250500  0.22168800  0.61921200  1
  C  989  1  0.65008300  0.22910400  0.62816600  1
  C  990  1  0.65207600  0.25766500  0.63908500  1
  C  997  1  0.17759000  0.27940100  0.40399800  1
  C  998  1  0.18846200  0.24797100  0.39508600  1
  C  1000  1  0.23482600  0.28626400  0.38254600  1
  C  1001  1  0.22746600  0.31850300  0.39165700  1
  C  1002  1  0.19839200  0.31452900  0.40237800  1
  C  1004  1  0.26209700  0.28876100  0.37130500  1
  C  1005  1  0.29475100  0.25751800  0.35187600  1
  C  1006  1  0.31915800  0.28988500  0.34972500  1
  C  1007  1  0.31358000  0.32264800  0.35863200  1
  C  1010  1  0.28433000  0.32301900  0.36934900  1
  C  1011  1  0.27735200  0.35517800  0.37847900  1
  C  1012  1  0.24875600  0.35313900  0.38938300  1
  C  1019  1  0.82812100  0.72652000  0.40411200  1
  C  1020  1  0.81680500  0.75808400  0.39534400  1
  C  1022  1  0.77088200  0.71959000  0.38267100  1
  C  1023  1  0.77867700  0.68717300  0.39164600  1
  C  1024  1  0.80773700  0.69118700  0.40237100  1
  C  1026  1  0.74365500  0.71707200  0.37141600  1
  C  1027  1  0.71071600  0.74843000  0.35208100  1
  C  1028  1  0.68662700  0.71588200  0.34982100  1
  C  1029  1  0.69262600  0.68291400  0.35859400  1
  C  1032  1  0.72186400  0.68259200  0.36931500  1
  C  1033  1  0.72925500  0.65026000  0.37831600  1
  C  1034  1  0.75783100  0.65233700  0.38922900  1
  C  1041  1  0.34581400  0.69372000  0.03218000  1
  C  1042  1  0.38121000  0.67460600  0.03515500  1
  C  1044  1  0.41728800  0.71549600  0.01881600  1
  C  1045  1  0.38256200  0.73515500  0.01506700  1
  C  1046  1  0.34749700  0.72252500  0.02129400  1
  C  1048  1  0.45261100  0.72663300  0.01209600  1
  C  1049  1  0.51893300  0.71212300  0.00627300  1
  C  1050  1  0.52067600  0.74178400  0.99576800  1
  C  1051  1  0.48810300  0.76662700  0.99478100  1
  C  1054  1  0.45337100  0.75839400  0.00231000  1
  C  1055  1  0.41876700  0.77891400  0.99929200  1
  C  1056  1  0.38342600  0.76689600  0.00542500  1
  C  1063  1  0.66119000  0.31168000  0.03190100  1
  C  1064  1  0.62574200  0.33053600  0.03501800  1
  C  1066  1  0.58960600  0.28984800  0.01862600  1
  C  1067  1  0.62437300  0.27044800  0.01474200  1
  C  1068  1  0.65947300  0.28312800  0.02092500  1
  C  1070  1  0.55424200  0.27870100  0.01193900  1
  C  1071  1  0.48776400  0.29303900  0.00628100  1
  C  1072  1  0.48603500  0.26361500  0.99567500  1
  C  1073  1  0.51874500  0.23905600  0.99453400  1
  C  1076  1  0.55350500  0.24715500  0.00205600  1
  C  1077  1  0.58815000  0.22685000  0.99891100  1
  C  1078  1  0.62352300  0.23891600  0.00500600  1
  C  1085  1  0.69385600  0.66057200  0.97417000  1
  C  1086  1  0.67478600  0.62516400  0.97117300  1
  C  1088  1  0.71559800  0.58911000  0.98754600  1
  C  1089  1  0.73517900  0.62385900  0.99132900  1
  C  1090  1  0.72254800  0.65891600  0.98509600  1
  C  1092  1  0.72673100  0.55379200  0.99426900  1
  C  1093  1  0.71233500  0.48746200  0.00007200  1
  C  1094  1  0.74186200  0.48560000  0.01064100  1
  C  1095  1  0.76651600  0.51835000  0.01163500  1
  C  1098  1  0.75839400  0.55307000  0.00409200  1
  C  1099  1  0.77885400  0.58768300  0.00714300  1
  C  1100  1  0.76683500  0.62302100  0.00100800  1
  C  1107  1  0.31179900  0.34533600  0.97418500  1
  C  1108  1  0.33102000  0.38066200  0.97118300  1
  C  1110  1  0.29017600  0.41699200  0.98746000  1
  C  1111  1  0.27039900  0.38235000  0.99123600  1
  C  1112  1  0.28297200  0.34719800  0.98506000  1
  C  1114  1  0.27915000  0.45238500  0.99415500  1
  C  1115  1  0.29384900  0.51873000  0.99990700  1
  C  1116  1  0.26427200  0.52057500  0.01044700  1
  C  1117  1  0.23936200  0.48805700  0.01146900  1
  C  1120  1  0.24738400  0.45329600  0.00393700  1
  C  1121  1  0.22673100  0.41879000  0.00697300  1
  C  1122  1  0.23864300  0.38337400  0.00087000  1
  C  1129  1  0.16109600  0.69329300  0.72452300  1
  C  1130  1  0.12572100  0.67389900  0.72177100  1
  C  1132  1  0.09013400  0.71440300  0.73837400  1
  C  1133  1  0.12486600  0.73434600  0.74190400  1
  C  1134  1  0.15971500  0.72207600  0.73542000  1
  C  1136  1  0.05504600  0.72522300  0.74532000  1
  C  1137  1  0.98903900  0.71041400  0.75146400  1
  C  1138  1  0.98723800  0.74030100  0.76188200  1
  C  1139  1  0.01998600  0.76493500  0.76281400  1
  C  1142  1  0.05449600  0.75692900  0.75512600  1
  C  1143  1  0.08906800  0.77769000  0.75795800  1
  C  1144  1  0.12420800  0.76600600  0.75158400  1
  C  1151  1  0.84470000  0.31213800  0.72467400  1
  C  1152  1  0.88005500  0.33152200  0.72187500  1
  C  1154  1  0.91571800  0.29119700  0.73851600  1
  C  1155  1  0.88100100  0.27129700  0.74210100  1
  C  1156  1  0.84612100  0.28350700  0.73562600  1
  C  1158  1  0.95083800  0.28046200  0.74545600  1
  C  1159  1  0.01689700  0.29537700  0.75152200  1
  C  1160  1  0.01865500  0.26558400  0.76198300  1
  C  1161  1  0.98593200  0.24103300  0.76302100  1
  C  1164  1  0.95142100  0.24886400  0.75531600  1
  C  1165  1  0.91686700  0.22813400  0.75820200  1
  C  1166  1  0.88169700  0.23975500  0.75183400  1
  C  1173  1  0.80947800  0.66186600  0.78150400  1
  C  1174  1  0.82834500  0.62656600  0.78484300  1
  C  1176  1  0.78821200  0.58978000  0.76845600  1
  C  1177  1  0.76882200  0.62436100  0.76435200  1
  C  1178  1  0.78129000  0.65968400  0.77041000  1
  C  1180  1  0.77737400  0.55420700  0.76185100  1
  C  1181  1  0.79220900  0.48774000  0.75640000  1
  C  1182  1  0.76309000  0.48563100  0.74567500  1
  C  1183  1  0.73830000  0.51814700  0.74442300  1
  C  1186  1  0.74609400  0.55310200  0.75185800  1
  C  1187  1  0.72573400  0.58757500  0.74851800  1
  C  1188  1  0.73754900  0.62315100  0.75450800  1
  C  1195  1  0.19682900  0.34399200  0.78163600  1
  C  1196  1  0.17795300  0.37928100  0.78498600  1
  C  1198  1  0.21802000  0.41611300  0.76859400  1
  C  1199  1  0.23743200  0.38155000  0.76448100  1
  C  1200  1  0.22500500  0.34620900  0.77053800  1
  C  1202  1  0.22879800  0.45169500  0.76198100  1
  C  1203  1  0.21400100  0.51820800  0.75658900  1
  C  1204  1  0.24291500  0.52040100  0.74579600  1
  C  1205  1  0.26769400  0.48781600  0.74453100  1
  C  1208  1  0.26002400  0.45284300  0.75197300  1
  C  1209  1  0.28041600  0.41839600  0.74862300  1
  C  1210  1  0.26867500  0.38280300  0.75462300  1
  C  1217  1  0.84444100  0.19655200  0.53166300  1
  C  1218  1  0.87969200  0.17750700  0.53493900  1
  C  1220  1  0.91656200  0.21775900  0.51861900  1
  C  1221  1  0.88204200  0.23735300  0.51458300  1
  C  1222  1  0.84669500  0.22492400  0.52063300  1
  C  1224  1  0.95214900  0.22857500  0.51201900  1
  C  1225  1  0.01858900  0.21359700  0.50652900  1
  C  1226  1  0.02071100  0.24287800  0.49588300  1
  C  1227  1  0.98833700  0.26790100  0.49468600  1
  C  1230  1  0.95335300  0.26003600  0.50210400  1
  C  1231  1  0.91893500  0.28057600  0.49883100  1
  C  1232  1  0.88333600  0.26879500  0.50481400  1
  C  1239  1  0.16237400  0.80892100  0.53154500  1
  C  1240  1  0.12704800  0.82771200  0.53490400  1
  C  1242  1  0.09029000  0.78762000  0.51849500  1
  C  1243  1  0.12489000  0.76828600  0.51437800  1
  C  1244  1  0.16020600  0.78076800  0.52043600  1
  C  1246  1  0.05472400  0.77677400  0.51188500  1
  C  1247  1  0.98819500  0.79154500  0.50646800  1
  C  1248  1  0.98614100  0.76243500  0.49574900  1
  C  1249  1  0.01869400  0.73774600  0.49443400  1
  C  1252  1  0.05364500  0.74551700  0.50187800  1
  C  1253  1  0.08814100  0.72520600  0.49852600  1
  C  1254  1  0.12370700  0.73704700  0.50451800  1
  C  1261  1  0.19339200  0.16100600  0.47475100  1
  C  1262  1  0.17404800  0.12562900  0.47195300  1
  C  1264  1  0.21437800  0.09003300  0.48861300  1
  C  1265  1  0.23420500  0.12478500  0.49220700  1
  C  1266  1  0.22196400  0.15964300  0.48572400  1
  C  1268  1  0.22518000  0.05492400  0.49554800  1
  C  1269  1  0.21045100  0.98884200  0.50160600  1
  C  1270  1  0.24024700  0.98700900  0.51206200  1
  C  1271  1  0.26471800  0.01986000  0.51308600  1
  C  1274  1  0.25676700  0.05438800  0.50540800  1
  C  1275  1  0.27741500  0.08898100  0.50830900  1
  C  1276  1  0.26573200  0.12413900  0.50194800  1
  C  1283  1  0.81235800  0.84464700  0.47472000  1
  C  1284  1  0.83185500  0.87994200  0.47192000  1
  C  1286  1  0.79144900  0.91581900  0.48847000  1
  C  1287  1  0.77141900  0.88117500  0.49205400  1
  C  1288  1  0.78362800  0.84622000  0.48563500  1
  C  1290  1  0.78073300  0.95100400  0.49537100  1
  C  1291  1  0.79575700  0.01708300  0.50139000  1
  C  1292  1  0.76586900  0.01892400  0.51179700  1
  C  1293  1  0.74113100  0.98630700  0.51283500  1
  C  1296  1  0.74901000  0.95173500  0.50517500  1
  C  1297  1  0.72815900  0.91725200  0.50805400  1
  C  1298  1  0.73976200  0.88201300  0.50173600  1
  C  1305  1  0.66242000  0.19599900  0.22505600  1
  C  1306  1  0.62718100  0.17666300  0.22201100  1
  C  1308  1  0.59082200  0.21653400  0.23860200  1
  C  1309  1  0.62536500  0.23641900  0.24241200  1
  C  1310  1  0.66049700  0.22435100  0.23609900  1
  C  1312  1  0.55547500  0.22702600  0.24543900  1
  C  1313  1  0.48938800  0.21172000  0.25128600  1
  C  1314  1  0.48718300  0.24127800  0.26182300  1
  C  1315  1  0.51974800  0.26608700  0.26295300  1
  C  1318  1  0.55450300  0.25843700  0.25537100  1
  C  1319  1  0.58890100  0.27922400  0.25844900  1
  C  1320  1  0.62429700  0.26778100  0.25221900  1
  C  1327  1  0.34351700  0.80943100  0.22508000  1
  C  1328  1  0.37876200  0.82874500  0.22202400  1
  C  1330  1  0.41506300  0.78904100  0.23868800  1
  C  1331  1  0.38050200  0.76921400  0.24251900  1
  C  1332  1  0.34539100  0.78122100  0.23617400  1
  C  1334  1  0.45039200  0.77861900  0.24554900  1
  C  1335  1  0.51651700  0.79397600  0.25136500  1
  C  1336  1  0.51860500  0.76450000  0.26194100  1
  C  1337  1  0.48603200  0.73982000  0.26315900  1
  C  1340  1  0.45132000  0.74731900  0.25553500  1
  C  1341  1  0.41691100  0.72658300  0.25863800  1
  C  1342  1  0.38153500  0.73797800  0.25238000  1
  C  1349  1  0.30996000  0.16234900  0.28096600  1
  C  1350  1  0.32915800  0.12708600  0.28409000  1
  C  1352  1  0.28952300  0.09074300  0.26741700  1
  C  1353  1  0.26982900  0.12532300  0.26351500  1
  C  1354  1  0.28187400  0.16045700  0.26983000  1
  C  1356  1  0.27905200  0.05537600  0.26059300  1
  C  1357  1  0.29430100  0.98919000  0.25486100  1
  C  1358  1  0.26487800  0.98708700  0.24426400  1
  C  1359  1  0.24021600  0.01967300  0.24300500  1
  C  1362  1  0.24781900  0.05444100  0.25057800  1
  C  1363  1  0.22721600  0.08887900  0.24740200  1
  C  1364  1  0.23866700  0.12428700  0.25362100  1
  C  1371  1  0.69632200  0.84331600  0.28115000  1
  C  1372  1  0.67714200  0.87857600  0.28429400  1
  C  1374  1  0.71677000  0.91496900  0.26763800  1
  C  1375  1  0.73646400  0.88040300  0.26371900  1
  C  1376  1  0.72441400  0.84524500  0.27001600  1
  C  1378  1  0.72722700  0.95035400  0.26082200  1
  C  1379  1  0.71205300  0.01659800  0.25515500  1
  C  1380  1  0.74132300  0.01878500  0.24450700  1
  C  1381  1  0.76595900  0.98612400  0.24323500  1
  C  1384  1  0.75843200  0.95133100  0.25080100  1
  C  1385  1  0.77904200  0.91690700  0.24761000  1
  C  1386  1  0.76761600  0.88147900  0.25382000  1
  N  691  1  0.04152900  0.51705900  0.04050100  1
  N  701  1  0.96461100  0.48959100  0.04052700  1
  N  713  1  0.51722200  0.96490100  0.96571500  1
  N  723  1  0.48978500  0.04185000  0.96564300  1
  N  735  1  0.46456300  0.51699200  0.71559000  1
  N  745  1  0.54141200  0.48928400  0.71561500  1
  N  757  1  0.98905400  0.96476800  0.78982600  1
  N  767  1  0.01633500  0.04145000  0.78984200  1
  N  779  1  0.54128100  0.01690900  0.53971700  1
  N  789  1  0.46465000  0.98951500  0.53977400  1
  N  801  1  0.01746400  0.46486700  0.46564500  1
  N  811  1  0.98975900  0.54170800  0.46556300  1
  N  823  1  0.96473900  0.01679800  0.21638300  1
  N  833  1  0.04130700  0.98920500  0.21640400  1
  N  845  1  0.48881700  0.46476300  0.28990500  1
  N  855  1  0.51638000  0.54132700  0.28992700  1
  N  867  1  0.25294800  0.71481200  0.12177100  1
  N  877  1  0.24727700  0.76750600  0.14393600  1
  N  889  1  0.75265900  0.28791200  0.12069200  1
  N  899  1  0.75727400  0.23558900  0.14300000  1
  N  911  1  0.71566800  0.75307400  0.88476500  1
  N  921  1  0.76808300  0.75842000  0.86249600  1
  N  933  1  0.28962700  0.25312400  0.88502500  1
  N  943  1  0.23738600  0.24772100  0.86271100  1
  N  955  1  0.25344300  0.71382000  0.63418100  1
  N  965  1  0.25941900  0.76654800  0.61202800  1
  N  977  1  0.75332000  0.28948300  0.63502000  1
  N  987  1  0.74814500  0.23707100  0.61274900  1
  N  999  1  0.21554600  0.25252700  0.38475600  1
  N  1009  1  0.26806100  0.25786500  0.36252100  1
  N  1021  1  0.78972300  0.75350900  0.38501600  1
  N  1031  1  0.73734600  0.74812800  0.36274600  1
  N  1043  1  0.41477900  0.68582100  0.02851100  1
  N  1053  1  0.48560500  0.70540200  0.01372300  1
  N  1065  1  0.59212100  0.31930300  0.02841300  1
  N  1075  1  0.52116400  0.29973700  0.01369200  1
  N  1087  1  0.68600900  0.59159300  0.97781300  1
  N  1097  1  0.70560500  0.52075500  0.99260700  1
  N  1109  1  0.31988100  0.41431700  0.97778400  1
  N  1119  1  0.30047400  0.48530700  0.99250100  1
  N  1131  1  0.09239500  0.68480000  0.72864200  1
  N  1141  1  0.02211900  0.70381500  0.74385500  1
  N  1153  1  0.91341500  0.32068400  0.72873900  1
  N  1163  1  0.98376300  0.30186100  0.74393100  1
  N  1175  1  0.81738800  0.59269800  0.77834300  1
  N  1185  1  0.79852700  0.52127700  0.76376700  1
  N  1197  1  0.18885000  0.41316000  0.77848200  1
  N  1207  1  0.20767900  0.48461900  0.76392700  1
  N  1219  1  0.91356800  0.18841600  0.52843600  1
  N  1229  1  0.98499800  0.20724600  0.51386100  1
  N  1241  1  0.09318900  0.81676200  0.52839600  1
  N  1251  1  0.02176900  0.79789200  0.51381300  1
  N  1263  1  0.18492400  0.09228700  0.47882000  1
  N  1273  1  0.20387200  0.02195300  0.49401600  1
  N  1285  1  0.82104300  0.91337100  0.47874200  1
  N  1295  1  0.80225200  0.98385300  0.49385500  1
  N  1307  1  0.59354800  0.18726100  0.22875000  1
  N  1317  1  0.52269300  0.20550800  0.24376700  1
  N  1329  1  0.41237400  0.81820000  0.22878800  1
  N  1339  1  0.48319800  0.80009900  0.24384000  1
  N  1351  1  0.31858400  0.09344100  0.27735700  1
  N  1361  1  0.30044500  0.02253700  0.26236100  1
  N  1373  1  0.68770100  0.91224000  0.27757000  1
  N  1383  1  0.70587700  0.98319400  0.26262000  1
  O  707  1  0.96752700  0.48635700  0.09209800  1
  O  709  1  0.04005200  0.51765100  0.09206300  1
  O  729  1  0.48727300  0.03896900  0.91407100  1
  O  731  1  0.51849500  0.96641300  0.91415600  1
  O  751  1  0.53871400  0.48588400  0.66404900  1
  O  753  1  0.46619000  0.51716900  0.66402300  1
  O  773  1  0.01982600  0.03866600  0.84140600  1
  O  775  1  0.98733100  0.96659600  0.84138800  1
  O  795  1  0.46775400  0.98586900  0.59134600  1
  O  797  1  0.53975500  0.01851300  0.59127600  1
  O  817  1  0.98729300  0.53878900  0.41398700  1
  O  819  1  0.01862800  0.46628600  0.41408200  1
  O  839  1  0.03853200  0.98530300  0.16483900  1
  O  841  1  0.96651700  0.01790600  0.16481800  1
  O  861  1  0.51981200  0.53853100  0.34149600  1
  O  863  1  0.48719800  0.46651500  0.34147100  1
  O  883  1  0.11787900  0.79951900  0.12851500  1
  O  885  1  0.12203700  0.74422600  0.10761100  1
  O  905  1  0.88998200  0.20894900  0.13026200  1
  O  907  1  0.88657300  0.26390500  0.10921400  1
  O  927  1  0.79837900  0.88899500  0.87700700  1
  O  929  1  0.74335300  0.88505900  0.89801400  1
  O  949  1  0.20866000  0.11639700  0.87671400  1
  O  951  1  0.26362500  0.12041700  0.89774600  1
  O  971  1  0.38828000  0.79913900  0.62789300  1
  O  973  1  0.38386200  0.74382000  0.64878100  1
  O  993  1  0.61663300  0.20854100  0.62656900  1
  O  995  1  0.62048500  0.26356900  0.64758000  1
  O  1015  1  0.29839100  0.38839600  0.37707400  1
  O  1017  1  0.24329800  0.38445300  0.39805900  1
  O  1037  1  0.70865000  0.61681900  0.37677200  1
  O  1039  1  0.76371100  0.62083400  0.39777000  1
  O  1059  1  0.41800700  0.80858700  0.98962400  1
  O  1061  1  0.35039800  0.78608000  0.00161800  1
  O  1081  1  0.58893000  0.19745500  0.98912800  1
  O  1083  1  0.65659200  0.21999800  0.00106700  1
  O  1103  1  0.80839900  0.58847200  0.01686500  1
  O  1105  1  0.78593200  0.65607300  0.00485100  1
  O  1125  1  0.19708400  0.41817000  0.01665400  1
  O  1127  1  0.21935200  0.35042900  0.00470200  1
  O  1147  1  0.09001400  0.80732500  0.76763900  1
  O  1149  1  0.15725400  0.78544100  0.75519200  1
  O  1169  1  0.91594700  0.19866400  0.76795200  1
  O  1171  1  0.84866200  0.22038400  0.75549900  1
  O  1191  1  0.69657100  0.58798500  0.73863600  1
  O  1193  1  0.71862400  0.65604400  0.75037400  1
  O  1213  1  0.30953600  0.41802200  0.73872500  1
  O  1215  1  0.28762600  0.34993300  0.75048200  1
  O  1235  1  0.91860400  0.30995700  0.48903700  1
  O  1237  1  0.85050100  0.28792800  0.50074900  1
  O  1257  1  0.08858900  0.69609900  0.48862300  1
  O  1259  1  0.15662200  0.71818600  0.50036800  1
  O  1279  1  0.30689700  0.08993600  0.51805500  1
  O  1281  1  0.28504600  0.15720400  0.50561800  1
  O  1301  1  0.69854700  0.91647200  0.51774900  1
  O  1303  1  0.72024500  0.84905400  0.50539200  1
  O  1323  1  0.58943800  0.30857300  0.26825500  1
  O  1325  1  0.65716100  0.28717100  0.25607800  1
  O  1345  1  0.41632500  0.69741000  0.26851400  1
  O  1347  1  0.34864500  0.71866700  0.25626800  1
  O  1367  1  0.19809300  0.08944000  0.23750500  1
  O  1369  1  0.21947400  0.15718900  0.24967100  1
  O  1389  1  0.80814300  0.91637900  0.23770400  1
  O  1391  1  0.78681300  0.84859300  0.24985400  1
