# generated using pymatgen
data_H10C18N7O4
_symmetry_space_group_name_H-M   'P 1'
_cell_length_a   19.46500000
_cell_length_b   19.46500000
_cell_length_c   77.86010000
_cell_angle_alpha   90.00000000
_cell_angle_beta   90.00000000
_cell_angle_gamma   90.00000000
_symmetry_Int_Tables_number   1
_chemical_formula_structural   H10C18N7O4
_chemical_formula_sum   'H240 C432 N168 O96'
_cell_volume   29500.11936712
_cell_formula_units_Z   24
loop_
 _symmetry_equiv_pos_site_id
 _symmetry_equiv_pos_as_xyz
  1  'x, y, z'
loop_
 _atom_site_type_symbol
 _atom_site_label
 _atom_site_symmetry_multiplicity
 _atom_site_fract_x
 _atom_site_fract_y
 _atom_site_fract_z
 _atom_site_occupancy
  C  1  1  0.01115800  0.02698200  0.11686000  1
  C  2  1  0.01950700  0.00591300  0.09952000  1
  C  3  1  0.01374700  0.05178600  0.08550000  1
  C  4  1  0.00059500  0.12258900  0.08854800  1
  C  5  1  0.99233600  0.14524900  0.10578200  1
  C  6  1  0.99737400  0.09753900  0.11938900  1
  C  9  1  0.01448300  0.98047200  0.13108600  1
  C  10  1  0.00074600  0.90974000  0.12885800  1
  C  11  1  0.00148400  0.86212700  0.14252900  1
  C  12  1  0.01708300  0.88468000  0.15944900  1
  C  13  1  0.02992500  0.95574200  0.16224700  1
  C  14  1  0.02863500  0.00178200  0.14818100  1
  C  27  1  0.95935800  0.01255600  0.61724800  1
  C  28  1  0.97758000  0.02288900  0.59976800  1
  C  29  1  0.93041800  0.01414500  0.58612100  1
  C  30  1  0.86143800  0.99494400  0.58966800  1
  C  31  1  0.84185400  0.98406400  0.60703900  1
  C  32  1  0.89044700  0.99290600  0.62032000  1
  C  35  1  0.00730900  0.02009300  0.63106900  1
  C  36  1  0.07868900  0.01184200  0.62832800  1
  C  37  1  0.12746400  0.01545400  0.64172400  1
  C  38  1  0.10567300  0.02980100  0.65877500  1
  C  39  1  0.03426200  0.03822800  0.66200800  1
  C  40  1  0.98688400  0.03312300  0.64828300  1
  C  53  1  0.95275600  0.01584400  0.88109300  1
  C  54  1  0.92968400  0.99548000  0.89760200  1
  C  55  1  0.92393000  0.04235400  0.91132600  1
  C  56  1  0.94281600  0.11230900  0.90918300  1
  C  57  1  0.96644800  0.13398500  0.89276700  1
  C  58  1  0.97038800  0.08597300  0.87916700  1
  C  61  1  0.95933800  0.96857000  0.86714100  1
  C  62  1  0.97198000  0.89797000  0.87004100  1
  C  63  1  0.98077800  0.85010600  0.85656800  1
  C  64  1  0.97555200  0.87244300  0.83921200  1
  C  65  1  0.96300000  0.94319600  0.83585800  1
  C  66  1  0.95511000  0.98946400  0.84973100  1
  C  79  1  0.03333700  0.99613200  0.38038400  1
  C  80  1  0.01548000  0.99631600  0.39810400  1
  C  81  1  0.06255300  0.97862800  0.41121500  1
  C  82  1  0.13006400  0.95683000  0.40682800  1
  C  83  1  0.14980700  0.95760600  0.38928500  1
  C  84  1  0.10174300  0.97644600  0.37657300  1
  C  87  1  0.98586200  0.01283300  0.36693400  1
  C  88  1  0.91401000  0.00771100  0.36939500  1
  C  89  1  0.86581600  0.01964600  0.35614300  1
  C  90  1  0.88892900  0.03821200  0.33945000  1
  C  91  1  0.96076000  0.04356000  0.33647500  1
  C  92  1  0.00715100  0.03244300  0.35017900  1
  C  105  1  0.03472300  0.04156900  0.29464300  1
  C  106  1  0.03645600  0.98128400  0.28458400  1
  C  108  1  0.02927700  0.04553300  0.25833500  1
  C  109  1  0.02823000  0.10812100  0.26770600  1
  C  110  1  0.03070500  0.10503500  0.28589600  1
  C  112  1  0.02799900  0.04166500  0.24010400  1
  C  113  1  0.98661200  0.99432400  0.23087300  1
  C  114  1  0.99138000  0.99352200  0.21272000  1
  C  115  1  0.03707600  0.03728100  0.20374800  1
  C  116  1  0.07599900  0.08377200  0.21371700  1
  C  127  1  0.04139700  0.03662600  0.18589400  1
  C  128  1  0.03798600  0.03853200  0.31238000  1
  C  131  1  0.96351400  0.02445900  0.79477300  1
  C  132  1  0.02274300  0.02845700  0.78438000  1
  C  134  1  0.95566400  0.02578600  0.75851300  1
  C  135  1  0.89408700  0.02283000  0.76826500  1
  C  136  1  0.89913200  0.02192300  0.78643100  1
  C  138  1  0.95746800  0.02696600  0.74026600  1
  C  139  1  0.00369500  0.98673600  0.73039000  1
  C  140  1  0.00205600  0.99338800  0.71228100  1
  C  141  1  0.95686600  0.03970300  0.70398200  1
  C  142  1  0.91161600  0.07744700  0.71456800  1
  C  153  1  0.95551000  0.04577400  0.68616500  1
  C  154  1  0.96781400  0.02375600  0.81250500  1
  C  157  1  0.06024300  0.97249400  0.95418700  1
  C  158  1  0.09531000  0.92676100  0.96511200  1
  C  160  1  0.04331500  0.97684600  0.99013500  1
  C  161  1  0.00629900  0.02394500  0.97970100  1
  C  162  1  0.01577300  0.02120300  0.96166600  1
  C  164  1  0.03818300  0.97476000  0.00834200  1
  C  165  1  0.09584800  0.96847200  0.01941400  1
  C  166  1  0.08438100  0.96760800  0.03738900  1
  C  167  1  0.01745200  0.97232000  0.04428300  1
  C  168  1  0.96218400  0.97722600  0.03262300  1
  C  179  1  0.00726400  0.97330600  0.06186500  1
  C  180  1  0.06906300  0.97006000  0.93761000  1
  C  183  1  0.00824900  0.03714300  0.45341300  1
  C  184  1  0.04031300  0.08539000  0.46428100  1
  C  186  1  0.98964800  0.03519100  0.48943600  1
  C  187  1  0.95407200  0.98661200  0.47911600  1
  C  188  1  0.96365200  0.98872400  0.46106500  1
  C  190  1  0.98993000  0.03424000  0.50770400  1
  C  191  1  0.98781400  0.09424200  0.51807500  1
  C  192  1  0.99257600  0.08665500  0.53614600  1
  C  193  1  0.00016000  0.02133500  0.54381800  1
  C  194  1  0.00259900  0.96376000  0.53283000  1
  C  205  1  0.00429000  0.01432700  0.56145800  1
  C  206  1  0.02549100  0.03556700  0.43616200  1
  C  209  1  0.96502000  0.32143800  0.12323200  1
  C  210  1  0.96695600  0.35866500  0.13871300  1
  C  212  1  0.95662700  0.46731700  0.12400800  1
  C  213  1  0.95108200  0.43184700  0.10800300  1
  C  214  1  0.95606000  0.35922500  0.10792200  1
  C  216  1  0.95718000  0.53984000  0.12617200  1
  C  217  1  0.97033600  0.57518600  0.14191500  1
  C  218  1  0.97289600  0.64789200  0.14177200  1
  C  219  1  0.96264600  0.68592100  0.12654700  1
  C  220  1  0.94769000  0.64870200  0.11151500  1
  C  231  1  0.96932000  0.75769800  0.12582400  1
  C  232  1  0.97383000  0.24986300  0.12351300  1
  C  235  1  0.66768600  0.94900600  0.62461400  1
  C  236  1  0.62937600  0.95085600  0.63993400  1
  C  238  1  0.52137200  0.94976200  0.62462700  1
  C  239  1  0.55778000  0.94276400  0.60879300  1
  C  240  1  0.63053200  0.94317600  0.60910400  1
  C  242  1  0.44891400  0.95675400  0.62631200  1
  C  243  1  0.41294300  0.97044400  0.64193500  1
  C  244  1  0.34082100  0.98003100  0.64132500  1
  C  245  1  0.30379600  0.97613400  0.62575600  1
  C  246  1  0.34146400  0.96095600  0.61080800  1
  C  257  1  0.23254100  0.98714200  0.62472800  1
  C  258  1  0.73945000  0.95684000  0.62512500  1
  C  261  1  0.01456900  0.30922200  0.87741500  1
  C  262  1  0.02727100  0.34652000  0.86225300  1
  C  264  1  0.02381700  0.45544800  0.87711800  1
  C  265  1  0.01501300  0.41982100  0.89302000  1
  C  266  1  0.00983300  0.34716200  0.89282300  1
  C  268  1  0.02363700  0.52810700  0.87496200  1
  C  269  1  0.02588300  0.56364800  0.85890600  1
  C  270  1  0.01952100  0.63622400  0.85882600  1
  C  271  1  0.01191500  0.67418000  0.87416200  1
  C  272  1  0.01315200  0.63695400  0.88966000  1
  C  283  1  0.00143900  0.74567700  0.87444400  1
  C  284  1  0.00479300  0.23770400  0.87662400  1
  C  287  1  0.32499400  0.93900400  0.37102200  1
  C  288  1  0.36346800  0.94977600  0.35596000  1
  C  290  1  0.47090300  0.95044000  0.37152000  1
  C  291  1  0.43464100  0.93533600  0.38701900  1
  C  292  1  0.36211200  0.93017800  0.38645200  1
  C  294  1  0.54292400  0.96181800  0.37019700  1
  C  295  1  0.57881400  0.98165000  0.35498000  1
  C  296  1  0.65074800  0.99238200  0.35587600  1
  C  297  1  0.68759400  0.98401200  0.37136000  1
  C  298  1  0.64978200  0.96450600  0.38596700  1
  C  309  1  0.75902400  0.99337800  0.37259100  1
  C  310  1  0.25285400  0.94221000  0.37050000  1
  C  1249  1  0.31940400  0.33522800  0.11686000  1
  C  1250  1  0.32775300  0.31415900  0.09952000  1
  C  1251  1  0.32199300  0.36003200  0.08550000  1
  C  1252  1  0.30884100  0.43083500  0.08854800  1
  C  1253  1  0.30058200  0.45349500  0.10578200  1
  C  1254  1  0.30562000  0.40578500  0.11938900  1
  C  1257  1  0.32272900  0.28871800  0.13108600  1
  C  1258  1  0.30899200  0.21798600  0.12885800  1
  C  1259  1  0.30973000  0.17037280  0.14252900  1
  C  1260  1  0.32532900  0.19292580  0.15944900  1
  C  1261  1  0.33817100  0.26398800  0.16224700  1
  C  1262  1  0.33688100  0.31002800  0.14818100  1
  C  1275  1  0.26760400  0.32080200  0.61724800  1
  C  1276  1  0.28582600  0.33113500  0.59976800  1
  C  1277  1  0.23866400  0.32239100  0.58612100  1
  C  1278  1  0.16968380  0.30319000  0.58966800  1
  C  1279  1  0.15009980  0.29231000  0.60703900  1
  C  1280  1  0.19869280  0.30115200  0.62032000  1
  C  1283  1  0.31555500  0.32833900  0.63106900  1
  C  1284  1  0.38693500  0.32008800  0.62832800  1
  C  1285  1  0.43571000  0.32370000  0.64172400  1
  C  1286  1  0.41391900  0.33804700  0.65877500  1
  C  1287  1  0.34250800  0.34647400  0.66200800  1
  C  1288  1  0.29513000  0.34136900  0.64828300  1
  C  1301  1  0.26100200  0.32409000  0.88109300  1
  C  1302  1  0.23793000  0.30372600  0.89760200  1
  C  1303  1  0.23217600  0.35060000  0.91132600  1
  C  1304  1  0.25106200  0.42055500  0.90918300  1
  C  1305  1  0.27469400  0.44223100  0.89276700  1
  C  1306  1  0.27863400  0.39421900  0.87916700  1
  C  1309  1  0.26758400  0.27681600  0.86714100  1
  C  1310  1  0.28022600  0.20621600  0.87004100  1
  C  1311  1  0.28902400  0.15835180  0.85656800  1
  C  1312  1  0.28379800  0.18068880  0.83921200  1
  C  1313  1  0.27124600  0.25144200  0.83585800  1
  C  1314  1  0.26335600  0.29771000  0.84973100  1
  C  1327  1  0.34158300  0.30437800  0.38038400  1
  C  1328  1  0.32372600  0.30456200  0.39810400  1
  C  1329  1  0.37079900  0.28687400  0.41121500  1
  C  1330  1  0.43831000  0.26507600  0.40682800  1
  C  1331  1  0.45805300  0.26585200  0.38928500  1
  C  1332  1  0.40998900  0.28469200  0.37657300  1
  C  1335  1  0.29410800  0.32107900  0.36693400  1
  C  1336  1  0.22225600  0.31595700  0.36939500  1
  C  1337  1  0.17406180  0.32789200  0.35614300  1
  C  1338  1  0.19717480  0.34645800  0.33945000  1
  C  1339  1  0.26900600  0.35180600  0.33647500  1
  C  1340  1  0.31539700  0.34068900  0.35017900  1
  C  1353  1  0.34296900  0.34981500  0.29464300  1
  C  1354  1  0.34470200  0.28953000  0.28458400  1
  C  1356  1  0.33752300  0.35377900  0.25833500  1
  C  1357  1  0.33647600  0.41636700  0.26770600  1
  C  1358  1  0.33895100  0.41328100  0.28589600  1
  C  1360  1  0.33624500  0.34991100  0.24010400  1
  C  1361  1  0.29485800  0.30257000  0.23087300  1
  C  1362  1  0.29962600  0.30176800  0.21272000  1
  C  1363  1  0.34532200  0.34552700  0.20374800  1
  C  1364  1  0.38424500  0.39201800  0.21371700  1
  C  1375  1  0.34964300  0.34487200  0.18589400  1
  C  1376  1  0.34623200  0.34677800  0.31238000  1
  C  1379  1  0.27176000  0.33270500  0.79477300  1
  C  1380  1  0.33098900  0.33670300  0.78438000  1
  C  1382  1  0.26391000  0.33403200  0.75851300  1
  C  1383  1  0.20233300  0.33107600  0.76826500  1
  C  1384  1  0.20737800  0.33016900  0.78643100  1
  C  1386  1  0.26571400  0.33521200  0.74026600  1
  C  1387  1  0.31194100  0.29498200  0.73039000  1
  C  1388  1  0.31030200  0.30163400  0.71228100  1
  C  1389  1  0.26511200  0.34794900  0.70398200  1
  C  1390  1  0.21986200  0.38569300  0.71456800  1
  C  1401  1  0.26375600  0.35402000  0.68616500  1
  C  1402  1  0.27606000  0.33200200  0.81250500  1
  C  1405  1  0.36848900  0.28074000  0.95418700  1
  C  1406  1  0.40355600  0.23500700  0.96511200  1
  C  1408  1  0.35156100  0.28509200  0.99013500  1
  C  1409  1  0.31454500  0.33219100  0.97970100  1
  C  1410  1  0.32401900  0.32944900  0.96166600  1
  C  1412  1  0.34642900  0.28300600  0.00834200  1
  C  1413  1  0.40409400  0.27671800  0.01941400  1
  C  1414  1  0.39262700  0.27585400  0.03738900  1
  C  1415  1  0.32569800  0.28056600  0.04428300  1
  C  1416  1  0.27043000  0.28547200  0.03262300  1
  C  1427  1  0.31551000  0.28155200  0.06186500  1
  C  1428  1  0.37730900  0.27830600  0.93761000  1
  C  1431  1  0.31649500  0.34538900  0.45341300  1
  C  1432  1  0.34855900  0.39363600  0.46428100  1
  C  1434  1  0.29789400  0.34343700  0.48943600  1
  C  1435  1  0.26231800  0.29485800  0.47911600  1
  C  1436  1  0.27189800  0.29697000  0.46106500  1
  C  1438  1  0.29817600  0.34248600  0.50770400  1
  C  1439  1  0.29606000  0.40248800  0.51807500  1
  C  1440  1  0.30082200  0.39490100  0.53614600  1
  C  1441  1  0.30840600  0.32958100  0.54381800  1
  C  1442  1  0.31084500  0.27200600  0.53283000  1
  C  1453  1  0.31253600  0.32257300  0.56145800  1
  C  1454  1  0.33373700  0.34381300  0.43616200  1
  C  1457  1  0.27326600  0.62968400  0.12323200  1
  C  1458  1  0.27520200  0.66691100  0.13871300  1
  C  1460  1  0.26487300  0.77556300  0.12400800  1
  C  1461  1  0.25932800  0.74009300  0.10800300  1
  C  1462  1  0.26430600  0.66747100  0.10792200  1
  C  1464  1  0.26542600  0.84808600  0.12617200  1
  C  1465  1  0.27858200  0.88343200  0.14191500  1
  C  1466  1  0.28114200  0.95613800  0.14177200  1
  C  1467  1  0.27089200  0.99416700  0.12654700  1
  C  1468  1  0.25593600  0.95694800  0.11151500  1
  C  1479  1  0.27756600  0.06594380  0.12582400  1
  C  1480  1  0.28207600  0.55810900  0.12351300  1
  C  1483  1  0.97593200  0.25725200  0.62461400  1
  C  1484  1  0.93762200  0.25910200  0.63993400  1
  C  1486  1  0.82961800  0.25800800  0.62462700  1
  C  1487  1  0.86602600  0.25101000  0.60879300  1
  C  1488  1  0.93877800  0.25142200  0.60910400  1
  C  1490  1  0.75716000  0.26500000  0.62631200  1
  C  1491  1  0.72118900  0.27869000  0.64193500  1
  C  1492  1  0.64906700  0.28827700  0.64132500  1
  C  1493  1  0.61204200  0.28438000  0.62575600  1
  C  1494  1  0.64971000  0.26920200  0.61080800  1
  C  1505  1  0.54078700  0.29538800  0.62472800  1
  C  1506  1  0.04769580  0.26508600  0.62512500  1
  C  1509  1  0.32281500  0.61746800  0.87741500  1
  C  1510  1  0.33551700  0.65476600  0.86225300  1
  C  1512  1  0.33206300  0.76369400  0.87711800  1
  C  1513  1  0.32325900  0.72806700  0.89302000  1
  C  1514  1  0.31807900  0.65540800  0.89282300  1
  C  1516  1  0.33188300  0.83635300  0.87496200  1
  C  1517  1  0.33412900  0.87189400  0.85890600  1
  C  1518  1  0.32776700  0.94447000  0.85882600  1
  C  1519  1  0.32016100  0.98242600  0.87416200  1
  C  1520  1  0.32139800  0.94520000  0.88966000  1
  C  1531  1  0.30968500  0.05392280  0.87444400  1
  C  1532  1  0.31303900  0.54595000  0.87662400  1
  C  1535  1  0.63324000  0.24725000  0.37102200  1
  C  1536  1  0.67171400  0.25802200  0.35596000  1
  C  1538  1  0.77914900  0.25868600  0.37152000  1
  C  1539  1  0.74288700  0.24358200  0.38701900  1
  C  1540  1  0.67035800  0.23842400  0.38645200  1
  C  1542  1  0.85117000  0.27006400  0.37019700  1
  C  1543  1  0.88706000  0.28989600  0.35498000  1
  C  1544  1  0.95899400  0.30062800  0.35587600  1
  C  1545  1  0.99584000  0.29225800  0.37136000  1
  C  1546  1  0.95802800  0.27275200  0.38596700  1
  C  1557  1  0.06726980  0.30162400  0.37259100  1
  C  1558  1  0.56110000  0.25045600  0.37050000  1
  C  2497  1  0.62765000  0.64347400  0.11686000  1
  C  2498  1  0.63599900  0.62240500  0.09952000  1
  C  2499  1  0.63023900  0.66827800  0.08550000  1
  C  2500  1  0.61708700  0.73908100  0.08854800  1
  C  2501  1  0.60882800  0.76174100  0.10578200  1
  C  2502  1  0.61386600  0.71403100  0.11938900  1
  C  2505  1  0.63097500  0.59696400  0.13108600  1
  C  2506  1  0.61723800  0.52623200  0.12885800  1
  C  2507  1  0.61797600  0.47861900  0.14252900  1
  C  2508  1  0.63357500  0.50117200  0.15944900  1
  C  2509  1  0.64641700  0.57223400  0.16224700  1
  C  2510  1  0.64512700  0.61827400  0.14818100  1
  C  2523  1  0.57585000  0.62904800  0.61724800  1
  C  2524  1  0.59407200  0.63938100  0.59976800  1
  C  2525  1  0.54691000  0.63063700  0.58612100  1
  C  2526  1  0.47793000  0.61143600  0.58966800  1
  C  2527  1  0.45834600  0.60055600  0.60703900  1
  C  2528  1  0.50693900  0.60939800  0.62032000  1
  C  2531  1  0.62380100  0.63658500  0.63106900  1
  C  2532  1  0.69518100  0.62833400  0.62832800  1
  C  2533  1  0.74395600  0.63194600  0.64172400  1
  C  2534  1  0.72216500  0.64629300  0.65877500  1
  C  2535  1  0.65075400  0.65472000  0.66200800  1
  C  2536  1  0.60337600  0.64961500  0.64828300  1
  C  2549  1  0.56924800  0.63233600  0.88109300  1
  C  2550  1  0.54617600  0.61197200  0.89760200  1
  C  2551  1  0.54042200  0.65884600  0.91132600  1
  C  2552  1  0.55930800  0.72880100  0.90918300  1
  C  2553  1  0.58294000  0.75047700  0.89276700  1
  C  2554  1  0.58688000  0.70246500  0.87916700  1
  C  2557  1  0.57583000  0.58506200  0.86714100  1
  C  2558  1  0.58847200  0.51446200  0.87004100  1
  C  2559  1  0.59727000  0.46659800  0.85656800  1
  C  2560  1  0.59204400  0.48893500  0.83921200  1
  C  2561  1  0.57949200  0.55968800  0.83585800  1
  C  2562  1  0.57160200  0.60595600  0.84973100  1
  C  2575  1  0.64982900  0.61262400  0.38038400  1
  C  2576  1  0.63197200  0.61280800  0.39810400  1
  C  2577  1  0.67904500  0.59512000  0.41121500  1
  C  2578  1  0.74655600  0.57332200  0.40682800  1
  C  2579  1  0.76629900  0.57409800  0.38928500  1
  C  2580  1  0.71823500  0.59293800  0.37657300  1
  C  2583  1  0.60235400  0.62932500  0.36693400  1
  C  2584  1  0.53050200  0.62420300  0.36939500  1
  C  2585  1  0.48230800  0.63613800  0.35614300  1
  C  2586  1  0.50542100  0.65470400  0.33945000  1
  C  2587  1  0.57725200  0.66005200  0.33647500  1
  C  2588  1  0.62364300  0.64893500  0.35017900  1
  C  2601  1  0.65121500  0.65806100  0.29464300  1
  C  2602  1  0.65294800  0.59777600  0.28458400  1
  C  2604  1  0.64576900  0.66202500  0.25833500  1
  C  2605  1  0.64472200  0.72461300  0.26770600  1
  C  2606  1  0.64719700  0.72152700  0.28589600  1
  C  2608  1  0.64449100  0.65815700  0.24010400  1
  C  2609  1  0.60310400  0.61081600  0.23087300  1
  C  2610  1  0.60787200  0.61001400  0.21272000  1
  C  2611  1  0.65356800  0.65377300  0.20374800  1
  C  2612  1  0.69249100  0.70026400  0.21371700  1
  C  2623  1  0.65788900  0.65311800  0.18589400  1
  C  2624  1  0.65447800  0.65502400  0.31238000  1
  C  2627  1  0.58000600  0.64095100  0.79477300  1
  C  2628  1  0.63923500  0.64494900  0.78438000  1
  C  2630  1  0.57215600  0.64227800  0.75851300  1
  C  2631  1  0.51057900  0.63932200  0.76826500  1
  C  2632  1  0.51562400  0.63841500  0.78643100  1
  C  2634  1  0.57396000  0.64345800  0.74026600  1
  C  2635  1  0.62018700  0.60322800  0.73039000  1
  C  2636  1  0.61854800  0.60988000  0.71228100  1
  C  2637  1  0.57335800  0.65619500  0.70398200  1
  C  2638  1  0.52810800  0.69393900  0.71456800  1
  C  2649  1  0.57200200  0.66226600  0.68616500  1
  C  2650  1  0.58430600  0.64024800  0.81250500  1
  C  2653  1  0.67673500  0.58898600  0.95418700  1
  C  2654  1  0.71180200  0.54325300  0.96511200  1
  C  2656  1  0.65980700  0.59333800  0.99013500  1
  C  2657  1  0.62279100  0.64043700  0.97970100  1
  C  2658  1  0.63226500  0.63769500  0.96166600  1
  C  2660  1  0.65467500  0.59125200  0.00834200  1
  C  2661  1  0.71234000  0.58496400  0.01941400  1
  C  2662  1  0.70087300  0.58410000  0.03738900  1
  C  2663  1  0.63394400  0.58881200  0.04428300  1
  C  2664  1  0.57867600  0.59371800  0.03262300  1
  C  2675  1  0.62375600  0.58979800  0.06186500  1
  C  2676  1  0.68555500  0.58655200  0.93761000  1
  C  2679  1  0.62474100  0.65363500  0.45341300  1
  C  2680  1  0.65680500  0.70188200  0.46428100  1
  C  2682  1  0.60614000  0.65168300  0.48943600  1
  C  2683  1  0.57056400  0.60310400  0.47911600  1
  C  2684  1  0.58014400  0.60521600  0.46106500  1
  C  2686  1  0.60642200  0.65073200  0.50770400  1
  C  2687  1  0.60430600  0.71073400  0.51807500  1
  C  2688  1  0.60906800  0.70314700  0.53614600  1
  C  2689  1  0.61665200  0.63782700  0.54381800  1
  C  2690  1  0.61909100  0.58025200  0.53283000  1
  C  2701  1  0.62078200  0.63081900  0.56145800  1
  C  2702  1  0.64198300  0.65205900  0.43616200  1
  C  2705  1  0.58151200  0.93793000  0.12323200  1
  C  2706  1  0.58344800  0.97515700  0.13871300  1
  C  2708  1  0.57311900  0.08380860  0.12400800  1
  C  2709  1  0.56757400  0.04833860  0.10800300  1
  C  2710  1  0.57255200  0.97571700  0.10792200  1
  C  2712  1  0.57367200  0.15633160  0.12617200  1
  C  2713  1  0.58682800  0.19167760  0.14191500  1
  C  2714  1  0.58938800  0.26438400  0.14177200  1
  C  2715  1  0.57913800  0.30241300  0.12654700  1
  C  2716  1  0.56418200  0.26519400  0.11151500  1
  C  2727  1  0.58581200  0.37419000  0.12582400  1
  C  2728  1  0.59032200  0.86635500  0.12351300  1
  C  2731  1  0.28417800  0.56549800  0.62461400  1
  C  2732  1  0.24586800  0.56734800  0.63993400  1
  C  2734  1  0.13786360  0.56625400  0.62462700  1
  C  2735  1  0.17427160  0.55925600  0.60879300  1
  C  2736  1  0.24702400  0.55966800  0.60910400  1
  C  2738  1  0.06540560  0.57324600  0.62631200  1
  C  2739  1  0.02943460  0.58693600  0.64193500  1
  C  2740  1  0.95731300  0.59652300  0.64132500  1
  C  2741  1  0.92028800  0.59262600  0.62575600  1
  C  2742  1  0.95795600  0.57744800  0.61080800  1
  C  2753  1  0.84903300  0.60363400  0.62472800  1
  C  2754  1  0.35594200  0.57333200  0.62512500  1
  C  2757  1  0.63106100  0.92571400  0.87741500  1
  C  2758  1  0.64376300  0.96301200  0.86225300  1
  C  2760  1  0.64030900  0.07193960  0.87711800  1
  C  2761  1  0.63150500  0.03631260  0.89302000  1
  C  2762  1  0.62632500  0.96365400  0.89282300  1
  C  2764  1  0.64012900  0.14459860  0.87496200  1
  C  2765  1  0.64237500  0.18013960  0.85890600  1
  C  2766  1  0.63601300  0.25271600  0.85882600  1
  C  2767  1  0.62840700  0.29067200  0.87416200  1
  C  2768  1  0.62964400  0.25344600  0.88966000  1
  C  2779  1  0.61793100  0.36216900  0.87444400  1
  C  2780  1  0.62128500  0.85419600  0.87662400  1
  C  2783  1  0.94148600  0.55549600  0.37102200  1
  C  2784  1  0.97996000  0.56626800  0.35596000  1
  C  2786  1  0.08739460  0.56693200  0.37152000  1
  C  2787  1  0.05113260  0.55182800  0.38701900  1
  C  2788  1  0.97860400  0.54667000  0.38645200  1
  C  2790  1  0.15941560  0.57831000  0.37019700  1
  C  2791  1  0.19530560  0.59814200  0.35498000  1
  C  2792  1  0.26724000  0.60887400  0.35587600  1
  C  2793  1  0.30408600  0.60050400  0.37136000  1
  C  2794  1  0.26627400  0.58099800  0.38596700  1
  C  2805  1  0.37551600  0.60987000  0.37259100  1
  C  2806  1  0.86934600  0.55870200  0.37050000  1
  H  7  1  0.03369700  0.95654800  0.09684100  1
  H  16  1  0.04134500  0.05170800  0.15054100  1
  H  17  1  0.01003900  0.79031000  0.17114400  1
  H  18  1  0.02958500  0.85310600  0.18444400  1
  H  19  1  0.98658200  0.21634300  0.07697500  1
  H  20  1  0.00083100  0.15325000  0.06331100  1
  H  21  1  0.98622200  0.11421900  0.13143400  1
  H  22  1  0.98597000  0.89268000  0.11708700  1
  H  33  1  0.02521900  0.04129000  0.59674200  1
  H  42  1  0.93639400  0.04202900  0.65098000  1
  H  43  1  0.20144800  0.02920300  0.66988500  1
  H  44  1  0.13884500  0.04454600  0.68357000  1
  H  45  1  0.76780400  0.97342400  0.57875200  1
  H  46  1  0.82764700  0.99364600  0.56467300  1
  H  47  1  0.87574600  0.98083800  0.63248800  1
  H  48  1  0.09549300  0.99754000  0.61648400  1
  H  59  1  0.91289000  0.94624800  0.89955700  1
  H  68  1  0.94192600  0.03900400  0.84691100  1
  H  69  1  0.99158500  0.77839800  0.82794700  1
  H  70  1  0.97990800  0.84115600  0.81404300  1
  H  71  1  0.95031600  0.20552200  0.92136700  1
  H  72  1  0.92126400  0.14325200  0.93378400  1
  H  73  1  0.99093800  0.10176800  0.86781700  1
  H  74  1  0.97947400  0.88159200  0.88231100  1
  H  85  1  0.96804600  0.01257600  0.40193400  1
  H  94  1  0.05787800  0.04140800  0.34776600  1
  H  95  1  0.79387600  0.04651400  0.32818500  1
  H  96  1  0.85801800  0.06242500  0.31496200  1
  H  97  1  0.22085300  0.91961000  0.41650100  1
  H  98  1  0.16196800  0.93333200  0.43127500  1
  H  99  1  0.11667100  0.97188800  0.36411600  1
  H  100  1  0.89605400  0.98978200  0.38080100  1
  H  111  1  0.02955700  0.14987300  0.29277600  1
  H  118  1  0.96074000  0.96018000  0.20602200  1
  H  119  1  0.10948400  0.11745700  0.20810700  1
  H  120  1  0.03944600  0.93375000  0.29012900  1
  H  129  1  0.06953900  0.07263900  0.18022100  1
  H  130  1  0.06385400  0.99933200  0.31744200  1
  H  137  1  0.85505800  0.01913300  0.79358900  1
  H  144  1  0.03463200  0.96364200  0.70511100  1
  H  145  1  0.87713800  0.11138300  0.70945100  1
  H  146  1  0.07079800  0.03047000  0.78966100  1
  H  155  1  0.91733900  0.07261900  0.68097800  1
  H  156  1  0.00489100  0.05227500  0.81763800  1
  H  163  1  0.99013200  0.05567400  0.95406800  1
  H  170  1  0.12571700  0.96421800  0.04549000  1
  H  171  1  0.91258200  0.98110400  0.03683800  1
  H  172  1  0.12831900  0.89043000  0.96039800  1
  H  181  1  0.96535800  0.94942200  0.06611000  1
  H  182  1  0.07523100  0.96838700  0.92586700  1
  H  189  1  0.93949200  0.95296700  0.45354600  1
  H  196  1  0.99053200  0.12959300  0.54373700  1
  H  197  1  0.00790100  0.91509900  0.53759900  1
  H  198  1  0.07379000  0.12119900  0.45954400  1
  H  207  1  0.03364100  0.97651400  0.56599100  1
  H  208  1  0.07355700  0.02123300  0.43396900  1
  H  215  1  0.95367600  0.33401400  0.09640300  1
  H  222  1  0.98395600  0.67294600  0.15299000  1
  H  223  1  0.93986200  0.67261200  0.09998400  1
  H  224  1  0.97373800  0.33496700  0.15031300  1
  H  233  1  0.96292800  0.78165000  0.11425900  1
  H  234  1  0.98027800  0.22639600  0.13513600  1
  H  241  1  0.65636800  0.94054400  0.59767700  1
  H  248  1  0.31546700  0.99082000  0.65251500  1
  H  249  1  0.31837600  0.95735400  0.59904400  1
  H  250  1  0.65252000  0.95570800  0.65166100  1
  H  259  1  0.20898000  0.98330400  0.61304100  1
  H  260  1  0.76300000  0.96226600  0.63677700  1
  H  267  1  0.00160700  0.32200300  0.90418000  1
  H  274  1  0.01948100  0.66127000  0.84727000  1
  H  275  1  0.00774300  0.66068400  0.90130000  1
  H  276  1  0.03089600  0.32282500  0.85056500  1
  H  285  1  0.99586400  0.76931400  0.88607500  1
  H  286  1  0.00868700  0.21412200  0.86494200  1
  H  293  1  0.33629100  0.92158800  0.39769500  1
  H  300  1  0.67619800  0.00668900  0.34494600  1
  H  301  1  0.67275600  0.95733400  0.39764300  1
  H  302  1  0.34030400  0.95716000  0.34431600  1
  H  311  1  0.78227000  0.98560000  0.38419600  1
  H  312  1  0.22914400  0.95237200  0.35906800  1
  H  1255  1  0.34194300  0.26479400  0.09684100  1
  H  1264  1  0.34959100  0.35995400  0.15054100  1
  H  1265  1  0.31828500  0.09855580  0.17114400  1
  H  1266  1  0.33783100  0.16135180  0.18444400  1
  H  1267  1  0.29482800  0.52458900  0.07697500  1
  H  1268  1  0.30907700  0.46149600  0.06331100  1
  H  1269  1  0.29446800  0.42246500  0.13143400  1
  H  1270  1  0.29421600  0.20092600  0.11708700  1
  H  1281  1  0.33339867  0.34953600  0.59674200  1
  H  1290  1  0.24464000  0.35027500  0.65098000  1
  H  1291  1  0.50969400  0.33744900  0.66988500  1
  H  1292  1  0.44709100  0.35279200  0.68357000  1
  H  1293  1  0.07604980  0.28167000  0.57875200  1
  H  1294  1  0.13589280  0.30189200  0.56467300  1
  H  1295  1  0.18399180  0.28908400  0.63248800  1
  H  1296  1  0.40373900  0.30578600  0.61648400  1
  H  1307  1  0.22113600  0.25449400  0.89955700  1
  H  1316  1  0.25017200  0.34725000  0.84691100  1
  H  1317  1  0.29983100  0.08664380  0.82794700  1
  H  1318  1  0.28815400  0.14940180  0.81404300  1
  H  1319  1  0.25856200  0.51376800  0.92136700  1
  H  1320  1  0.22951000  0.45149800  0.93378400  1
  H  1321  1  0.29918400  0.41001400  0.86781700  1
  H  1322  1  0.28772000  0.18983780  0.88231100  1
  H  1333  1  0.27629200  0.32082200  0.40193400  1
  H  1342  1  0.36612400  0.34965400  0.34776600  1
  H  1343  1  0.10212180  0.35476000  0.32818500  1
  H  1344  1  0.16626380  0.37067100  0.31496200  1
  H  1345  1  0.52909900  0.22785600  0.41650100  1
  H  1346  1  0.47021400  0.24157800  0.43127500  1
  H  1347  1  0.42491700  0.28013400  0.36411600  1
  H  1348  1  0.20430000  0.29802800  0.38080100  1
  H  1359  1  0.33780300  0.45811900  0.29277600  1
  H  1366  1  0.26898600  0.26842600  0.20602200  1
  H  1367  1  0.41773000  0.42570300  0.20810700  1
  H  1368  1  0.34769200  0.24199600  0.29012900  1
  H  1377  1  0.37778500  0.38088500  0.18022100  1
  H  1378  1  0.37210000  0.30757800  0.31744200  1
  H  1385  1  0.16330380  0.32737900  0.79358900  1
  H  1392  1  0.34287800  0.27188800  0.70511100  1
  H  1393  1  0.18538380  0.41962900  0.70945100  1
  H  1394  1  0.37904400  0.33871600  0.78966100  1
  H  1403  1  0.22558500  0.38086500  0.68097800  1
  H  1404  1  0.31313700  0.36052100  0.81763800  1
  H  1411  1  0.29837800  0.36392000  0.95406800  1
  H  1418  1  0.43396300  0.27246400  0.04549000  1
  H  1419  1  0.22082800  0.28935000  0.03683800  1
  H  1420  1  0.43656500  0.19867580  0.96039800  1
  H  1429  1  0.27360400  0.25766800  0.06611000  1
  H  1430  1  0.38347700  0.27663300  0.92586700  1
  H  1437  1  0.24773800  0.26121300  0.45354600  1
  H  1444  1  0.29877800  0.43783900  0.54373700  1
  H  1445  1  0.31614700  0.22334500  0.53759900  1
  H  1446  1  0.38203600  0.42944500  0.45954400  1
  H  1455  1  0.34188700  0.28476000  0.56599100  1
  H  1456  1  0.38180300  0.32947900  0.43396900  1
  H  1463  1  0.26192200  0.64226000  0.09640300  1
  H  1470  1  0.29220200  0.98119200  0.15299000  1
  H  1471  1  0.24810800  0.98085800  0.09998400  1
  H  1472  1  0.28198400  0.64321300  0.15031300  1
  H  1481  1  0.27117400  0.08989580  0.11425900  1
  H  1482  1  0.28852400  0.53464200  0.13513600  1
  H  1489  1  0.96461400  0.24879000  0.59767700  1
  H  1496  1  0.62371300  0.29906600  0.65251500  1
  H  1497  1  0.62662200  0.26560000  0.59904400  1
  H  1498  1  0.96076600  0.26395400  0.65166100  1
  H  1507  1  0.51722600  0.29155000  0.61304100  1
  H  1508  1  0.07124580  0.27051200  0.63677700  1
  H  1515  1  0.30985300  0.63024900  0.90418000  1
  H  1522  1  0.32772700  0.96951600  0.84727000  1
  H  1523  1  0.31598900  0.96893000  0.90130000  1
  H  1524  1  0.33914200  0.63107100  0.85056500  1
  H  1533  1  0.30411000  0.07755980  0.88607500  1
  H  1534  1  0.31693300  0.52236800  0.86494200  1
  H  1541  1  0.64453700  0.22983400  0.39769500  1
  H  1548  1  0.98444400  0.31493500  0.34494600  1
  H  1549  1  0.98100200  0.26558000  0.39764300  1
  H  1550  1  0.64855000  0.26540600  0.34431600  1
  H  1559  1  0.09051580  0.29384600  0.38419600  1
  H  1560  1  0.53739000  0.26061800  0.35906800  1
  H  2503  1  0.65018900  0.57304000  0.09684100  1
  H  2512  1  0.65783700  0.66820000  0.15054100  1
  H  2513  1  0.62653100  0.40680200  0.17114400  1
  H  2514  1  0.64607700  0.46959800  0.18444400  1
  H  2515  1  0.60307400  0.83283500  0.07697500  1
  H  2516  1  0.61732300  0.76974200  0.06331100  1
  H  2517  1  0.60271400  0.73071100  0.13143400  1
  H  2518  1  0.60246200  0.50917200  0.11708700  1
  H  2529  1  0.64171100  0.65778200  0.59674200  1
  H  2538  1  0.55288600  0.65852100  0.65098000  1
  H  2539  1  0.81794000  0.64569500  0.66988500  1
  H  2540  1  0.75533700  0.66103800  0.68357000  1
  H  2541  1  0.38429600  0.58991600  0.57875200  1
  H  2542  1  0.44413900  0.61013800  0.56467300  1
  H  2543  1  0.49223800  0.59733000  0.63248800  1
  H  2544  1  0.71198500  0.61403200  0.61648400  1
  H  2555  1  0.52938200  0.56274000  0.89955700  1
  H  2564  1  0.55841800  0.65549600  0.84691100  1
  H  2565  1  0.60807700  0.39489000  0.82794700  1
  H  2566  1  0.59640000  0.45764800  0.81404300  1
  H  2567  1  0.56680800  0.82201400  0.92136700  1
  H  2568  1  0.53775600  0.75974400  0.93378400  1
  H  2569  1  0.60743000  0.71826000  0.86781700  1
  H  2570  1  0.59596600  0.49808400  0.88231100  1
  H  2581  1  0.58453800  0.62906800  0.40193400  1
  H  2590  1  0.67437000  0.65790000  0.34776600  1
  H  2591  1  0.41036800  0.66300600  0.32818500  1
  H  2592  1  0.47451000  0.67891700  0.31496200  1
  H  2593  1  0.83734500  0.53610200  0.41650100  1
  H  2594  1  0.77846000  0.54982400  0.43127500  1
  H  2595  1  0.73316300  0.58838000  0.36411600  1
  H  2596  1  0.51254600  0.60627400  0.38080100  1
  H  2607  1  0.64604900  0.76636500  0.29277600  1
  H  2614  1  0.57723200  0.57667200  0.20602200  1
  H  2615  1  0.72597600  0.73394900  0.20810700  1
  H  2616  1  0.65593800  0.55024200  0.29012900  1
  H  2625  1  0.68603100  0.68913100  0.18022100  1
  H  2626  1  0.68034600  0.61582400  0.31744200  1
  H  2633  1  0.47155000  0.63562500  0.79358900  1
  H  2640  1  0.65112400  0.58013400  0.70511100  1
  H  2641  1  0.49363000  0.72787500  0.70945100  1
  H  2642  1  0.68729000  0.64696200  0.78966100  1
  H  2651  1  0.53383100  0.68911100  0.68097800  1
  H  2652  1  0.62138300  0.66876700  0.81763800  1
  H  2659  1  0.60662400  0.67216600  0.95406800  1
  H  2666  1  0.74220900  0.58071000  0.04549000  1
  H  2667  1  0.52907400  0.59759600  0.03683800  1
  H  2668  1  0.74481100  0.50692200  0.96039800  1
  H  2677  1  0.58185000  0.56591400  0.06611000  1
  H  2678  1  0.69172300  0.58487900  0.92586700  1
  H  2685  1  0.55598400  0.56945900  0.45354600  1
  H  2692  1  0.60702400  0.74608500  0.54373700  1
  H  2693  1  0.62439300  0.53159100  0.53759900  1
  H  2694  1  0.69028200  0.73769100  0.45954400  1
  H  2703  1  0.65013300  0.59300600  0.56599100  1
  H  2704  1  0.69004900  0.63772500  0.43396900  1
  H  2711  1  0.57016800  0.95050600  0.09640300  1
  H  2718  1  0.60044800  0.28943800  0.15299000  1
  H  2719  1  0.55635400  0.28910400  0.09998400  1
  H  2720  1  0.59023000  0.95145900  0.15031300  1
  H  2729  1  0.57942000  0.39814200  0.11425900  1
  H  2730  1  0.59677000  0.84288800  0.13513600  1
  H  2737  1  0.27286000  0.55703600  0.59767700  1
  H  2744  1  0.93195900  0.60731200  0.65251500  1
  H  2745  1  0.93486800  0.57384600  0.59904400  1
  H  2746  1  0.26901200  0.57220000  0.65166100  1
  H  2755  1  0.82547200  0.59979600  0.61304100  1
  H  2756  1  0.37949200  0.57875800  0.63677700  1
  H  2763  1  0.61809900  0.93849500  0.90418000  1
  H  2770  1  0.63597300  0.27776200  0.84727000  1
  H  2771  1  0.62423500  0.27717600  0.90130000  1
  H  2772  1  0.64738800  0.93931700  0.85056500  1
  H  2781  1  0.61235600  0.38580600  0.88607500  1
  H  2782  1  0.62517900  0.83061400  0.86494200  1
  H  2789  1  0.95278300  0.53808000  0.39769500  1
  H  2796  1  0.29269000  0.62318100  0.34494600  1
  H  2797  1  0.28924800  0.57382600  0.39764300  1
  H  2798  1  0.95679600  0.57365200  0.34431600  1
  H  2807  1  0.39876200  0.60209200  0.38419600  1
  H  2808  1  0.84563600  0.56886400  0.35906800  1
  N  8  1  0.99581800  0.16781900  0.07518500  1
  N  15  1  0.01857200  0.83903400  0.17279100  1
  N  23  1  0.03986100  0.97731400  0.17833000  1
  N  24  1  0.98738800  0.79481200  0.13978300  1
  N  25  1  0.98048800  0.21278100  0.10892100  1
  N  26  1  0.02413100  0.02997700  0.06946600  1
  N  34  1  0.81506800  0.98701800  0.57663800  1
  N  41  1  0.15242200  0.03424600  0.67184000  1
  N  49  1  0.01386000  0.04694000  0.67821300  1
  N  50  1  0.19496600  0.00300000  0.63877000  1
  N  51  1  0.77565900  0.96776200  0.61057200  1
  N  52  1  0.94872400  0.02754300  0.56996700  1
  N  60  1  0.93770800  0.15745700  0.92254300  1
  N  67  1  0.98296400  0.82692600  0.82598400  1
  N  75  1  0.95637400  0.96471200  0.81964200  1
  N  76  1  0.99403600  0.78288800  0.85988100  1
  N  77  1  0.98357600  0.20094500  0.89038700  1
  N  78  1  0.90077600  0.01995300  0.92532500  1
  N  86  1  0.17502900  0.93600800  0.41925500  1
  N  93  1  0.84319800  0.04958600  0.32644200  1
  N  101  1  0.98352000  0.05817200  0.32068300  1
  N  102  1  0.79754000  0.01064100  0.35880800  1
  N  103  1  0.21611100  0.94415200  0.38521100  1
  N  104  1  0.04145400  0.97863400  0.42863800  1
  N  107  1  0.03358900  0.98554800  0.26723600  1
  N  117  1  0.07041400  0.08389000  0.23107700  1
  N  121  1  0.94018000  0.95087000  0.23969800  1
  N  122  1  0.02228600  0.17149200  0.25892700  1
  N  133  1  0.01660100  0.02870900  0.76704900  1
  N  143  1  0.91386600  0.07008500  0.73187800  1
  N  147  1  0.04841500  0.93953200  0.73853600  1
  N  148  1  0.82978200  0.01819200  0.75986700  1
  N  159  1  0.08564600  0.93076800  0.98232000  1
  N  169  1  0.97450400  0.97853900  0.01549500  1
  N  173  1  0.16312900  0.96621600  0.01254300  1
  N  174  1  0.96315000  0.07394900  0.98730600  1
  N  185  1  0.03075800  0.08191700  0.48148900  1
  N  195  1  0.99765800  0.97235000  0.51560600  1
  N  199  1  0.97896800  0.15955800  0.51040400  1
  N  200  1  0.90977900  0.93795600  0.48684800  1
  N  211  1  0.96377400  0.42785500  0.13830300  1
  N  221  1  0.94640200  0.57942400  0.11203400  1
  N  225  1  0.98372000  0.53987600  0.15748000  1
  N  226  1  0.94301600  0.46710700  0.09220900  1
  N  237  1  0.56008800  0.95258600  0.63915900  1
  N  247  1  0.41021900  0.95282800  0.61179600  1
  N  251  1  0.44737200  0.97674800  0.65789400  1
  N  252  1  0.52354400  0.93785800  0.59277600  1
  N  263  1  0.02988500  0.41580800  0.86281000  1
  N  273  1  0.01782700  0.56775200  0.88927600  1
  N  277  1  0.03218100  0.52840000  0.84306100  1
  N  278  1  0.00938500  0.45502800  0.90888500  1
  N  289  1  0.43246800  0.95590600  0.35698500  1
  N  299  1  0.58133600  0.95475000  0.38468200  1
  N  303  1  0.54449000  0.99205800  0.33914400  1
  N  304  1  0.46857500  0.92772200  0.40301100  1
  N  1256  1  0.30406400  0.47606500  0.07518500  1
  N  1263  1  0.32681800  0.14727980  0.17279100  1
  N  1271  1  0.34810700  0.28556000  0.17833000  1
  N  1272  1  0.29563400  0.10305780  0.13978300  1
  N  1273  1  0.28873400  0.52102700  0.10892100  1
  N  1274  1  0.33237700  0.33822300  0.06946600  1
  N  1282  1  0.12331380  0.29526400  0.57663800  1
  N  1289  1  0.46066800  0.34249200  0.67184000  1
  N  1297  1  0.32210600  0.35518600  0.67821300  1
  N  1298  1  0.50321200  0.31124600  0.63877000  1
  N  1299  1  0.08390480  0.27600800  0.61057200  1
  N  1300  1  0.25697000  0.33578900  0.56996700  1
  N  1308  1  0.24595400  0.46570300  0.92254300  1
  N  1315  1  0.29121000  0.13517180  0.82598400  1
  N  1323  1  0.26462000  0.27295800  0.81964200  1
  N  1324  1  0.30228200  0.09113380  0.85988100  1
  N  1325  1  0.29182200  0.50919100  0.89038700  1
  N  1326  1  0.20902200  0.32819900  0.92532500  1
  N  1334  1  0.48327500  0.24425400  0.41925500  1
  N  1341  1  0.15144380  0.35783200  0.32644200  1
  N  1349  1  0.29176600  0.36641800  0.32068300  1
  N  1350  1  0.10578580  0.31888700  0.35880800  1
  N  1351  1  0.52435700  0.25239800  0.38521100  1
  N  1352  1  0.34970000  0.28688000  0.42863800  1
  N  1355  1  0.34183500  0.29379400  0.26723600  1
  N  1365  1  0.37866000  0.39213600  0.23107700  1
  N  1369  1  0.24842600  0.25911600  0.23969800  1
  N  1370  1  0.33053200  0.47973800  0.25892700  1
  N  1381  1  0.32484700  0.33695500  0.76704900  1
  N  1391  1  0.22211200  0.37833100  0.73187800  1
  N  1395  1  0.35666100  0.24777800  0.73853600  1
  N  1396  1  0.13802780  0.32643800  0.75986700  1
  N  1407  1  0.39389200  0.23901400  0.98232000  1
  N  1417  1  0.28275000  0.28678500  0.01549500  1
  N  1421  1  0.47137500  0.27446200  0.01254300  1
  N  1422  1  0.27139600  0.38219500  0.98730600  1
  N  1433  1  0.33900400  0.39016300  0.48148900  1
  N  1443  1  0.30590400  0.28059600  0.51560600  1
  N  1447  1  0.28721400  0.46780400  0.51040400  1
  N  1448  1  0.21802500  0.24620200  0.48684800  1
  N  1459  1  0.27202000  0.73610100  0.13830300  1
  N  1469  1  0.25464800  0.88767000  0.11203400  1
  N  1473  1  0.29196600  0.84812200  0.15748000  1
  N  1474  1  0.25126200  0.77535300  0.09220900  1
  N  1485  1  0.86833400  0.26083200  0.63915900  1
  N  1495  1  0.71846500  0.26107400  0.61179600  1
  N  1499  1  0.75561800  0.28499400  0.65789400  1
  N  1500  1  0.83179000  0.24610400  0.59277600  1
  N  1511  1  0.33813100  0.72405400  0.86281000  1
  N  1521  1  0.32607300  0.87599800  0.88927600  1
  N  1525  1  0.34042700  0.83664600  0.84306100  1
  N  1526  1  0.31763100  0.76327400  0.90888500  1
  N  1537  1  0.74071400  0.26415200  0.35698500  1
  N  1547  1  0.88958200  0.26299600  0.38468200  1
  N  1551  1  0.85273600  0.30030400  0.33914400  1
  N  1552  1  0.77682100  0.23596800  0.40301100  1
  N  2504  1  0.61231000  0.78431100  0.07518500  1
  N  2511  1  0.63506400  0.45552600  0.17279100  1
  N  2519  1  0.65635300  0.59380600  0.17833000  1
  N  2520  1  0.60388000  0.41130400  0.13978300  1
  N  2521  1  0.59698000  0.82927300  0.10892100  1
  N  2522  1  0.64062300  0.64646900  0.06946600  1
  N  2530  1  0.43156000  0.60351000  0.57663800  1
  N  2537  1  0.76891400  0.65073800  0.67184000  1
  N  2545  1  0.63035200  0.66343200  0.67821300  1
  N  2546  1  0.81145800  0.61949200  0.63877000  1
  N  2547  1  0.39215100  0.58425400  0.61057200  1
  N  2548  1  0.56521600  0.64403500  0.56996700  1
  N  2556  1  0.55420000  0.77394900  0.92254300  1
  N  2563  1  0.59945600  0.44341800  0.82598400  1
  N  2571  1  0.57286600  0.58120400  0.81964200  1
  N  2572  1  0.61052800  0.39938000  0.85988100  1
  N  2573  1  0.60006800  0.81743700  0.89038700  1
  N  2574  1  0.51726800  0.63644500  0.92532500  1
  N  2582  1  0.79152100  0.55250000  0.41925500  1
  N  2589  1  0.45969000  0.66607800  0.32644200  1
  N  2597  1  0.60001200  0.67466400  0.32068300  1
  N  2598  1  0.41403200  0.62713300  0.35880800  1
  N  2599  1  0.83260300  0.56064400  0.38521100  1
  N  2600  1  0.65794600  0.59512600  0.42863800  1
  N  2603  1  0.65008100  0.60204000  0.26723600  1
  N  2613  1  0.68690600  0.70038200  0.23107700  1
  N  2617  1  0.55667200  0.56736200  0.23969800  1
  N  2618  1  0.63877800  0.78798400  0.25892700  1
  N  2629  1  0.63309300  0.64520100  0.76704900  1
  N  2639  1  0.53035800  0.68657700  0.73187800  1
  N  2643  1  0.66490700  0.55602400  0.73853600  1
  N  2644  1  0.44627400  0.63468400  0.75986700  1
  N  2655  1  0.70213800  0.54726000  0.98232000  1
  N  2665  1  0.59099600  0.59503100  0.01549500  1
  N  2669  1  0.77962100  0.58270800  0.01254300  1
  N  2670  1  0.57964200  0.69044100  0.98730600  1
  N  2681  1  0.64725000  0.69840900  0.48148900  1
  N  2691  1  0.61415000  0.58884200  0.51560600  1
  N  2695  1  0.59546000  0.77605000  0.51040400  1
  N  2696  1  0.52627100  0.55444800  0.48684800  1
  N  2707  1  0.58026600  0.04434660  0.13830300  1
  N  2717  1  0.56289400  0.19591560  0.11203400  1
  N  2721  1  0.60021200  0.15636760  0.15748000  1
  N  2722  1  0.55950800  0.08359860  0.09220900  1
  N  2733  1  0.17657960  0.56907800  0.63915900  1
  N  2743  1  0.02671060  0.56932000  0.61179600  1
  N  2747  1  0.06386360  0.59324000  0.65789400  1
  N  2748  1  0.14003560  0.55435000  0.59277600  1
  N  2759  1  0.64637700  0.03229960  0.86281000  1
  N  2769  1  0.63431900  0.18424360  0.88927600  1
  N  2773  1  0.64867300  0.14489160  0.84306100  1
  N  2774  1  0.62587700  0.07151960  0.90888500  1
  N  2785  1  0.04895960  0.57239800  0.35698500  1
  N  2795  1  0.19782760  0.57124200  0.38468200  1
  N  2799  1  0.16098160  0.60855000  0.33914400  1
  N  2800  1  0.08506660  0.54421400  0.40301100  1
  O  123  1  0.95332600  0.88863600  0.23693900  1
  O  124  1  0.07268800  0.20990100  0.26199900  1
  O  125  1  0.96814800  0.20253700  0.26305800  1
  O  126  1  0.87910200  0.96247200  0.23534800  1
  O  149  1  0.11021900  0.95318200  0.73535900  1
  O  150  1  0.79158000  0.06783500  0.76376000  1
  O  151  1  0.79934800  0.96323600  0.76358500  1
  O  152  1  0.03639800  0.87889000  0.73388900  1
  O  175  1  0.19342500  0.91167500  0.01668700  1
  O  176  1  0.90221400  0.06784900  0.98219500  1
  O  177  1  0.98343200  0.13380500  0.98401100  1
  O  178  1  0.19848900  0.01641400  0.01752700  1
  O  201  1  0.02858500  0.19863900  0.51374300  1
  O  202  1  0.92897800  0.87754400  0.48378300  1
  O  203  1  0.84906800  0.94491200  0.48164900  1
  O  204  1  0.92448000  0.18779400  0.51541200  1
  O  227  1  0.94079600  0.55466200  0.16895900  1
  O  228  1  0.88814800  0.45071200  0.08474600  1
  O  229  1  0.99263400  0.45684100  0.08219600  1
  O  230  1  0.04322200  0.55164200  0.16303900  1
  O  253  1  0.42695100  0.93302800  0.66862400  1
  O  254  1  0.53708200  0.88248200  0.58519300  1
  O  255  1  0.53782700  0.98728500  0.58301200  1
  O  256  1  0.44072900  0.03579200  0.66422900  1
  O  279  1  0.08539500  0.54588800  0.83502900  1
  O  280  1  0.05644900  0.43839600  0.91912800  1
  O  281  1  0.95225200  0.44493800  0.91598300  1
  O  282  1  0.98074000  0.53746500  0.83356200  1
  O  305  1  0.56606800  0.95225000  0.32763500  1
  O  306  1  0.45908100  0.86916600  0.40939300  1
  O  307  1  0.45021400  0.97254600  0.41369600  1
  O  308  1  0.54992600  0.05301400  0.33397900  1
  O  1371  1  0.26157200  0.19688180  0.23693900  1
  O  1372  1  0.38093400  0.51814700  0.26199900  1
  O  1373  1  0.27639400  0.51078300  0.26305800  1
  O  1374  1  0.18734780  0.27071800  0.23534800  1
  O  1397  1  0.41846500  0.26142800  0.73535900  1
  O  1398  1  0.09982580  0.37608100  0.76376000  1
  O  1399  1  0.10759380  0.27148200  0.76358500  1
  O  1400  1  0.34464400  0.18713580  0.73388900  1
  O  1423  1  0.50167100  0.21992100  0.01668700  1
  O  1424  1  0.21046000  0.37609500  0.98219500  1
  O  1425  1  0.29167800  0.44205100  0.98401100  1
  O  1426  1  0.50673500  0.32466000  0.01752700  1
  O  1449  1  0.33683100  0.50688500  0.51374300  1
  O  1450  1  0.23722400  0.18578980  0.48378300  1
  O  1451  1  0.15731380  0.25315800  0.48164900  1
  O  1452  1  0.23272600  0.49604000  0.51541200  1
  O  1475  1  0.24904200  0.86290800  0.16895900  1
  O  1476  1  0.19639380  0.75895800  0.08474600  1
  O  1477  1  0.30088000  0.76508700  0.08219600  1
  O  1478  1  0.35146800  0.85988800  0.16303900  1
  O  1501  1  0.73519700  0.24127400  0.66862400  1
  O  1502  1  0.84532800  0.19072780  0.58519300  1
  O  1503  1  0.84607300  0.29553100  0.58301200  1
  O  1504  1  0.74897500  0.34403800  0.66422900  1
  O  1527  1  0.39364100  0.85413400  0.83502900  1
  O  1528  1  0.36469500  0.74664200  0.91912800  1
  O  1529  1  0.26049800  0.75318400  0.91598300  1
  O  1530  1  0.28898600  0.84571100  0.83356200  1
  O  1553  1  0.87431400  0.26049600  0.32763500  1
  O  1554  1  0.76732700  0.17741180  0.40939300  1
  O  1555  1  0.75846000  0.28079200  0.41369600  1
  O  1556  1  0.85817200  0.36126000  0.33397900  1
  O  2619  1  0.56981800  0.50512800  0.23693900  1
  O  2620  1  0.68918000  0.82639300  0.26199900  1
  O  2621  1  0.58464000  0.81902900  0.26305800  1
  O  2622  1  0.49559400  0.57896400  0.23534800  1
  O  2645  1  0.72671100  0.56967400  0.73535900  1
  O  2646  1  0.40807200  0.68432700  0.76376000  1
  O  2647  1  0.41584000  0.57972800  0.76358500  1
  O  2648  1  0.65289000  0.49538200  0.73388900  1
  O  2671  1  0.80991700  0.52816700  0.01668700  1
  O  2672  1  0.51870600  0.68434100  0.98219500  1
  O  2673  1  0.59992400  0.75029700  0.98401100  1
  O  2674  1  0.81498100  0.63290600  0.01752700  1
  O  2697  1  0.64507700  0.81513100  0.51374300  1
  O  2698  1  0.54547000  0.49403600  0.48378300  1
  O  2699  1  0.46556000  0.56140400  0.48164900  1
  O  2700  1  0.54097200  0.80428600  0.51541200  1
  O  2723  1  0.55728800  0.17115360  0.16895900  1
  O  2724  1  0.50464000  0.06720360  0.08474600  1
  O  2725  1  0.60912600  0.07333260  0.08219600  1
  O  2726  1  0.65971400  0.16813360  0.16303900  1
  O  2749  1  0.04344260  0.54952000  0.66862400  1
  O  2750  1  0.15357360  0.49897400  0.58519300  1
  O  2751  1  0.15431860  0.60377700  0.58301200  1
  O  2752  1  0.05722060  0.65228400  0.66422900  1
  O  2775  1  0.70188700  0.16237960  0.83502900  1
  O  2776  1  0.67294100  0.05488760  0.91912800  1
  O  2777  1  0.56874400  0.06142960  0.91598300  1
  O  2778  1  0.59723200  0.15395660  0.83356200  1
  O  2801  1  0.18255960  0.56874200  0.32763500  1
  O  2802  1  0.07557260  0.48565800  0.40939300  1
  O  2803  1  0.06670560  0.58903800  0.41369600  1
  O  2804  1  0.16641760  0.66950600  0.33397900  1
