# generated using pymatgen
data_H28C47N2
_symmetry_space_group_name_H-M   'P 1'
_cell_length_a   56.15560000
_cell_length_b   56.16280000
_cell_length_c   56.14940000
_cell_angle_alpha   90.00040000
_cell_angle_beta   89.99500000
_cell_angle_gamma   89.99790000
_symmetry_Int_Tables_number   1
_chemical_formula_structural   H28C47N2
_chemical_formula_sum   'H336 C564 N24'
_cell_volume   177087.10622283
_cell_formula_units_Z   12
loop_
 _symmetry_equiv_pos_site_id
 _symmetry_equiv_pos_as_xyz
  1  'x, y, z'
loop_
 _atom_site_type_symbol
 _atom_site_label
 _atom_site_symmetry_multiplicity
 _atom_site_fract_x
 _atom_site_fract_y
 _atom_site_fract_z
 _atom_site_occupancy
  H  19  1  0.94850000  0.90936800  0.66541200  1
  H  20  1  0.97259100  0.93668400  0.64374200  1
  H  21  1  0.93011700  0.96411100  0.71380600  1
  H  22  1  0.00171400  0.03875600  0.58934600  1
  H  23  1  0.99608100  0.96386500  0.58487200  1
  H  24  1  0.99436300  0.96649200  0.54253300  1
  H  25  1  0.00061500  0.04132800  0.54691400  1
  H  26  1  0.02798100  0.05695600  0.65627200  1
  H  27  1  0.07211900  0.01054000  0.71436600  1
  H  28  1  0.04403500  0.99122900  0.68918500  1
  H  29  1  0.05643700  0.07640700  0.68144100  1
  H  36  1  0.96984500  0.97552200  0.61889900  1
  H  37  1  0.02798000  0.02272500  0.62282200  1
  H  38  1  0.99877200  0.99382200  0.68532700  1
  H  39  1  0.95398200  0.99138500  0.69191000  1
  H  43  1  0.09766400  0.04643800  0.72021100  1
  H  44  1  0.98378500  0.01804200  0.50992900  1
  H  45  1  0.92332000  0.90037900  0.69920600  1
  H  64  1  0.94998200  0.08848700  0.35124500  1
  H  65  1  0.97397000  0.06084900  0.37261100  1
  H  66  1  0.92961800  0.03383400  0.30357100  1
  H  67  1  0.00326300  0.95904900  0.42718600  1
  H  68  1  0.00117000  0.03416800  0.43035000  1
  H  69  1  0.00440700  0.03251600  0.47264600  1
  H  70  1  0.00653600  0.95737100  0.46952400  1
  H  71  1  0.02800700  0.93980500  0.35938200  1
  H  72  1  0.07131900  0.98598900  0.30049100  1
  H  73  1  0.04329800  0.00533200  0.32572100  1
  H  74  1  0.05638900  0.92031600  0.33413900  1
  H  81  1  0.97168900  0.02245200  0.39786900  1
  H  82  1  0.02886100  0.97426000  0.39245700  1
  H  83  1  0.99810500  0.00298700  0.33066100  1
  H  84  1  0.95336700  0.00623300  0.32518100  1
  H  88  1  0.09731300  0.95026000  0.29514900  1
  H  89  1  0.01955300  0.98125900  0.50617300  1
  H  90  1  0.92399100  0.09768800  0.31809100  1
  H  109  1  0.90894500  0.65468600  0.95773800  1
  H  110  1  0.93613000  0.63338600  0.98237500  1
  H  111  1  0.96401400  0.70227700  0.93830700  1
  H  112  1  0.03849600  0.57949100  0.01195600  1
  H  113  1  0.96356500  0.57473100  0.00711200  1
  H  114  1  0.96630700  0.53239900  0.00574600  1
  H  115  1  0.04119400  0.53706900  0.01119900  1
  H  116  1  0.05666300  0.64770800  0.03712800  1
  H  117  1  0.00939600  0.70622700  0.07968400  1
  H  118  1  0.99038900  0.67953600  0.05301100  1
  H  119  1  0.07589600  0.67437400  0.06426500  1
  H  126  1  0.97505100  0.60829900  0.98011400  1
  H  127  1  0.02248600  0.61338600  0.03802000  1
  H  128  1  0.99333400  0.67525200  0.00773000  1
  H  129  1  0.99112600  0.68081400  0.96276300  1
  H  133  1  0.04424200  0.71892700  0.10060900  1
  H  134  1  0.01800400  0.49994400  0.99490900  1
  H  135  1  0.90110700  0.68654100  0.92925400  1
  H  154  1  0.08895300  0.34216000  0.95938100  1
  H  155  1  0.06138500  0.36311000  0.98388200  1
  H  156  1  0.03408900  0.29522000  0.93794700  1
  H  157  1  0.95928100  0.41704300  0.01387800  1
  H  158  1  0.03440400  0.42049100  0.01217300  1
  H  159  1  0.03258700  0.46275300  0.01566000  1
  H  160  1  0.95743600  0.45935600  0.01739100  1
  H  161  1  0.94025600  0.34812000  0.03766200  1
  H  162  1  0.98730900  0.28846300  0.07883800  1
  H  163  1  0.00629600  0.31516100  0.05215400  1
  H  164  1  0.92105800  0.32143600  0.06482000  1
  H  171  1  0.02284200  0.38852800  0.98208100  1
  H  172  1  0.97458500  0.38187200  0.03911700  1
  H  173  1  0.00355800  0.32080500  0.00715400  1
  H  174  1  0.00658000  0.31635600  0.96225100  1
  H  178  1  0.95265400  0.27675600  0.10085600  1
  H  179  1  0.98117300  0.49608800  0.03061700  1
  H  180  1  0.09713600  0.31090400  0.93022300  1
  H  199  1  0.65467900  0.94759900  0.91895200  1
  H  200  1  0.63341800  0.97233700  0.94608300  1
  H  201  1  0.70221000  0.92818300  0.97408600  1
  H  202  1  0.57955200  0.00232600  0.04840900  1
  H  203  1  0.57476800  0.99701400  0.97350100  1
  H  204  1  0.53244100  0.99559400  0.97626900  1
  H  205  1  0.53712300  0.00153300  0.05112800  1
  H  206  1  0.64799900  0.02708000  0.06653000  1
  H  207  1  0.70657300  0.06943500  0.01915100  1
  H  208  1  0.67958300  0.04307300  0.00015900  1
  H  209  1  0.67497800  0.05388400  0.08576100  1
  H  216  1  0.60831800  0.97015000  0.98504900  1
  H  217  1  0.61348900  0.02817800  0.03232700  1
  H  218  1  0.67531100  0.99774500  0.00320400  1
  H  219  1  0.68078900  0.95274800  0.00114400  1
  H  223  1  0.72072500  0.08896400  0.05402900  1
  H  224  1  0.50001500  0.98499000  0.02801100  1
  H  225  1  0.68639500  0.91886500  0.91126700  1
  H  244  1  0.34223300  0.94908600  0.09873500  1
  H  245  1  0.36319500  0.97362500  0.07120000  1
  H  246  1  0.29517300  0.92790200  0.04387100  1
  H  247  1  0.41709200  0.00378800  0.96914100  1
  H  248  1  0.42050800  0.00203400  0.04427100  1
  H  249  1  0.46276800  0.00556400  0.04247600  1
  H  250  1  0.45940900  0.00733300  0.96731600  1
  H  251  1  0.34794100  0.02739800  0.95012300  1
  H  252  1  0.28848100  0.06867900  0.99734500  1
  H  253  1  0.31537800  0.04219100  0.01630000  1
  H  254  1  0.32104800  0.05434800  0.93093900  1
  H  261  1  0.38855500  0.97192800  0.03265600  1
  H  262  1  0.38191400  0.02902300  0.98446800  1
  H  263  1  0.32083400  0.99709200  0.01345400  1
  H  264  1  0.31631800  0.95223400  0.01639600  1
  H  268  1  0.27569300  0.08970900  0.96265400  1
  H  269  1  0.49611700  0.02052600  0.99102300  1
  H  270  1  0.31101400  0.91981300  0.10680100  1
  H  289  1  0.71829800  0.91107900  0.88377900  1
  H  290  1  0.74942800  0.89086500  0.86280200  1
  H  291  1  0.74991900  0.89225400  0.94936500  1
  H  292  1  0.89948400  0.85422700  0.76551500  1
  H  293  1  0.86293100  0.91722500  0.78510000  1
  H  294  1  0.88317600  0.93846700  0.75407000  1
  H  295  1  0.91963900  0.87565400  0.73464900  1
  H  296  1  0.91849000  0.78080600  0.88140000  1
  H  297  1  0.87375000  0.71864400  0.92168600  1
  H  298  1  0.85275100  0.74977200  0.90149800  1
  H  299  1  0.93931500  0.74950700  0.90160100  1
  H  306  1  0.82243300  0.87662900  0.83455300  1
  H  307  1  0.87662400  0.82450400  0.83246900  1
  H  308  1  0.82455600  0.82249400  0.88673600  1
  H  309  1  0.78122100  0.87203000  0.92855800  1
  H  337  1  0.26613500  0.06972400  0.88755300  1
  H  338  1  0.23636400  0.08995000  0.86453600  1
  H  339  1  0.25917300  0.12134800  0.94181700  1
  H  340  1  0.08363900  0.13541900  0.77772900  1
  H  341  1  0.14526300  0.09277500  0.76944600  1
  H  342  1  0.12556000  0.07026200  0.73929600  1
  H  343  1  0.06389100  0.11254500  0.74756500  1
  H  344  1  0.08062800  0.21662500  0.88193500  1
  H  345  1  0.12479600  0.27915800  0.92224900  1
  H  346  1  0.14607800  0.24832700  0.90187400  1
  H  347  1  0.05952400  0.24760600  0.90231900  1
  H  354  1  0.17453700  0.12221700  0.83070800  1
  H  355  1  0.12093800  0.17496100  0.83200100  1
  H  356  1  0.17486000  0.17485800  0.88443900  1
  H  357  1  0.22932400  0.14136900  0.91922700  1
  H  385  1  0.72875300  0.07024100  0.12935700  1
  H  386  1  0.75854500  0.09043500  0.15238700  1
  H  387  1  0.73640300  0.12136700  0.07471500  1
  H  388  1  0.89966500  0.14457300  0.25245400  1
  H  389  1  0.86297200  0.08179700  0.23247800  1
  H  390  1  0.88350400  0.06020200  0.26306300  1
  H  391  1  0.92010900  0.12279200  0.28289200  1
  H  392  1  0.90878700  0.23002200  0.15199700  1
  H  393  1  0.87804400  0.26547900  0.07926600  1
  H  394  1  0.85492900  0.23583400  0.09956000  1
  H  395  1  0.93147900  0.25973100  0.13189500  1
  H  402  1  0.82096700  0.12181200  0.18561200  1
  H  403  1  0.87428000  0.17485600  0.18496800  1
  H  404  1  0.81997400  0.17547000  0.13292100  1
  H  405  1  0.76628400  0.14135800  0.09731600  1
  H  433  1  0.27948000  0.91166100  0.13460500  1
  H  434  1  0.24864700  0.89128700  0.15588400  1
  H  435  1  0.24711500  0.89299900  0.06934400  1
  H  436  1  0.08390700  0.86102600  0.23778900  1
  H  437  1  0.14518800  0.90417900  0.24589100  1
  H  438  1  0.12530300  0.92666600  0.27594400  1
  H  439  1  0.06397800  0.88386900  0.26785900  1
  H  440  1  0.08806700  0.76550800  0.15174400  1
  H  441  1  0.11874500  0.72989500  0.07904800  1
  H  442  1  0.14174600  0.75980400  0.09909000  1
  H  443  1  0.06550100  0.73552900  0.13189800  1
  H  450  1  0.17414500  0.87514700  0.18407300  1
  H  451  1  0.12222100  0.82073500  0.18446200  1
  H  452  1  0.17561000  0.82139700  0.13147600  1
  H  453  1  0.21612700  0.87261900  0.09044800  1
  H  481  1  0.87726900  0.90936800  0.23798100  1
  H  482  1  0.90136030  0.93668400  0.21631100  1
  H  483  1  0.85888600  0.96411100  0.28637500  1
  H  484  1  0.93048330  0.03875600  0.16191500  1
  H  485  1  0.92485030  0.96386500  0.15744100  1
  H  486  1  0.92313230  0.96649200  0.11510200  1
  H  487  1  0.92938430  0.04132800  0.11948300  1
  H  488  1  0.95675030  0.05695600  0.22884100  1
  H  489  1  0.00088800  0.01054000  0.28693500  1
  H  490  1  0.97280430  0.99122900  0.26175400  1
  H  491  1  0.98520630  0.07640700  0.25401000  1
  H  498  1  0.89861400  0.97552200  0.19146800  1
  H  499  1  0.95674930  0.02272500  0.19539100  1
  H  500  1  0.92754130  0.99382200  0.25789600  1
  H  501  1  0.88275100  0.99138500  0.26447900  1
  H  505  1  0.02643300  0.04643800  0.29278000  1
  H  506  1  0.91255430  0.01804200  0.08249800  1
  H  507  1  0.85208900  0.90037900  0.27177500  1
  H  526  1  0.87875100  0.08848700  0.92381390  1
  H  527  1  0.90273930  0.06084900  0.94517990  1
  H  528  1  0.85838700  0.03383400  0.87614000  1
  H  529  1  0.93203230  0.95904900  0.99975490  1
  H  530  1  0.92993930  0.03416800  0.00291900  1
  H  531  1  0.93317630  0.03251600  0.04521500  1
  H  532  1  0.93530530  0.95737100  0.04209300  1
  H  533  1  0.95677630  0.93980500  0.93195090  1
  H  534  1  0.00008800  0.98598900  0.87306000  1
  H  535  1  0.97206730  0.00533200  0.89829000  1
  H  536  1  0.98515830  0.92031600  0.90670790  1
  H  543  1  0.90045830  0.02245200  0.97043790  1
  H  544  1  0.95763030  0.97426000  0.96502590  1
  H  545  1  0.92687430  0.00298700  0.90322990  1
  H  546  1  0.88213600  0.00623300  0.89775000  1
  H  550  1  0.02608200  0.95026000  0.86771800  1
  H  551  1  0.94832230  0.98125900  0.07874200  1
  H  552  1  0.85276000  0.09768800  0.89066000  1
  H  571  1  0.83771400  0.65468600  0.53030700  1
  H  572  1  0.86489900  0.63338600  0.55494400  1
  H  573  1  0.89278300  0.70227700  0.51087600  1
  H  574  1  0.96726530  0.57949100  0.58452500  1
  H  575  1  0.89233400  0.57473100  0.57968100  1
  H  576  1  0.89507600  0.53239900  0.57831500  1
  H  577  1  0.96996330  0.53706900  0.58376800  1
  H  578  1  0.98543230  0.64770800  0.60969700  1
  H  579  1  0.93816530  0.70622700  0.65225300  1
  H  580  1  0.91915830  0.67953600  0.62558000  1
  H  581  1  0.00466500  0.67437400  0.63683400  1
  H  588  1  0.90382030  0.60829900  0.55268300  1
  H  589  1  0.95125530  0.61338600  0.61058900  1
  H  590  1  0.92210330  0.67525200  0.58029900  1
  H  591  1  0.91989530  0.68081400  0.53533200  1
  H  595  1  0.97301130  0.71892700  0.67317800  1
  H  596  1  0.94677330  0.49994400  0.56747800  1
  H  597  1  0.82987600  0.68654100  0.50182300  1
  H  616  1  0.01772200  0.34216000  0.53195000  1
  H  617  1  0.99015435  0.36311000  0.55645100  1
  H  618  1  0.96285830  0.29522000  0.51051600  1
  H  619  1  0.88805000  0.41704300  0.58644700  1
  H  620  1  0.96317330  0.42049100  0.58474200  1
  H  621  1  0.96135630  0.46275300  0.58822900  1
  H  622  1  0.88620500  0.45935600  0.58996000  1
  H  623  1  0.86902500  0.34812000  0.61023100  1
  H  624  1  0.91607830  0.28846300  0.65140700  1
  H  625  1  0.93506530  0.31516100  0.62472300  1
  H  626  1  0.84982700  0.32143600  0.63738900  1
  H  633  1  0.95161130  0.38852800  0.55465000  1
  H  634  1  0.90335430  0.38187200  0.61168600  1
  H  635  1  0.93232730  0.32080500  0.57972300  1
  H  636  1  0.93534930  0.31635600  0.53482000  1
  H  640  1  0.88142300  0.27675600  0.67342500  1
  H  641  1  0.90994230  0.49608800  0.60318600  1
  H  642  1  0.02590500  0.31090400  0.50279200  1
  H  661  1  0.58344800  0.94759900  0.49152100  1
  H  662  1  0.56218700  0.97233700  0.51865200  1
  H  663  1  0.63097900  0.92818300  0.54665500  1
  H  664  1  0.50832100  0.00232600  0.62097800  1
  H  665  1  0.50353700  0.99701400  0.54607000  1
  H  666  1  0.46121000  0.99559400  0.54883800  1
  H  667  1  0.46589200  0.00153300  0.62369700  1
  H  668  1  0.57676800  0.02708000  0.63909900  1
  H  669  1  0.63534200  0.06943500  0.59172000  1
  H  670  1  0.60835200  0.04307300  0.57272800  1
  H  671  1  0.60374700  0.05388400  0.65833000  1
  H  678  1  0.53708700  0.97015000  0.55761800  1
  H  679  1  0.54225800  0.02817800  0.60489600  1
  H  680  1  0.60408000  0.99774500  0.57577300  1
  H  681  1  0.60955800  0.95274800  0.57371300  1
  H  685  1  0.64949400  0.08896400  0.62659800  1
  H  686  1  0.42878400  0.98499000  0.60058000  1
  H  687  1  0.61516400  0.91886500  0.48383600  1
  H  706  1  0.27100200  0.94908600  0.67130400  1
  H  707  1  0.29196400  0.97362500  0.64376900  1
  H  708  1  0.22394200  0.92790200  0.61644000  1
  H  709  1  0.34586100  0.00378800  0.54171000  1
  H  710  1  0.34927700  0.00203400  0.61684000  1
  H  711  1  0.39153700  0.00556400  0.61504500  1
  H  712  1  0.38817800  0.00733300  0.53988500  1
  H  713  1  0.27671000  0.02739800  0.52269200  1
  H  714  1  0.21725000  0.06867900  0.56991400  1
  H  715  1  0.24414700  0.04219100  0.58886900  1
  H  716  1  0.24981700  0.05434800  0.50350800  1
  H  723  1  0.31732400  0.97192800  0.60522500  1
  H  724  1  0.31068300  0.02902300  0.55703700  1
  H  725  1  0.24960300  0.99709200  0.58602300  1
  H  726  1  0.24508700  0.95223400  0.58896500  1
  H  730  1  0.20446200  0.08970900  0.53522300  1
  H  731  1  0.42488600  0.02052600  0.56359200  1
  H  732  1  0.23978300  0.91981300  0.67937000  1
  H  751  1  0.64706700  0.91107900  0.45634800  1
  H  752  1  0.67819700  0.89086500  0.43537100  1
  H  753  1  0.67868800  0.89225400  0.52193400  1
  H  754  1  0.82825300  0.85422700  0.33808400  1
  H  755  1  0.79170000  0.91722500  0.35766900  1
  H  756  1  0.81194500  0.93846700  0.32663900  1
  H  757  1  0.84840800  0.87565400  0.30721800  1
  H  758  1  0.84725900  0.78080600  0.45396900  1
  H  759  1  0.80251900  0.71864400  0.49425500  1
  H  760  1  0.78152000  0.74977200  0.47406700  1
  H  761  1  0.86808400  0.74950700  0.47417000  1
  H  768  1  0.75120200  0.87662900  0.40712200  1
  H  769  1  0.80539300  0.82450400  0.40503800  1
  H  770  1  0.75332500  0.82249400  0.45930500  1
  H  771  1  0.70999000  0.87203000  0.50112700  1
  H  799  1  0.19490400  0.06972400  0.46012200  1
  H  800  1  0.16513300  0.08995000  0.43710500  1
  H  801  1  0.18794200  0.12134800  0.51438600  1
  H  802  1  0.01240800  0.13541900  0.35029800  1
  H  803  1  0.07403200  0.09277500  0.34201500  1
  H  804  1  0.05432900  0.07026200  0.31186500  1
  H  805  1  0.99266035  0.11254500  0.32013400  1
  H  806  1  0.00939700  0.21662500  0.45450400  1
  H  807  1  0.05356500  0.27915800  0.49481800  1
  H  808  1  0.07484700  0.24832700  0.47444300  1
  H  809  1  0.98829330  0.24760600  0.47488800  1
  H  816  1  0.10330600  0.12221700  0.40327700  1
  H  817  1  0.04970700  0.17496100  0.40457000  1
  H  818  1  0.10362900  0.17485800  0.45700800  1
  H  819  1  0.15809300  0.14136900  0.49179600  1
  H  847  1  0.65752200  0.07024100  0.70192600  1
  H  848  1  0.68731400  0.09043500  0.72495600  1
  H  849  1  0.66517200  0.12136700  0.64728400  1
  H  850  1  0.82843400  0.14457300  0.82502300  1
  H  851  1  0.79174100  0.08179700  0.80504700  1
  H  852  1  0.81227300  0.06020200  0.83563200  1
  H  853  1  0.84887800  0.12279200  0.85546100  1
  H  854  1  0.83755600  0.23002200  0.72456600  1
  H  855  1  0.80681300  0.26547900  0.65183500  1
  H  856  1  0.78369800  0.23583400  0.67212900  1
  H  857  1  0.86024800  0.25973100  0.70446400  1
  H  864  1  0.74973600  0.12181200  0.75818100  1
  H  865  1  0.80304900  0.17485600  0.75753700  1
  H  866  1  0.74874300  0.17547000  0.70549000  1
  H  867  1  0.69505300  0.14135800  0.66988500  1
  H  895  1  0.20824900  0.91166100  0.70717400  1
  H  896  1  0.17741600  0.89128700  0.72845300  1
  H  897  1  0.17588400  0.89299900  0.64191300  1
  H  898  1  0.01267600  0.86102600  0.81035800  1
  H  899  1  0.07395700  0.90417900  0.81846000  1
  H  900  1  0.05407200  0.92666600  0.84851300  1
  H  901  1  0.99274735  0.88386900  0.84042800  1
  H  902  1  0.01683600  0.76550800  0.72431300  1
  H  903  1  0.04751400  0.72989500  0.65161700  1
  H  904  1  0.07051500  0.75980400  0.67165900  1
  H  905  1  0.99427035  0.73552900  0.70446700  1
  H  912  1  0.10291400  0.87514700  0.75664200  1
  H  913  1  0.05099000  0.82073500  0.75703100  1
  H  914  1  0.10437900  0.82139700  0.70404500  1
  H  915  1  0.14489600  0.87261900  0.66301700  1
  C  1  1  0.99912200  0.00104800  0.59147600  1
  C  2  1  0.96557800  0.96681800  0.66554600  1
  C  3  1  0.03314900  0.02219800  0.67027400  1
  C  4  1  0.95282000  0.97418000  0.68599300  1
  C  5  1  0.93863300  0.95804100  0.69887500  1
  C  6  1  0.93677100  0.93387100  0.69185300  1
  C  7  1  0.94909800  0.92670700  0.67104200  1
  C  8  1  0.96319500  0.94288300  0.65808600  1
  C  9  1  0.99710900  0.98035400  0.57717500  1
  C  10  1  0.99641300  0.98184500  0.55215400  1
  C  11  1  0.99783600  0.00413700  0.54052100  1
  C  12  1  0.99993400  0.02484400  0.55469500  1
  C  13  1  0.00074200  0.02330300  0.57973000  1
  C  14  1  0.03739700  0.04695300  0.66825500  1
  C  15  1  0.05393300  0.05844400  0.68326300  1
  C  16  1  0.06692400  0.04542100  0.70050100  1
  C  17  1  0.06302800  0.02060500  0.70215700  1
  C  18  1  0.04635100  0.00922500  0.68738100  1
  C  30  1  0.01559800  0.01048600  0.65613500  1
  C  31  1  0.01526100  0.01253900  0.63102000  1
  C  32  1  0.99883700  0.99954000  0.61692600  1
  C  33  1  0.98221600  0.98464800  0.62871600  1
  C  34  1  0.98170100  0.98256100  0.65380200  1
  C  35  1  0.99857300  0.99558200  0.66716000  1
  C  40  1  0.08352000  0.05596300  0.71543400  1
  C  41  1  0.99549200  0.00615500  0.51591700  1
  C  42  1  0.92424300  0.91705300  0.70514900  1
  C  46  1  0.00166600  0.99676500  0.42445700  1
  C  47  1  0.96596300  0.03071200  0.35116500  1
  C  48  1  0.03274000  0.97445500  0.34496400  1
  C  49  1  0.95264300  0.02348800  0.33102200  1
  C  50  1  0.93853400  0.03982500  0.31829600  1
  C  51  1  0.93729100  0.06407500  0.32517600  1
  C  52  1  0.95011300  0.07110000  0.34573100  1
  C  53  1  0.96415100  0.05473100  0.35852200  1
  C  54  1  0.00180900  0.01780900  0.43836500  1
  C  55  1  0.00376900  0.01684700  0.46335300  1
  C  56  1  0.00533100  0.99475200  0.47538000  1
  C  57  1  0.00528600  0.97371400  0.46151900  1
  C  58  1  0.00348600  0.97470500  0.43651800  1
  C  59  1  0.03716500  0.94974200  0.34714700  1
  C  60  1  0.05367900  0.93823000  0.33212300  1
  C  61  1  0.06647200  0.95119700  0.31469500  1
  C  62  1  0.06234800  0.97596000  0.31281900  1
  C  63  1  0.04568600  0.98735400  0.32760800  1
  C  75  1  0.01553500  0.98628000  0.35944300  1
  C  76  1  0.01594500  0.98444300  0.38456400  1
  C  77  1  0.00017900  0.99782000  0.39904500  1
  C  78  1  0.98346100  0.01293300  0.38769300  1
  C  79  1  0.98212900  0.01475400  0.36259900  1
  C  80  1  0.99837300  0.00133000  0.34883600  1
  C  85  1  0.08319300  0.94067900  0.29987700  1
  C  86  1  0.00798200  0.99322000  0.50003800  1
  C  87  1  0.92482200  0.08105800  0.31201600  1
  C  91  1  0.00075400  0.58147400  0.00975100  1
  C  92  1  0.96638100  0.65487800  0.97493500  1
  C  93  1  0.02165100  0.66099000  0.04236600  1
  C  94  1  0.97387700  0.67499800  0.96174200  1
  C  95  1  0.95782900  0.68765400  0.94725900  1
  C  96  1  0.93362800  0.68072300  0.94552900  1
  C  97  1  0.92631300  0.66023500  0.95828300  1
  C  98  1  0.94239600  0.64751800  0.97271100  1
  C  99  1  0.98008600  0.56709200  0.00809100  1
  C  100  1  0.98164900  0.54207500  0.00760000  1
  C  101  1  0.00399500  0.53052200  0.00887700  1
  C  102  1  0.02467400  0.54478700  0.01066100  1
  C  103  1  0.02306200  0.56981700  0.01129200  1
  C  104  1  0.04649200  0.65970000  0.04635000  1
  C  105  1  0.05783400  0.67560200  0.06215900  1
  C  106  1  0.04464300  0.69312300  0.07465800  1
  C  107  1  0.01970700  0.69389500  0.07105200  1
  C  108  1  0.00844300  0.67818000  0.05519400  1
  C  120  1  0.01006600  0.64641700  0.02509400  1
  C  121  1  0.01220200  0.62131500  0.02521200  1
  C  122  1  0.99917100  0.60690500  0.00907600  1
  C  123  1  0.98419200  0.61835000  0.99228600  1
  C  124  1  0.98208300  0.64341100  0.99129100  1
  C  125  1  0.99512300  0.65708900  0.00787900  1
  C  130  1  0.05498800  0.70952500  0.09011700  1
  C  131  1  0.00608600  0.50591500  0.00659700  1
  C  132  1  0.91701700  0.69367000  0.93240900  1
  C  136  1  0.99701700  0.41446200  0.01246900  1
  C  137  1  0.03116800  0.34195100  0.97541900  1
  C  138  1  0.97514400  0.33423400  0.04213100  1
  C  139  1  0.02386800  0.32212500  0.96167800  1
  C  140  1  0.04014900  0.30965500  0.94728300  1
  C  141  1  0.06441500  0.31647900  0.94618400  1
  C  142  1  0.07154200  0.33671600  0.95943400  1
  C  143  1  0.05522600  0.34924100  0.97378100  1
  C  144  1  0.01801200  0.42843800  0.01284800  1
  C  145  1  0.01695400  0.45340600  0.01493700  1
  C  146  1  0.99480500  0.46535000  0.01640800  1
  C  147  1  0.97381600  0.45141100  0.01621600  1
  C  148  1  0.97490300  0.42642600  0.01427800  1
  C  149  1  0.95038300  0.33582700  0.04652600  1
  C  150  1  0.93905200  0.31992200  0.06234600  1
  C  151  1  0.95218700  0.30211800  0.07448900  1
  C  152  1  0.97704000  0.30099000  0.07043700  1
  C  153  1  0.98828200  0.31669300  0.05454900  1
  C  165  1  0.98678900  0.34917500  0.02519700  1
  C  166  1  0.98482100  0.37426900  0.02607000  1
  C  167  1  0.99817100  0.38908400  0.01058100  1
  C  168  1  0.01334400  0.37810900  0.99365800  1
  C  169  1  0.01522800  0.35306400  0.99182600  1
  C  170  1  0.00185500  0.33896300  0.00780600  1
  C  175  1  0.94188400  0.28589000  0.09016300  1
  C  176  1  0.99318200  0.48999800  0.01907100  1
  C  177  1  0.08123900  0.30366700  0.93318200  1
  C  181  1  0.58152400  0.99987400  0.01067900  1
  C  182  1  0.65488400  0.96490800  0.97635800  1
  C  183  1  0.66111700  0.03242500  0.03146800  1
  C  184  1  0.67497600  0.95170000  0.98389200  1
  C  185  1  0.68760500  0.93715200  0.96788100  1
  C  186  1  0.68067800  0.93539300  0.94367800  1
  C  187  1  0.66021600  0.94816500  0.93632500  1
  C  188  1  0.64750500  0.96262900  0.95238100  1
  C  189  1  0.56713600  0.99808000  0.99002300  1
  C  190  1  0.54212000  0.99755600  0.99159800  1
  C  191  1  0.53057300  0.99894300  0.01394300  1
  C  192  1  0.54483900  0.00088900  0.03461000  1
  C  193  1  0.56987300  0.00153200  0.03298400  1
  C  194  1  0.65997200  0.03630300  0.05633400  1
  C  195  1  0.67604800  0.05193900  0.06767000  1
  C  196  1  0.69362900  0.06434300  0.05445900  1
  C  197  1  0.69421100  0.06087500  0.02949100  1
  C  198  1  0.67830700  0.04521400  0.01822700  1
  C  210  1  0.64649700  0.01518400  0.01990800  1
  C  211  1  0.62139700  0.01531900  0.02209100  1
  C  212  1  0.60696100  0.99918400  0.00908500  1
  C  213  1  0.61838200  0.98235100  0.99413500  1
  C  214  1  0.64344100  0.98131800  0.99201900  1
  C  215  1  0.65714500  0.99792200  0.00500300  1
  C  220  1  0.71036200  0.07945600  0.06481500  1
  C  221  1  0.50596800  0.99663800  0.01604500  1
  C  222  1  0.69360200  0.92220800  0.92710400  1
  C  226  1  0.41450000  0.00233700  0.00687800  1
  C  227  1  0.34196600  0.96529700  0.04099300  1
  C  228  1  0.33427100  0.03205200  0.98507500  1
  C  229  1  0.32210900  0.95160600  0.03367500  1
  C  230  1  0.30962700  0.93720300  0.04993700  1
  C  231  1  0.31648200  0.93603300  0.07419300  1
  C  232  1  0.33675200  0.94922400  0.08133700  1
  C  233  1  0.34927800  0.96359300  0.06504300  1
  C  234  1  0.42846600  0.00269600  0.02788100  1
  C  235  1  0.45343300  0.00481800  0.02683600  1
  C  236  1  0.46538700  0.00632700  0.00469100  1
  C  237  1  0.45145800  0.00613300  0.98369400  1
  C  238  1  0.42647000  0.00417400  0.98476900  1
  C  239  1  0.33570100  0.03630500  0.96028000  1
  C  240  1  0.31968200  0.05202200  0.94896600  1
  C  241  1  0.30190700  0.06417500  0.96214300  1
  C  242  1  0.30097600  0.06028000  0.98703500  1
  C  243  1  0.31680400  0.04451400  0.99826600  1
  C  255  1  0.34921900  0.01511600  0.99669100  1
  C  256  1  0.37431400  0.01598100  0.99471200  1
  C  257  1  0.38912000  0.00045800  0.00802700  1
  C  258  1  0.37813800  0.98351900  0.02317400  1
  C  259  1  0.35309000  0.98170800  0.02507300  1
  C  260  1  0.33899500  0.99771200  0.01172600  1
  C  265  1  0.28543100  0.07959900  0.95184300  1
  C  266  1  0.49003500  0.00902600  0.00307800  1
  C  267  1  0.30368400  0.92298700  0.09098800  1
  C  271  1  0.87909600  0.88368600  0.77791800  1
  C  272  1  0.76802700  0.87934600  0.89376400  1
  C  273  1  0.88369600  0.76798900  0.88934600  1
  C  274  1  0.76787700  0.87990700  0.91890200  1
  C  275  1  0.74950000  0.89177900  0.93113600  1
  C  276  1  0.73088400  0.90307200  0.91859000  1
  C  277  1  0.73114000  0.90246900  0.89338800  1
  C  278  1  0.74954000  0.89070500  0.88105900  1
  C  279  1  0.87454300  0.90815000  0.77432200  1
  C  280  1  0.88641700  0.92063900  0.75611000  1
  C  281  1  0.90276100  0.90893400  0.74103000  1
  C  282  1  0.90728700  0.88442300  0.74475200  1
  C  283  1  0.89554300  0.87187500  0.76301100  1
  C  284  1  0.90883400  0.76760900  0.88952200  1
  C  285  1  0.92108000  0.74923900  0.90138800  1
  C  286  1  0.90854400  0.73083400  0.91303600  1
  C  287  1  0.88334100  0.73132200  0.91281700  1
  C  288  1  0.87100300  0.74971600  0.90105800  1
  C  300  1  0.85189400  0.82046600  0.86074200  1
  C  301  1  0.86150800  0.83135500  0.84019800  1
  C  302  1  0.85065800  0.85186200  0.83047300  1
  C  303  1  0.83015900  0.86151400  0.84140600  1
  C  304  1  0.82046600  0.85069700  0.86194600  1
  C  305  1  0.83138900  0.83019400  0.87159500  1
  C  310  1  0.87239100  0.78550300  0.87912400  1
  C  311  1  0.86240100  0.80200500  0.87014400  1
  C  312  1  0.78552800  0.86910800  0.88245600  1
  C  313  1  0.80201700  0.86011100  0.87246000  1
  C  314  1  0.86002100  0.86235900  0.81198700  1
  C  315  1  0.86893200  0.87237200  0.79546000  1
  C  319  1  0.11630600  0.11625300  0.77630600  1
  C  320  1  0.23011900  0.11755100  0.88974300  1
  C  321  1  0.11531300  0.22976300  0.88982000  1
  C  322  1  0.23710100  0.12641800  0.91219600  1
  C  323  1  0.25461200  0.11450400  0.92558500  1
  C  324  1  0.26536600  0.09334300  0.91700200  1
  C  325  1  0.25873300  0.08499600  0.89422200  1
  C  326  1  0.24120800  0.09686000  0.88072300  1
  C  327  1  0.12818600  0.09730900  0.76483600  1
  C  328  1  0.11650900  0.08396200  0.74712500  1
  C  329  1  0.09268700  0.08912500  0.74059200  1
  C  330  1  0.08113900  0.10843500  0.75182800  1
  C  331  1  0.09273800  0.12185900  0.76957000  1
  C  332  1  0.09017000  0.22986700  0.89011400  1
  C  333  1  0.07775500  0.24806100  0.90208700  1
  C  334  1  0.09011100  0.26658700  0.91373700  1
  C  335  1  0.11531800  0.26636700  0.91342600  1
  C  336  1  0.12782700  0.24814400  0.90155700  1
  C  348  1  0.14669400  0.17796200  0.85947200  1
  C  349  1  0.13625700  0.16776000  0.83897500  1
  C  350  1  0.14651000  0.14742700  0.82828700  1
  C  351  1  0.16726900  0.13724700  0.83822000  1
  C  352  1  0.17782400  0.14735500  0.85870200  1
  C  353  1  0.16745700  0.16769300  0.86930700  1
  C  358  1  0.12674800  0.21249600  0.87927900  1
  C  359  1  0.13661900  0.19621600  0.86975800  1
  C  360  1  0.21289400  0.12791900  0.87807600  1
  C  361  1  0.19642500  0.13733200  0.86841700  1
  C  362  1  0.13629300  0.13749200  0.80992300  1
  C  363  1  0.12675000  0.12776300  0.79357400  1
  C  367  1  0.87920900  0.11525600  0.23985500  1
  C  368  1  0.76513400  0.11777300  0.12697900  1
  C  369  1  0.87970900  0.23021200  0.12767600  1
  C  370  1  0.75836600  0.12651200  0.10441300  1
  C  371  1  0.74085000  0.11462100  0.09102200  1
  C  372  1  0.72990400  0.09361100  0.09972000  1
  C  373  1  0.73632200  0.08539500  0.12260700  1
  C  374  1  0.75385200  0.09723700  0.13610900  1
  C  375  1  0.87471700  0.09074300  0.24321700  1
  C  376  1  0.88676100  0.07804400  0.26117300  1
  C  377  1  0.90322200  0.08956900  0.27626100  1
  C  378  1  0.90770800  0.11412400  0.27276200  1
  C  379  1  0.89579500  0.12688200  0.25475300  1
  C  380  1  0.90194500  0.23752200  0.13681400  1
  C  381  1  0.91540000  0.25495100  0.12485100  1
  C  382  1  0.90709100  0.26532300  0.10338900  1
  C  383  1  0.88452400  0.25834900  0.09474900  1
  C  384  1  0.87095900  0.24090900  0.10666200  1
  C  396  1  0.84829500  0.17827500  0.15775100  1
  C  397  1  0.85894500  0.16772000  0.17797000  1
  C  398  1  0.84888000  0.14711400  0.18833200  1
  C  399  1  0.82810600  0.13702600  0.17835100  1
  C  400  1  0.81735600  0.14748300  0.15815700  1
  C  401  1  0.82752400  0.16807700  0.14787000  1
  C  406  1  0.86797200  0.21308500  0.13813500  1
  C  407  1  0.85819600  0.19673300  0.14763500  1
  C  408  1  0.78232700  0.12812800  0.13867500  1
  C  409  1  0.79877500  0.13752400  0.14837800  1
  C  410  1  0.85918900  0.13683600  0.20646000  1
  C  411  1  0.86868700  0.12679800  0.22264900  1
  C  415  1  0.11642200  0.88044900  0.23911400  1
  C  416  1  0.22967200  0.87987500  0.12511800  1
  C  417  1  0.11704200  0.76537800  0.12728700  1
  C  418  1  0.22953200  0.88054300  0.09998200  1
  C  419  1  0.24773100  0.89250600  0.08756800  1
  C  420  1  0.26648700  0.90379200  0.09991600  1
  C  421  1  0.26651300  0.90310400  0.12512000  1
  C  422  1  0.24828600  0.89124600  0.13763000  1
  C  423  1  0.12814500  0.89953200  0.25051400  1
  C  424  1  0.11636100  0.91286100  0.26817600  1
  C  425  1  0.09257800  0.90754300  0.27474200  1
  C  426  1  0.08119300  0.88809900  0.26357600  1
  C  427  1  0.09289900  0.87469200  0.24588700  1
  C  428  1  0.09490300  0.75796700  0.13657700  1
  C  429  1  0.08152200  0.74038800  0.12476600  1
  C  430  1  0.08980800  0.72998700  0.10330900  1
  C  431  1  0.11229600  0.73704800  0.09453400  1
  C  432  1  0.12579000  0.75463800  0.10629700  1
  C  444  1  0.14781900  0.81794400  0.15681200  1
  C  445  1  0.13724400  0.82825900  0.17719200  1
  C  446  1  0.14693800  0.84914100  0.18734200  1
  C  447  1  0.16726800  0.85974700  0.17696000  1
  C  448  1  0.17792600  0.84953000  0.15657900  1
  C  449  1  0.16812900  0.82864900  0.14653300  1
  C  454  1  0.12864700  0.78268300  0.13756400  1
  C  455  1  0.13821900  0.79924200  0.14689800  1
  C  456  1  0.21241900  0.86933300  0.13656800  1
  C  457  1  0.19615800  0.85981300  0.14646700  1
  C  458  1  0.13660600  0.85914700  0.20562100  1
  C  459  1  0.12697300  0.86891900  0.22190100  1
  C  463  1  0.92789130  0.00104800  0.16404500  1
  C  464  1  0.89434700  0.96681800  0.23811500  1
  C  465  1  0.96191830  0.02219800  0.24284300  1
  C  466  1  0.88158900  0.97418000  0.25856200  1
  C  467  1  0.86740200  0.95804100  0.27144400  1
  C  468  1  0.86554000  0.93387100  0.26442200  1
  C  469  1  0.87786700  0.92670700  0.24361100  1
  C  470  1  0.89196400  0.94288300  0.23065500  1
  C  471  1  0.92587830  0.98035400  0.14974400  1
  C  472  1  0.92518230  0.98184500  0.12472300  1
  C  473  1  0.92660530  0.00413700  0.11309000  1
  C  474  1  0.92870330  0.02484400  0.12726400  1
  C  475  1  0.92951130  0.02330300  0.15229900  1
  C  476  1  0.96616630  0.04695300  0.24082400  1
  C  477  1  0.98270230  0.05844400  0.25583200  1
  C  478  1  0.99569335  0.04542100  0.27307000  1
  C  479  1  0.99179735  0.02060500  0.27472600  1
  C  480  1  0.97512030  0.00922500  0.25995000  1
  C  492  1  0.94436730  0.01048600  0.22870400  1
  C  493  1  0.94403030  0.01253900  0.20358900  1
  C  494  1  0.92760630  0.99954000  0.18949500  1
  C  495  1  0.91098530  0.98464800  0.20128500  1
  C  496  1  0.91047030  0.98256100  0.22637100  1
  C  497  1  0.92734230  0.99558200  0.23972900  1
  C  502  1  0.01228900  0.05596300  0.28800300  1
  C  503  1  0.92426130  0.00615500  0.08848600  1
  C  504  1  0.85301200  0.91705300  0.27771800  1
  C  508  1  0.93043530  0.99676500  0.99702590  1
  C  509  1  0.89473200  0.03071200  0.92373390  1
  C  510  1  0.96150930  0.97445500  0.91753290  1
  C  511  1  0.88141200  0.02348800  0.90359090  1
  C  512  1  0.86730300  0.03982500  0.89086500  1
  C  513  1  0.86606000  0.06407500  0.89774500  1
  C  514  1  0.87888200  0.07110000  0.91829990  1
  C  515  1  0.89292000  0.05473100  0.93109090  1
  C  516  1  0.93057830  0.01780900  0.01093400  1
  C  517  1  0.93253830  0.01684700  0.03592200  1
  C  518  1  0.93410030  0.99475200  0.04794900  1
  C  519  1  0.93405530  0.97371400  0.03408800  1
  C  520  1  0.93225530  0.97470500  0.00908700  1
  C  521  1  0.96593430  0.94974200  0.91971590  1
  C  522  1  0.98244830  0.93823000  0.90469190  1
  C  523  1  0.99524135  0.95119700  0.88726400  1
  C  524  1  0.99111735  0.97596000  0.88538800  1
  C  525  1  0.97445530  0.98735400  0.90017690  1
  C  537  1  0.94430430  0.98628000  0.93201190  1
  C  538  1  0.94471430  0.98444300  0.95713290  1
  C  539  1  0.92894830  0.99782000  0.97161390  1
  C  540  1  0.91223030  0.01293300  0.96026190  1
  C  541  1  0.91089830  0.01475400  0.93516790  1
  C  542  1  0.92714230  0.00133000  0.92140490  1
  C  547  1  0.01196200  0.94067900  0.87244600  1
  C  548  1  0.93675130  0.99322000  0.07260700  1
  C  549  1  0.85359100  0.08105800  0.88458500  1
  C  553  1  0.92952330  0.58147400  0.58232000  1
  C  554  1  0.89515000  0.65487800  0.54750400  1
  C  555  1  0.95042030  0.66099000  0.61493500  1
  C  556  1  0.90264630  0.67499800  0.53431100  1
  C  557  1  0.88659800  0.68765400  0.51982800  1
  C  558  1  0.86239700  0.68072300  0.51809800  1
  C  559  1  0.85508200  0.66023500  0.53085200  1
  C  560  1  0.87116500  0.64751800  0.54528000  1
  C  561  1  0.90885530  0.56709200  0.58066000  1
  C  562  1  0.91041830  0.54207500  0.58016900  1
  C  563  1  0.93276430  0.53052200  0.58144600  1
  C  564  1  0.95344330  0.54478700  0.58323000  1
  C  565  1  0.95183130  0.56981700  0.58386100  1
  C  566  1  0.97526130  0.65970000  0.61891900  1
  C  567  1  0.98660330  0.67560200  0.63472800  1
  C  568  1  0.97341230  0.69312300  0.64722700  1
  C  569  1  0.94847630  0.69389500  0.64362100  1
  C  570  1  0.93721230  0.67818000  0.62776300  1
  C  582  1  0.93883530  0.64641700  0.59766300  1
  C  583  1  0.94097130  0.62131500  0.59778100  1
  C  584  1  0.92794030  0.60690500  0.58164500  1
  C  585  1  0.91296130  0.61835000  0.56485500  1
  C  586  1  0.91085230  0.64341100  0.56386000  1
  C  587  1  0.92389230  0.65708900  0.58044800  1
  C  592  1  0.98375730  0.70952500  0.66268600  1
  C  593  1  0.93485530  0.50591500  0.57916600  1
  C  594  1  0.84578600  0.69367000  0.50497800  1
  C  598  1  0.92578630  0.41446200  0.58503800  1
  C  599  1  0.95993730  0.34195100  0.54798800  1
  C  600  1  0.90391330  0.33423400  0.61470000  1
  C  601  1  0.95263730  0.32212500  0.53424700  1
  C  602  1  0.96891830  0.30965500  0.51985200  1
  C  603  1  0.99318435  0.31647900  0.51875300  1
  C  604  1  0.00031100  0.33671600  0.53200300  1
  C  605  1  0.98399530  0.34924100  0.54635000  1
  C  606  1  0.94678130  0.42843800  0.58541700  1
  C  607  1  0.94572330  0.45340600  0.58750600  1
  C  608  1  0.92357430  0.46535000  0.58897700  1
  C  609  1  0.90258530  0.45141100  0.58878500  1
  C  610  1  0.90367230  0.42642600  0.58684700  1
  C  611  1  0.87915200  0.33582700  0.61909500  1
  C  612  1  0.86782100  0.31992200  0.63491500  1
  C  613  1  0.88095600  0.30211800  0.64705800  1
  C  614  1  0.90580930  0.30099000  0.64300600  1
  C  615  1  0.91705130  0.31669300  0.62711800  1
  C  627  1  0.91555830  0.34917500  0.59776600  1
  C  628  1  0.91359030  0.37426900  0.59863900  1
  C  629  1  0.92694030  0.38908400  0.58315000  1
  C  630  1  0.94211330  0.37810900  0.56622700  1
  C  631  1  0.94399730  0.35306400  0.56439500  1
  C  632  1  0.93062430  0.33896300  0.58037500  1
  C  637  1  0.87065300  0.28589000  0.66273200  1
  C  638  1  0.92195130  0.48999800  0.59164000  1
  C  639  1  0.01000800  0.30366700  0.50575100  1
  C  643  1  0.51029300  0.99987400  0.58324800  1
  C  644  1  0.58365300  0.96490800  0.54892700  1
  C  645  1  0.58988600  0.03242500  0.60403700  1
  C  646  1  0.60374500  0.95170000  0.55646100  1
  C  647  1  0.61637400  0.93715200  0.54045000  1
  C  648  1  0.60944700  0.93539300  0.51624700  1
  C  649  1  0.58898500  0.94816500  0.50889400  1
  C  650  1  0.57627400  0.96262900  0.52495000  1
  C  651  1  0.49590500  0.99808000  0.56259200  1
  C  652  1  0.47088900  0.99755600  0.56416700  1
  C  653  1  0.45934200  0.99894300  0.58651200  1
  C  654  1  0.47360800  0.00088900  0.60717900  1
  C  655  1  0.49864200  0.00153200  0.60555300  1
  C  656  1  0.58874100  0.03630300  0.62890300  1
  C  657  1  0.60481700  0.05193900  0.64023900  1
  C  658  1  0.62239800  0.06434300  0.62702800  1
  C  659  1  0.62298000  0.06087500  0.60206000  1
  C  660  1  0.60707600  0.04521400  0.59079600  1
  C  672  1  0.57526600  0.01518400  0.59247700  1
  C  673  1  0.55016600  0.01531900  0.59466000  1
  C  674  1  0.53573000  0.99918400  0.58165400  1
  C  675  1  0.54715100  0.98235100  0.56670400  1
  C  676  1  0.57221000  0.98131800  0.56458800  1
  C  677  1  0.58591400  0.99792200  0.57757200  1
  C  682  1  0.63913100  0.07945600  0.63738400  1
  C  683  1  0.43473700  0.99663800  0.58861400  1
  C  684  1  0.62237100  0.92220800  0.49967300  1
  C  688  1  0.34326900  0.00233700  0.57944700  1
  C  689  1  0.27073500  0.96529700  0.61356200  1
  C  690  1  0.26304000  0.03205200  0.55764400  1
  C  691  1  0.25087800  0.95160600  0.60624400  1
  C  692  1  0.23839600  0.93720300  0.62250600  1
  C  693  1  0.24525100  0.93603300  0.64676200  1
  C  694  1  0.26552100  0.94922400  0.65390600  1
  C  695  1  0.27804700  0.96359300  0.63761200  1
  C  696  1  0.35723500  0.00269600  0.60045000  1
  C  697  1  0.38220200  0.00481800  0.59940500  1
  C  698  1  0.39415600  0.00632700  0.57726000  1
  C  699  1  0.38022700  0.00613300  0.55626300  1
  C  700  1  0.35523900  0.00417400  0.55733800  1
  C  701  1  0.26447000  0.03630500  0.53284900  1
  C  702  1  0.24845100  0.05202200  0.52153500  1
  C  703  1  0.23067600  0.06417500  0.53471200  1
  C  704  1  0.22974500  0.06028000  0.55960400  1
  C  705  1  0.24557300  0.04451400  0.57083500  1
  C  717  1  0.27798800  0.01511600  0.56926000  1
  C  718  1  0.30308300  0.01598100  0.56728100  1
  C  719  1  0.31788900  0.00045800  0.58059600  1
  C  720  1  0.30690700  0.98351900  0.59574300  1
  C  721  1  0.28185900  0.98170800  0.59764200  1
  C  722  1  0.26776400  0.99771200  0.58429500  1
  C  727  1  0.21420000  0.07959900  0.52441200  1
  C  728  1  0.41880400  0.00902600  0.57564700  1
  C  729  1  0.23245300  0.92298700  0.66355700  1
  C  733  1  0.80786500  0.88368600  0.35048700  1
  C  734  1  0.69679600  0.87934600  0.46633300  1
  C  735  1  0.81246500  0.76798900  0.46191500  1
  C  736  1  0.69664600  0.87990700  0.49147100  1
  C  737  1  0.67826900  0.89177900  0.50370500  1
  C  738  1  0.65965300  0.90307200  0.49115900  1
  C  739  1  0.65990900  0.90246900  0.46595700  1
  C  740  1  0.67830900  0.89070500  0.45362800  1
  C  741  1  0.80331200  0.90815000  0.34689100  1
  C  742  1  0.81518600  0.92063900  0.32867900  1
  C  743  1  0.83153000  0.90893400  0.31359900  1
  C  744  1  0.83605600  0.88442300  0.31732100  1
  C  745  1  0.82431200  0.87187500  0.33558000  1
  C  746  1  0.83760300  0.76760900  0.46209100  1
  C  747  1  0.84984900  0.74923900  0.47395700  1
  C  748  1  0.83731300  0.73083400  0.48560500  1
  C  749  1  0.81211000  0.73132200  0.48538600  1
  C  750  1  0.79977200  0.74971600  0.47362700  1
  C  762  1  0.78066300  0.82046600  0.43331100  1
  C  763  1  0.79027700  0.83135500  0.41276700  1
  C  764  1  0.77942700  0.85186200  0.40304200  1
  C  765  1  0.75892800  0.86151400  0.41397500  1
  C  766  1  0.74923500  0.85069700  0.43451500  1
  C  767  1  0.76015800  0.83019400  0.44416400  1
  C  772  1  0.80116000  0.78550300  0.45169300  1
  C  773  1  0.79117000  0.80200500  0.44271300  1
  C  774  1  0.71429700  0.86910800  0.45502500  1
  C  775  1  0.73078600  0.86011100  0.44502900  1
  C  776  1  0.78879000  0.86235900  0.38455600  1
  C  777  1  0.79770100  0.87237200  0.36802900  1
  C  781  1  0.04507500  0.11625300  0.34887500  1
  C  782  1  0.15888800  0.11755100  0.46231200  1
  C  783  1  0.04408200  0.22976300  0.46238900  1
  C  784  1  0.16587000  0.12641800  0.48476500  1
  C  785  1  0.18338100  0.11450400  0.49815400  1
  C  786  1  0.19413500  0.09334300  0.48957100  1
  C  787  1  0.18750200  0.08499600  0.46679100  1
  C  788  1  0.16997700  0.09686000  0.45329200  1
  C  789  1  0.05695500  0.09730900  0.33740500  1
  C  790  1  0.04527800  0.08396200  0.31969400  1
  C  791  1  0.02145600  0.08912500  0.31316100  1
  C  792  1  0.00990800  0.10843500  0.32439700  1
  C  793  1  0.02150700  0.12185900  0.34213900  1
  C  794  1  0.01893900  0.22986700  0.46268300  1
  C  795  1  0.00652400  0.24806100  0.47465600  1
  C  796  1  0.01888000  0.26658700  0.48630600  1
  C  797  1  0.04408700  0.26636700  0.48599500  1
  C  798  1  0.05659600  0.24814400  0.47412600  1
  C  810  1  0.07546300  0.17796200  0.43204100  1
  C  811  1  0.06502600  0.16776000  0.41154400  1
  C  812  1  0.07527900  0.14742700  0.40085600  1
  C  813  1  0.09603800  0.13724700  0.41078900  1
  C  814  1  0.10659300  0.14735500  0.43127100  1
  C  815  1  0.09622600  0.16769300  0.44187600  1
  C  820  1  0.05551700  0.21249600  0.45184800  1
  C  821  1  0.06538800  0.19621600  0.44232700  1
  C  822  1  0.14166300  0.12791900  0.45064500  1
  C  823  1  0.12519400  0.13733200  0.44098600  1
  C  824  1  0.06506200  0.13749200  0.38249200  1
  C  825  1  0.05551900  0.12776300  0.36614300  1
  C  829  1  0.80797800  0.11525600  0.81242400  1
  C  830  1  0.69390300  0.11777300  0.69954800  1
  C  831  1  0.80847800  0.23021200  0.70024500  1
  C  832  1  0.68713500  0.12651200  0.67698200  1
  C  833  1  0.66961900  0.11462100  0.66359100  1
  C  834  1  0.65867300  0.09361100  0.67228900  1
  C  835  1  0.66509100  0.08539500  0.69517600  1
  C  836  1  0.68262100  0.09723700  0.70867800  1
  C  837  1  0.80348600  0.09074300  0.81578600  1
  C  838  1  0.81553000  0.07804400  0.83374200  1
  C  839  1  0.83199100  0.08956900  0.84883000  1
  C  840  1  0.83647700  0.11412400  0.84533100  1
  C  841  1  0.82456400  0.12688200  0.82732200  1
  C  842  1  0.83071400  0.23752200  0.70938300  1
  C  843  1  0.84416900  0.25495100  0.69742000  1
  C  844  1  0.83586000  0.26532300  0.67595800  1
  C  845  1  0.81329300  0.25834900  0.66731800  1
  C  846  1  0.79972800  0.24090900  0.67923100  1
  C  858  1  0.77706400  0.17827500  0.73032000  1
  C  859  1  0.78771400  0.16772000  0.75053900  1
  C  860  1  0.77764900  0.14711400  0.76090100  1
  C  861  1  0.75687500  0.13702600  0.75092000  1
  C  862  1  0.74612500  0.14748300  0.73072600  1
  C  863  1  0.75629300  0.16807700  0.72043900  1
  C  868  1  0.79674100  0.21308500  0.71070400  1
  C  869  1  0.78696500  0.19673300  0.72020400  1
  C  870  1  0.71109600  0.12812800  0.71124400  1
  C  871  1  0.72754400  0.13752400  0.72094700  1
  C  872  1  0.78795800  0.13683600  0.77902900  1
  C  873  1  0.79745600  0.12679800  0.79521800  1
  C  877  1  0.04519100  0.88044900  0.81168300  1
  C  878  1  0.15844100  0.87987500  0.69768700  1
  C  879  1  0.04581100  0.76537800  0.69985600  1
  C  880  1  0.15830100  0.88054300  0.67255100  1
  C  881  1  0.17650000  0.89250600  0.66013700  1
  C  882  1  0.19525600  0.90379200  0.67248500  1
  C  883  1  0.19528200  0.90310400  0.69768900  1
  C  884  1  0.17705500  0.89124600  0.71019900  1
  C  885  1  0.05691400  0.89953200  0.82308300  1
  C  886  1  0.04513000  0.91286100  0.84074500  1
  C  887  1  0.02134700  0.90754300  0.84731100  1
  C  888  1  0.00996200  0.88809900  0.83614500  1
  C  889  1  0.02166800  0.87469200  0.81845600  1
  C  890  1  0.02367200  0.75796700  0.70914600  1
  C  891  1  0.01029100  0.74038800  0.69733500  1
  C  892  1  0.01857700  0.72998700  0.67587800  1
  C  893  1  0.04106500  0.73704800  0.66710300  1
  C  894  1  0.05455900  0.75463800  0.67886600  1
  C  906  1  0.07658800  0.81794400  0.72938100  1
  C  907  1  0.06601300  0.82825900  0.74976100  1
  C  908  1  0.07570700  0.84914100  0.75991100  1
  C  909  1  0.09603700  0.85974700  0.74952900  1
  C  910  1  0.10669500  0.84953000  0.72914800  1
  C  911  1  0.09689800  0.82864900  0.71910200  1
  C  916  1  0.05741600  0.78268300  0.71013300  1
  C  917  1  0.06698800  0.79924200  0.71946700  1
  C  918  1  0.14118800  0.86933300  0.70913700  1
  C  919  1  0.12492700  0.85981300  0.71903600  1
  C  920  1  0.06537500  0.85914700  0.77819000  1
  C  921  1  0.05574200  0.86891900  0.79447000  1
  N  316  1  0.71488800  0.91491000  0.93139400  1
  N  317  1  0.92137200  0.71486200  0.92488300  1
  N  318  1  0.91444400  0.92212600  0.72523000  1
  N  364  1  0.28104300  0.08037900  0.92934400  1
  N  365  1  0.07710100  0.28247000  0.92554100  1
  N  366  1  0.08000900  0.07651200  0.72494500  1
  N  412  1  0.71414900  0.08074300  0.08739900  1
  N  413  1  0.91949800  0.28091600  0.09037900  1
  N  414  1  0.91492800  0.07620400  0.29192100  1
  N  460  1  0.28238800  0.91558300  0.08692400  1
  N  461  1  0.07741600  0.71429400  0.09042500  1
  N  462  1  0.07978900  0.92012100  0.29034300  1
  N  778  1  0.64365700  0.91491000  0.50396300  1
  N  779  1  0.85014100  0.71486200  0.49745200  1
  N  780  1  0.84321300  0.92212600  0.29779900  1
  N  826  1  0.20981200  0.08037900  0.50191300  1
  N  827  1  0.00587000  0.28247000  0.49811000  1
  N  828  1  0.00877800  0.07651200  0.29751400  1
  N  874  1  0.64291800  0.08074300  0.65996800  1
  N  875  1  0.84826700  0.28091600  0.66294800  1
  N  876  1  0.84369700  0.07620400  0.86449000  1
  N  922  1  0.21115700  0.91558300  0.65949300  1
  N  923  1  0.00618500  0.71429400  0.66299400  1
  N  924  1  0.00855800  0.92012100  0.86291200  1
