# generated using pymatgen
data_H13(C10N3)2
_symmetry_space_group_name_H-M   'P 1'
_cell_length_a   55.34880000
_cell_length_b   55.34870000
_cell_length_c   64.13840000
_cell_angle_alpha   90.00060000
_cell_angle_beta   90.00000000
_cell_angle_gamma   90.00000000
_symmetry_Int_Tables_number   1
_chemical_formula_structural   H13(C10N3)2
_chemical_formula_sum   'H416 C640 N192'
_cell_volume   196486.97029218
_cell_formula_units_Z   32
loop_
 _symmetry_equiv_pos_site_id
 _symmetry_equiv_pos_as_xyz
  1  'x, y, z'
loop_
 _atom_site_type_symbol
 _atom_site_label
 _atom_site_symmetry_multiplicity
 _atom_site_fract_x
 _atom_site_fract_y
 _atom_site_fract_z
 _atom_site_occupancy
  H  7  1  0.17052700  0.41819900  0.89686100  1
  H  16  1  0.19108600  0.39726100  0.84694700  1
  H  19  1  0.16116200  0.35039800  0.85327400  1
  H  20  1  0.17356100  0.32769700  0.86595100  1
  H  21  1  0.10082700  0.39951000  0.87840200  1
  H  22  1  0.12389800  0.38803600  0.89121800  1
  H  23  1  0.11299200  0.43281800  0.80761900  1
  H  24  1  0.14038200  0.43307500  0.79746300  1
  H  25  1  0.20997400  0.34132400  0.93523200  1
  H  26  1  0.20903400  0.36849000  0.94574700  1
  H  37  1  0.32664800  0.53038600  0.39685300  1
  H  46  1  0.30610100  0.55130500  0.34694000  1
  H  49  1  0.33601600  0.59818800  0.35326700  1
  H  50  1  0.32361900  0.62089000  0.36594600  1
  H  51  1  0.39635400  0.54909400  0.37841000  1
  H  52  1  0.37327800  0.56056700  0.39121800  1
  H  53  1  0.38422000  0.51578800  0.30761900  1
  H  54  1  0.35683200  0.51551500  0.29746100  1
  H  55  1  0.28724900  0.60727100  0.43524800  1
  H  56  1  0.28818700  0.58010700  0.44576300  1
  H  67  1  0.80503400  0.89718400  0.14616500  1
  H  76  1  0.82517900  0.91698700  0.09651200  1
  H  79  1  0.87400400  0.88921600  0.10376700  1
  H  80  1  0.89620900  0.90179800  0.11693700  1
  H  81  1  0.83004300  0.82726700  0.12886000  1
  H  82  1  0.83881700  0.85144900  0.14171100  1
  H  83  1  0.80102900  0.83530800  0.05622600  1
  H  84  1  0.79874200  0.86242500  0.04574200  1
  H  85  1  0.88041500  0.93759000  0.18605100  1
  H  86  1  0.85303200  0.93627500  0.19610100  1
  H  97  1  0.69218100  0.05138300  0.64619500  1
  H  106  1  0.67202000  0.03160500  0.59651900  1
  H  109  1  0.62323700  0.05943200  0.60377400  1
  H  110  1  0.60101400  0.04686500  0.61693300  1
  H  111  1  0.66722300  0.12132500  0.62887600  1
  H  112  1  0.65846800  0.09714600  0.64173900  1
  H  113  1  0.69615200  0.11328000  0.55622200  1
  H  114  1  0.69840300  0.08616600  0.54572600  1
  H  115  1  0.61676100  0.01095400  0.68599900  1
  H  116  1  0.64414200  0.01223600  0.69606100  1
  H  127  1  0.32551000  0.41688200  0.59698600  1
  H  136  1  0.30453000  0.39625600  0.64688900  1
  H  139  1  0.33452200  0.34955200  0.64113600  1
  H  140  1  0.32303700  0.32653600  0.62824900  1
  H  141  1  0.39498200  0.39921300  0.61586700  1
  H  142  1  0.37225600  0.38681300  0.60322800  1
  H  143  1  0.38152900  0.43555200  0.68519600  1
  H  144  1  0.35438000  0.43465100  0.69575000  1
  H  145  1  0.28975100  0.33898800  0.55749100  1
  H  146  1  0.28960900  0.36640200  0.54738400  1
  H  157  1  0.17171300  0.53170300  0.09699900  1
  H  166  1  0.19267800  0.55234300  0.14690100  1
  H  169  1  0.16268700  0.59904700  0.14113000  1
  H  170  1  0.17417200  0.62205900  0.12824100  1
  H  171  1  0.10223600  0.54937300  0.11585800  1
  H  172  1  0.12496700  0.56176900  0.10322200  1
  H  173  1  0.11565700  0.51309600  0.18522000  1
  H  174  1  0.14280300  0.51400300  0.19577700  1
  H  175  1  0.20742600  0.60959600  0.05747100  1
  H  176  1  0.20757600  0.58218000  0.04737000  1
  H  187  1  0.69115800  0.89844800  0.34789000  1
  H  196  1  0.67234500  0.91856500  0.39731000  1
  H  199  1  0.62280700  0.89060000  0.39103300  1
  H  200  1  0.60022800  0.90234400  0.37776400  1
  H  201  1  0.66595500  0.82838000  0.36606300  1
  H  202  1  0.65671100  0.85240700  0.35323300  1
  H  203  1  0.69865800  0.83738700  0.43745300  1
  H  204  1  0.70060000  0.86455100  0.44786000  1
  H  205  1  0.61463100  0.93552000  0.30729500  1
  H  206  1  0.64226100  0.93543100  0.29763600  1
  H  217  1  0.80603900  0.05014000  0.84791200  1
  H  226  1  0.82483600  0.03002200  0.89735500  1
  H  229  1  0.87436900  0.05797900  0.89108300  1
  H  230  1  0.89695700  0.04625000  0.87781400  1
  H  231  1  0.83125200  0.12019800  0.86609400  1
  H  232  1  0.84048100  0.09616500  0.85326100  1
  H  233  1  0.79855700  0.11121900  0.93748700  1
  H  234  1  0.79660600  0.08405800  0.94789600  1
  H  235  1  0.88257700  0.01301700  0.80737100  1
  H  236  1  0.85495800  0.01312200  0.79769100  1
  H  247  1  0.82511300  0.53058800  0.10091900  1
  H  256  1  0.80569400  0.55050400  0.15072000  1
  H  259  1  0.83345200  0.59934900  0.14352300  1
  H  260  1  0.82093200  0.62165800  0.13044500  1
  H  261  1  0.89521200  0.55564400  0.11800100  1
  H  262  1  0.87093100  0.56432200  0.10524600  1
  H  263  1  0.88766300  0.52664900  0.19068000  1
  H  264  1  0.86060900  0.52425300  0.20126900  1
  H  265  1  0.78488200  0.60628800  0.06136700  1
  H  266  1  0.78603900  0.57893000  0.05123800  1
  H  277  1  0.67209000  0.41799700  0.60093500  1
  H  286  1  0.69150200  0.39808000  0.65073400  1
  H  289  1  0.66374900  0.34923000  0.64352900  1
  H  290  1  0.67626900  0.32692200  0.63044900  1
  H  291  1  0.60199300  0.39294900  0.61799600  1
  H  292  1  0.62627500  0.38426000  0.60524900  1
  H  293  1  0.60952500  0.42198000  0.69066700  1
  H  294  1  0.63657600  0.42437200  0.70126500  1
  H  295  1  0.71227500  0.34228900  0.56135200  1
  H  296  1  0.71111900  0.36964700  0.55122400  1
  H  307  1  0.19250800  0.04902800  0.85046900  1
  H  316  1  0.17364300  0.03139400  0.89978100  1
  H  319  1  0.12525700  0.06362700  0.89356600  1
  H  320  1  0.10162100  0.05418100  0.88033400  1
  H  321  1  0.16994900  0.12170200  0.86855000  1
  H  322  1  0.16087200  0.09785900  0.85541300  1
  H  323  1  0.19944100  0.11202200  0.94088700  1
  H  324  1  0.20156200  0.08469900  0.95099500  1
  H  325  1  0.11249800  0.02140900  0.80920800  1
  H  326  1  0.13987100  0.01978200  0.79918100  1
  H  337  1  0.30470400  0.89954300  0.35043800  1
  H  346  1  0.32360200  0.91718400  0.39976100  1
  H  349  1  0.37195700  0.88494000  0.39353300  1
  H  350  1  0.39559300  0.89438100  0.38029800  1
  H  351  1  0.32727700  0.82686700  0.36854400  1
  H  352  1  0.33632200  0.85070900  0.35538600  1
  H  353  1  0.29784400  0.83656300  0.44089200  1
  H  354  1  0.29574800  0.86388500  0.45100400  1
  H  355  1  0.38471600  0.92717800  0.30918100  1
  H  356  1  0.35734300  0.92880600  0.29915500  1
  H  367  1  0.67340000  0.53184200  0.39954100  1
  H  376  1  0.69326100  0.55030400  0.34995600  1
  H  379  1  0.66531100  0.59983800  0.35602100  1
  H  380  1  0.67690200  0.62257400  0.36919100  1
  H  381  1  0.60320700  0.55691000  0.38145200  1
  H  382  1  0.62729100  0.56618200  0.39418000  1
  H  383  1  0.61190100  0.52390900  0.31012900  1
  H  384  1  0.63902900  0.52186900  0.29966500  1
  H  385  1  0.71002400  0.60884500  0.43976900  1
  H  386  1  0.71006400  0.58128400  0.44957900  1
  H  397  1  0.82379400  0.41674300  0.89951900  1
  H  406  1  0.80394300  0.39825800  0.84993700  1
  H  409  1  0.83189900  0.34873000  0.85602100  1
  H  410  1  0.82030800  0.32600000  0.86919600  1
  H  411  1  0.89399000  0.39169600  0.88145600  1
  H  412  1  0.86990500  0.38241500  0.89418200  1
  H  413  1  0.88530700  0.42468800  0.81012900  1
  H  414  1  0.85818300  0.42671200  0.79965500  1
  H  415  1  0.78722200  0.33974300  0.93978800  1
  H  416  1  0.78717700  0.36730800  0.94959200  1
  H  427  1  0.30590500  0.04872100  0.64993200  1
  H  436  1  0.32360200  0.02992900  0.60060300  1
  H  439  1  0.37246700  0.06155800  0.60568600  1
  H  440  1  0.39630100  0.05261500  0.61891200  1
  H  441  1  0.32852900  0.12070900  0.63073600  1
  H  442  1  0.33812100  0.09705700  0.64386100  1
  H  443  1  0.29564100  0.11002000  0.55962400  1
  H  444  1  0.29405500  0.08268100  0.54952300  1
  H  445  1  0.38646500  0.02324200  0.69126300  1
  H  446  1  0.35911700  0.02107200  0.70130700  1
  H  457  1  0.19126200  0.89984200  0.14991800  1
  H  466  1  0.17357400  0.91865700  0.10057100  1
  H  469  1  0.12470400  0.88706800  0.10565300  1
  H  470  1  0.10087200  0.89600400  0.11888400  1
  H  471  1  0.16858900  0.82787800  0.13070300  1
  H  472  1  0.15902200  0.85153600  0.14383600  1
  H  473  1  0.20149500  0.83854600  0.05959800  1
  H  474  1  0.20309400  0.86588300  0.04949700  1
  H  475  1  0.11070400  0.92535500  0.19124000  1
  H  476  1  0.13804700  0.92748700  0.20129900  1
  H  487  1  0.29095300  0.44368100  0.70573600  1
  H  492  1  0.28134300  0.36886500  0.71618300  1
  H  497  1  0.24399400  0.47967000  0.75910100  1
  H  498  1  0.26999500  0.47276800  0.72970500  1
  H  499  1  0.21816200  0.46289100  0.78812400  1
  H  500  1  0.21273100  0.38700500  0.79369300  1
  H  503  1  0.20323700  0.43866900  0.82251800  1
  H  504  1  0.30459600  0.38250100  0.68652800  1
  H  511  1  0.20626800  0.50491200  0.20572700  1
  H  516  1  0.21583700  0.57972700  0.21622000  1
  H  521  1  0.25322000  0.46890500  0.25908500  1
  H  522  1  0.22722600  0.47581900  0.22968600  1
  H  523  1  0.27904100  0.48567300  0.28812200  1
  H  524  1  0.28442900  0.56155800  0.29374000  1
  H  527  1  0.29392000  0.50993300  0.32255100  1
  H  528  1  0.19263300  0.56609700  0.18653100  1
  H  535  1  0.78090000  0.01933300  0.95743100  1
  H  540  1  0.85571100  0.00797600  0.96648500  1
  H  545  1  0.74505300  0.96961400  0.00898900  1
  H  546  1  0.75188100  0.99729300  0.98074300  1
  H  547  1  0.76190400  0.94217100  0.03683800  1
  H  548  1  0.83777200  0.93513000  0.04107000  1
  H  551  1  0.78508600  0.92555800  0.06997900  1
  H  552  1  0.84217700  0.03358600  0.93845700  1
  H  559  1  0.71628300  0.92922900  0.45742700  1
  H  564  1  0.64147200  0.94070100  0.46638400  1
  H  569  1  0.75211400  0.97892500  0.50901200  1
  H  570  1  0.74529500  0.95124900  0.48076200  1
  H  571  1  0.73525200  0.00638500  0.53684500  1
  H  572  1  0.65938500  0.01354400  0.54096900  1
  H  575  1  0.71206400  0.02301600  0.56994600  1
  H  576  1  0.65501000  0.91501700  0.43841000  1
  H  583  1  0.70347700  0.50629400  0.28972800  1
  H  588  1  0.71497700  0.58110300  0.28080200  1
  H  593  1  0.75326300  0.47045800  0.23822200  1
  H  594  1  0.72554200  0.47728300  0.26643800  1
  H  595  1  0.78073400  0.48730900  0.21040400  1
  H  596  1  0.78793400  0.56317000  0.20628400  1
  H  599  1  0.79731800  0.51046200  0.17730400  1
  H  600  1  0.68899600  0.56759200  0.30856900  1
  H  607  1  0.79371500  0.44228200  0.78973000  1
  H  612  1  0.78225700  0.36747200  0.78075500  1
  H  617  1  0.74391800  0.47813200  0.73824100  1
  H  618  1  0.77164100  0.47129900  0.76645400  1
  H  619  1  0.71644900  0.46129100  0.71041500  1
  H  620  1  0.70929300  0.38542900  0.70624500  1
  H  623  1  0.69990300  0.43811400  0.67728700  1
  H  624  1  0.80820700  0.38097800  0.80854700  1
  H  631  1  0.21808600  0.93073600  0.04072700  1
  H  636  1  0.14326100  0.94175300  0.03150000  1
  H  641  1  0.25384600  0.97870500  0.98792900  1
  H  642  1  0.24705100  0.95199900  0.01686500  1
  H  643  1  0.23699500  0.00531100  0.95950600  1
  H  644  1  0.16113900  0.01224100  0.95509700  1
  H  647  1  0.21343400  0.02115100  0.92591500  1
  H  648  1  0.15699700  0.91738300  0.06039300  1
  H  655  1  0.27910400  0.01787100  0.54070900  1
  H  660  1  0.35393700  0.00679000  0.53157700  1
  H  665  1  0.24339500  0.96989800  0.48788600  1
  H  666  1  0.25016100  0.99660900  0.51682300  1
  H  667  1  0.26027500  0.94328300  0.45948000  1
  H  668  1  0.33613400  0.93628700  0.45517500  1
  H  671  1  0.28385800  0.92743600  0.42592700  1
  H  672  1  0.34018300  0.03123500  0.56040900  1
  H  679  1  0.78949100  0.94492400  0.20484800  1
  H  684  1  0.78017600  0.87006800  0.21522800  1
  H  689  1  0.74441500  0.98069300  0.25949700  1
  H  690  1  0.76937000  0.97389700  0.22942000  1
  H  691  1  0.71946800  0.96384500  0.28902700  1
  H  692  1  0.71407900  0.88796100  0.29454700  1
  H  695  1  0.70523600  0.93919500  0.32375300  1
  H  696  1  0.80201500  0.88408800  0.18469600  1
  H  703  1  0.70763000  0.00366700  0.70491300  1
  H  708  1  0.71701400  0.07852400  0.71524200  1
  H  713  1  0.75275300  0.96790900  0.75953700  1
  H  714  1  0.72777000  0.97469800  0.72947700  1
  H  715  1  0.77772900  0.98476100  0.78904800  1
  H  716  1  0.78318400  0.06064600  0.79451600  1
  H  719  1  0.79196100  0.00944500  0.82376200  1
  H  720  1  0.69508600  0.06450800  0.68476600  1
  H  727  1  0.27920700  0.51673300  0.45567200  1
  H  732  1  0.35402000  0.50718100  0.46619000  1
  H  737  1  0.24318300  0.46984500  0.50906000  1
  H  738  1  0.25010700  0.49580200  0.47963800  1
  H  739  1  0.25994100  0.44405700  0.53811900  1
  H  740  1  0.33582500  0.43868500  0.54376600  1
  H  743  1  0.28415600  0.42915700  0.57255100  1
  H  744  1  0.34039400  0.53040100  0.43650300  1
  H  751  1  0.21797900  0.43186400  0.95566500  1
  H  756  1  0.14317000  0.44140200  0.96620900  1
  H  761  1  0.25402000  0.47874100  0.00905100  1
  H  762  1  0.24708800  0.45279200  0.97962500  1
  H  763  1  0.23727200  0.50452200  0.03812100  1
  H  764  1  0.16139000  0.50987900  0.04379500  1
  H  767  1  0.21306000  0.51941300  0.07256600  1
  H  768  1  0.15678900  0.41821100  0.93650000  1
  H  775  1  0.20476500  0.00461700  0.79066400  1
  H  780  1  0.21595600  0.07942600  0.78149100  1
  H  785  1  0.25287300  0.96878100  0.73800600  1
  H  786  1  0.22606600  0.97562000  0.76686400  1
  H  787  1  0.27960900  0.98558300  0.70965900  1
  H  788  1  0.28671800  0.06142500  0.70528400  1
  H  791  1  0.29561200  0.00905200  0.67614300  1
  H  792  1  0.19147700  0.06570500  0.81034000  1
  H  799  1  0.29247100  0.94395300  0.29061200  1
  H  804  1  0.28122600  0.86914600  0.28148700  1
  H  809  1  0.24433900  0.97978000  0.23796500  1
  H  810  1  0.27116400  0.97294500  0.26681200  1
  H  811  1  0.21758200  0.96297000  0.20963600  1
  H  812  1  0.21041800  0.88712900  0.20531200  1
  H  815  1  0.20159200  0.93945300  0.17611900  1
  H  816  1  0.30575400  0.88286400  0.31029900  1
  H  823  1  0.71975700  0.43303700  0.54210900  1
  H  828  1  0.64490300  0.44270500  0.53196100  1
  H  833  1  0.75552100  0.47850800  0.48771300  1
  H  834  1  0.74872200  0.45330500  0.51763200  1
  H  835  1  0.73867900  0.50370700  0.45834300  1
  H  836  1  0.66280000  0.50945900  0.45304700  1
  H  839  1  0.71401500  0.51807500  0.42373100  1
  H  840  1  0.65885600  0.42028000  0.56213100  1
  H  847  1  0.77744600  0.51554500  0.04209900  1
  H  852  1  0.85230000  0.50590400  0.03193000  1
  H  857  1  0.74167800  0.47007500  0.98770500  1
  H  858  1  0.74847900  0.49527600  0.01762600  1
  H  859  1  0.75851700  0.44488200  0.95832900  1
  H  860  1  0.83439600  0.43915600  0.95301300  1
  H  863  1  0.78318200  0.43052300  0.92370700  1
  H  864  1  0.83834900  0.52830900  0.06211400  1
  H  871  1  0.21786400  0.28997800  0.92103500  1
  H  876  1  0.14698000  0.27724200  0.89922400  1
  H  881  1  0.25180300  0.21124300  0.92395500  1
  H  882  1  0.24533900  0.25409500  0.92607600  1
  H  883  1  0.23592700  0.16975400  0.91526900  1
  H  884  1  0.16436300  0.16416700  0.89281600  1
  H  887  1  0.21962400  0.13073900  0.89925700  1
  H  888  1  0.16077900  0.31760500  0.91628600  1
  H  895  1  0.27932500  0.65861700  0.42103000  1
  H  900  1  0.35021300  0.67133400  0.39922000  1
  H  905  1  0.24540900  0.73736300  0.42395200  1
  H  906  1  0.25186100  0.69450900  0.42607200  1
  H  907  1  0.26129600  0.77884700  0.41526100  1
  H  908  1  0.33286400  0.78441100  0.39281000  1
  H  911  1  0.27761800  0.81785600  0.39922300  1
  H  912  1  0.33640600  0.63097700  0.41627800  1
  H  919  1  0.93302500  0.94548200  0.17214700  1
  H  924  1  0.94501400  0.87426200  0.15084400  1
  H  929  1  0.01207200  0.97876400  0.17439800  1
  H  930  1  0.96918800  0.97267700  0.17683500  1
  H  931  1  0.05334200  0.96247600  0.16555900  1
  H  932  1  0.05819300  0.89063300  0.14364600  1
  H  935  1  0.09207900  0.94577500  0.14955200  1
  H  936  1  0.90479400  0.88848500  0.16745400  1
  H  943  1  0.56418700  0.00315500  0.67209400  1
  H  948  1  0.55216200  0.07441300  0.65090000  1
  H  953  1  0.48514900  0.96985600  0.67435700  1
  H  954  1  0.52803300  0.97594800  0.67677600  1
  H  955  1  0.44387000  0.98614300  0.66555500  1
  H  956  1  0.43898000  0.05802400  0.64374600  1
  H  959  1  0.40512200  0.00283600  0.64962200  1
  H  960  1  0.59241900  0.06016100  0.66743600  1
  H  967  1  0.28011400  0.28780000  0.57423200  1
  H  972  1  0.35110600  0.27565800  0.59602200  1
  H  977  1  0.24575600  0.20921100  0.57400300  1
  H  978  1  0.25245900  0.25189400  0.57043100  1
  H  979  1  0.26145500  0.16804000  0.58391700  1
  H  980  1  0.33316200  0.16296100  0.60610300  1
  H  983  1  0.27776400  0.12953100  0.60100500  1
  H  984  1  0.33754100  0.31567500  0.57893900  1
  H  991  1  0.21708900  0.66079300  0.07422200  1
  H  996  1  0.14609300  0.67291300  0.09601400  1
  H  1001  1  0.25142000  0.73939500  0.07399800  1
  H  1002  1  0.24473300  0.69671100  0.07042400  1
  H  1003  1  0.23570900  0.78056100  0.08391500  1
  H  1004  1  0.16399800  0.78561300  0.10610000  1
  H  1007  1  0.21937400  0.81905900  0.10103600  1
  H  1008  1  0.15967000  0.63290100  0.07893400  1
  H  1015  1  0.56226100  0.94472700  0.32360300  1
  H  1020  1  0.55087900  0.87337000  0.34480300  1
  H  1025  1  0.48331800  0.97826700  0.32377200  1
  H  1026  1  0.52605500  0.97203400  0.32004500  1
  H  1027  1  0.44235500  0.96207200  0.33368300  1
  H  1028  1  0.43802200  0.89006300  0.35524700  1
  H  1031  1  0.40410400  0.94529100  0.35067600  1
  H  1032  1  0.59078800  0.88746100  0.32822300  1
  H  1039  1  0.93492500  0.00387000  0.82366900  1
  H  1044  1  0.94633600  0.07524800  0.84480800  1
  H  1049  1  0.01386100  0.97031600  0.82381900  1
  H  1050  1  0.97112700  0.97655500  0.82010600  1
  H  1051  1  0.05483300  0.98650800  0.83370800  1
  H  1052  1  0.05919300  0.05853900  0.85522300  1
  H  1055  1  0.09309500  0.00327700  0.85064200  1
  H  1056  1  0.90639700  0.06113800  0.82826800  1
  H  1063  1  0.77790600  0.65926600  0.07498800  1
  H  1068  1  0.84891100  0.67000400  0.09730000  1
  H  1073  1  0.74584100  0.73883500  0.07289400  1
  H  1074  1  0.75131300  0.69588200  0.07026000  1
  H  1075  1  0.76266300  0.77978800  0.08206000  1
  H  1076  1  0.83413200  0.78336900  0.10503000  1
  H  1079  1  0.77977500  0.81827500  0.09808500  1
  H  1080  1  0.83437700  0.63022200  0.07994900  1
  H  1087  1  0.71930200  0.28932200  0.57499100  1
  H  1092  1  0.64830300  0.27857400  0.59731300  1
  H  1097  1  0.75137500  0.20975700  0.57288800  1
  H  1098  1  0.74589900  0.25271000  0.57025800  1
  H  1099  1  0.73456100  0.16880200  0.58205700  1
  H  1100  1  0.66309600  0.16521200  0.60503900  1
  H  1103  1  0.71745200  0.13031200  0.59809900  1
  H  1104  1  0.66282500  0.31836000  0.57996500  1
  H  1111  1  0.71849200  0.66141200  0.42343300  1
  H  1116  1  0.64731100  0.67168800  0.40139000  1
  H  1121  1  0.75105000  0.74076500  0.42300400  1
  H  1122  1  0.74530800  0.69799100  0.42696400  1
  H  1123  1  0.73443300  0.78143800  0.41276500  1
  H  1124  1  0.66272800  0.78468200  0.39032500  1
  H  1127  1  0.71735400  0.81947100  0.39579900  1
  H  1128  1  0.66164200  0.63216400  0.41854700  1
  H  1135  1  0.77871200  0.28717800  0.92344200  1
  H  1140  1  0.84989000  0.27689900  0.90139000  1
  H  1145  1  0.74615500  0.20782500  0.92302100  1
  H  1146  1  0.75189900  0.25059900  0.92698000  1
  H  1147  1  0.76277000  0.16715100  0.91278300  1
  H  1148  1  0.83447100  0.16390500  0.89033400  1
  H  1151  1  0.77985200  0.12911700  0.89579400  1
  H  1152  1  0.83556300  0.31642500  0.91854300  1
  H  1159  1  0.43329000  0.44291100  0.67126300  1
  H  1164  1  0.44497600  0.37236000  0.64824400  1
  H  1169  1  0.51245200  0.47589800  0.67399700  1
  H  1170  1  0.46954800  0.46989600  0.67635500  1
  H  1171  1  0.55366900  0.45964800  0.66490800  1
  H  1172  1  0.55819800  0.38855300  0.64120600  1
  H  1175  1  0.59248100  0.44309700  0.64879700  1
  H  1176  1  0.40505100  0.38624700  0.66613100  1
  H  1183  1  0.06391700  0.50570100  0.17125000  1
  H  1188  1  0.05222200  0.57624500  0.14822200  1
  H  1193  1  0.98476000  0.47271000  0.17401000  1
  H  1194  1  0.02766400  0.47871400  0.17635600  1
  H  1195  1  0.94353800  0.48895500  0.16492600  1
  H  1196  1  0.93899800  0.56004400  0.14121400  1
  H  1199  1  0.90472200  0.50549900  0.14882300  1
  H  1200  1  0.09214900  0.56237100  0.16609700  1
  H  1207  1  0.06150900  0.44195900  0.82426100  1
  H  1212  1  0.05029800  0.37121100  0.84699500  1
  H  1217  1  0.98259000  0.47556800  0.82434200  1
  H  1218  1  0.02529600  0.46923000  0.82050100  1
  H  1219  1  0.94167000  0.45956700  0.83462800  1
  H  1220  1  0.93751400  0.38821600  0.85778600  1
  H  1223  1  0.90334700  0.44304900  0.85180200  1
  H  1224  1  0.08992500  0.38486600  0.82924100  1
  H  1231  1  0.43568400  0.50664400  0.32426600  1
  H  1236  1  0.44689800  0.57737800  0.34702900  1
  H  1241  1  0.51460400  0.47303600  0.32432500  1
  H  1242  1  0.47189600  0.47937500  0.32049100  1
  H  1243  1  0.55552600  0.48902900  0.33461200  1
  H  1244  1  0.55968500  0.56037000  0.35779700  1
  H  1247  1  0.59384800  0.50553700  0.35179200  1
  H  1248  1  0.40727000  0.56373500  0.32927100  1
  C  1  1  0.16919600  0.38490900  0.88081700  1
  C  2  1  0.17484700  0.40019000  0.89765000  1
  C  3  1  0.18605500  0.39120400  0.91576500  1
  C  4  1  0.19286600  0.36653800  0.91700200  1
  C  5  1  0.18676100  0.35098900  0.90009100  1
  C  6  1  0.17510100  0.35990700  0.88180100  1
  C  9  1  0.15797500  0.39583700  0.86324600  1
  C  10  1  0.13285900  0.40124100  0.86229600  1
  C  11  1  0.12354100  0.41206000  0.84376000  1
  C  12  1  0.13885900  0.41807000  0.82666700  1
  C  13  1  0.16388000  0.41293700  0.82836200  1
  C  14  1  0.17307200  0.40163800  0.84633400  1
  C  31  1  0.32798000  0.56367800  0.38081100  1
  C  32  1  0.32232500  0.54839500  0.39764000  1
  C  33  1  0.31112000  0.55738200  0.41575700  1
  C  34  1  0.30431400  0.58204900  0.41699700  1
  C  35  1  0.31041700  0.59759600  0.40008600  1
  C  36  1  0.32207600  0.58868000  0.38179500  1
  C  39  1  0.33920900  0.55274900  0.36324100  1
  C  40  1  0.36432600  0.54735000  0.36229800  1
  C  41  1  0.37365000  0.53653000  0.34376600  1
  C  42  1  0.35833800  0.53050600  0.32667300  1
  C  43  1  0.33333333  0.53563000  0.32836300  1
  C  44  1  0.32411700  0.54694000  0.34632900  1
  C  61  1  0.83871200  0.89653200  0.13074500  1
  C  62  1  0.82291200  0.90191400  0.14728100  1
  C  63  1  0.83126400  0.91319600  0.16560300  1
  C  64  1  0.85581400  0.92033100  0.16730500  1
  C  65  1  0.87187400  0.91450900  0.15068000  1
  C  66  1  0.86359400  0.90277800  0.13220500  1
  C  69  1  0.82867000  0.88435600  0.11326000  1
  C  70  1  0.82552800  0.85885200  0.11247800  1
  C  71  1  0.81588600  0.84842000  0.09391200  1
  C  72  1  0.81030800  0.86282100  0.07612100  1
  C  73  1  0.81296600  0.88824700  0.07768600  1
  C  74  1  0.82224000  0.89868000  0.09602400  1
  C  91  1  0.65851300  0.05206500  0.63075800  1
  C  92  1  0.67429800  0.04666400  0.64730000  1
  C  93  1  0.66592600  0.03538300  0.66561500  1
  C  94  1  0.64136900  0.02826600  0.66730500  1
  C  95  1  0.62532300  0.03411300  0.65067600  1
  C  96  1  0.63362500  0.04584000  0.63220600  1
  C  99  1  0.66857100  0.06423500  0.61327900  1
  C  100  1  0.67171600  0.08973700  0.61249300  1
  C  101  1  0.68133500  0.10016700  0.59391900  1
  C  102  1  0.68688400  0.08576500  0.57612000  1
  C  103  1  0.68420100  0.06033800  0.57767900  1
  C  104  1  0.67498600  0.04990900  0.59603900  1
  C  121  1  0.32682900  0.38372500  0.61322700  1
  C  122  1  0.32110400  0.39887700  0.59633400  1
  C  123  1  0.30983900  0.38974500  0.57832800  1
  C  124  1  0.30461500  0.36474900  0.57658100  1
  C  125  1  0.31056500  0.34937400  0.59365200  1
  C  126  1  0.32138200  0.35861900  0.61221700  1
  C  129  1  0.33779800  0.39487900  0.63081400  1
  C  130  1  0.36280300  0.40076900  0.63176500  1
  C  131  1  0.37176400  0.41241300  0.65004900  1
  C  132  1  0.35625000  0.41852900  0.66697800  1
  C  133  1  0.33157200  0.41175400  0.66576800  1
  C  134  1  0.32254500  0.40055700  0.64765900  1
  C  151  1  0.17039000  0.56486500  0.11323300  1
  C  152  1  0.17612300  0.54970700  0.09634600  1
  C  153  1  0.18738600  0.55883600  0.07833700  1
  C  154  1  0.19260400  0.58383200  0.07658400  1
  C  155  1  0.18665300  0.59921100  0.09365100  1
  C  156  1  0.17583500  0.58997200  0.11221800  1
  C  159  1  0.15941600  0.55371800  0.13082000  1
  C  160  1  0.13441000  0.54782600  0.13176600  1
  C  161  1  0.12544500  0.53618800  0.15005100  1
  C  162  1  0.14095300  0.53008100  0.16698600  1
  C  163  1  0.16563200  0.53685300  0.16577900  1
  C  164  1  0.17466200  0.54804900  0.14767100  1
  C  181  1  0.65764900  0.89767300  0.36360100  1
  C  182  1  0.67328500  0.90330400  0.34701700  1
  C  183  1  0.66473000  0.91486500  0.32892600  1
  C  184  1  0.63982800  0.92037000  0.32677600  1
  C  185  1  0.62398100  0.91451500  0.34354500  1
  C  186  1  0.63265500  0.90348500  0.36221400  1
  C  189  1  0.66796900  0.88567100  0.38104800  1
  C  190  1  0.67105700  0.86016700  0.38201600  1
  C  191  1  0.68147100  0.84997400  0.40036900  1
  C  192  1  0.68769900  0.86458900  0.41786500  1
  C  193  1  0.68406300  0.88991400  0.41644200  1
  C  194  1  0.67485100  0.90020500  0.39802200  1
  C  211  1  0.83953700  0.05090200  0.86364000  1
  C  212  1  0.82391300  0.04528400  0.84704500  1
  C  213  1  0.83247900  0.03375600  0.82894300  1
  C  214  1  0.85738100  0.02823500  0.82680900  1
  C  215  1  0.87321700  0.03408100  0.84358700  1
  C  216  1  0.86453300  0.04509600  0.86225900  1
  C  219  1  0.82921200  0.06290800  0.88108200  1
  C  220  1  0.82613700  0.08841300  0.88204700  1
  C  221  1  0.81573200  0.09861700  0.90039800  1
  C  222  1  0.80949500  0.08400800  0.91789800  1
  C  223  1  0.81312700  0.05868200  0.91648100  1
  C  224  1  0.82231800  0.04838000  0.89805500  1
  C  241  1  0.82593800  0.56420100  0.11644400  1
  C  242  1  0.82044000  0.54848700  0.09987500  1
  C  243  1  0.80913800  0.55696100  0.08160700  1
  C  244  1  0.80211500  0.58155000  0.07998200  1
  C  245  1  0.80805300  0.59751800  0.09664100  1
  C  246  1  0.81979400  0.58911400  0.11507000  1
  C  249  1  0.83821700  0.55407100  0.13383500  1
  C  250  1  0.86373300  0.55102400  0.13451600  1
  C  251  1  0.87429700  0.54142200  0.15304000  1
  C  252  1  0.86000800  0.53579400  0.17088700  1
  C  253  1  0.83455800  0.53834300  0.16942600  1
  C  254  1  0.82400700  0.54757900  0.15112200  1
  C  271  1  0.67126600  0.38438300  0.61645500  1
  C  272  1  0.67677000  0.40010000  0.59989200  1
  C  273  1  0.68806700  0.39162600  0.58162000  1
  C  274  1  0.69508400  0.36703600  0.57999000  1
  C  275  1  0.68915100  0.35106700  0.59664900  1
  C  276  1  0.67741100  0.35947000  0.61507900  1
  C  279  1  0.65898300  0.39451000  0.63384500  1
  C  280  1  0.63346800  0.39756500  0.63451900  1
  C  281  1  0.62290200  0.40717400  0.65303900  1
  C  282  1  0.63718400  0.41280900  0.67088700  1
  C  283  1  0.66263400  0.41025300  0.66943400  1
  C  284  1  0.67318700  0.40099300  0.65113900  1
  C  301  1  0.15924000  0.05286500  0.86623300  1
  C  302  1  0.17422900  0.04610200  0.84952200  1
  C  303  1  0.16444700  0.03671100  0.83094900  1
  C  304  1  0.13919300  0.03275900  0.82914900  1
  C  305  1  0.12412800  0.03888000  0.84638500  1
  C  306  1  0.13380100  0.04947800  0.86486400  1
  C  309  1  0.17053600  0.06435900  0.88348200  1
  C  310  1  0.17402800  0.08979900  0.88457000  1
  C  311  1  0.18398200  0.09977000  0.90319900  1
  C  312  1  0.18963600  0.08496400  0.92071700  1
  C  313  1  0.18670000  0.05959000  0.91881500  1
  C  314  1  0.17702100  0.04961700  0.90043600  1
  C  331  1  0.33797100  0.89570700  0.36620200  1
  C  332  1  0.32298400  0.90247000  0.34949100  1
  C  333  1  0.33276600  0.91185900  0.33091700  1
  C  334  1  0.35802000  0.91581600  0.32911800  1
  C  335  1  0.37308300  0.90968600  0.34635600  1
  C  336  1  0.36341200  0.89909500  0.36483600  1
  C  339  1  0.32667700  0.88421900  0.38345400  1
  C  340  1  0.32319200  0.85878000  0.38455100  1
  C  341  1  0.31327100  0.84881100  0.40319200  1
  C  342  1  0.30763800  0.86362100  0.42071500  1
  C  343  1  0.31059000  0.88899600  0.41881500  1
  C  344  1  0.32020400  0.89896500  0.40040800  1
  C  361  1  0.67248800  0.56523600  0.38365500  1
  C  362  1  0.67816800  0.54974700  0.40032800  1
  C  363  1  0.68962800  0.55849100  0.41839500  1
  C  364  1  0.69500900  0.58343500  0.42042700  1
  C  365  1  0.68910200  0.59913200  0.40356500  1
  C  366  1  0.67815900  0.59027000  0.38492200  1
  C  369  1  0.66043700  0.55476500  0.36630500  1
  C  370  1  0.63492600  0.55171200  0.36541600  1
  C  371  1  0.62464400  0.54123300  0.34712800  1
  C  372  1  0.63918800  0.53489800  0.32961400  1
  C  373  1  0.66452600  0.53848600  0.33096600  1
  C  374  1  0.67490200  0.54777300  0.34932100  1
  C  391  1  0.82471000  0.38334400  0.88364400  1
  C  392  1  0.81902000  0.39884200  0.90030900  1
  C  393  1  0.80756600  0.39010200  0.91838100  1
  C  394  1  0.80219200  0.36515600  0.92042100  1
  C  395  1  0.80809700  0.34945400  0.90356300  1
  C  396  1  0.81904000  0.35831200  0.88491800  1
  C  399  1  0.83676400  0.39381000  0.86629200  1
  C  400  1  0.86227500  0.39687400  0.86541100  1
  C  401  1  0.87255400  0.40735100  0.84712300  1
  C  402  1  0.85801700  0.41368000  0.82960300  1
  C  403  1  0.83268100  0.41007900  0.83094900  1
  C  404  1  0.82230500  0.40077800  0.84929800  1
  C  421  1  0.33890300  0.05182500  0.63367700  1
  C  422  1  0.32413000  0.04535000  0.65061300  1
  C  423  1  0.33406900  0.03575900  0.66904200  1
  C  424  1  0.35944600  0.03290000  0.67100100  1
  C  425  1  0.37429200  0.03853300  0.65350100  1
  C  426  1  0.36435100  0.04842200  0.63483700  1
  C  429  1  0.32742900  0.06315200  0.61643400  1
  C  430  1  0.32394400  0.08858400  0.61515300  1
  C  431  1  0.31327700  0.09829800  0.59671800  1
  C  432  1  0.30713600  0.08328100  0.57945600  1
  C  433  1  0.31115400  0.05802900  0.58118100  1
  C  434  1  0.32065400  0.04820700  0.59969900  1
  C  451  1  0.15827000  0.89677000  0.13365300  1
  C  452  1  0.17304100  0.90322200  0.15059900  1
  C  453  1  0.16310400  0.91278200  0.16903900  1
  C  454  1  0.13772700  0.91567300  0.17098700  1
  C  455  1  0.12288600  0.91005700  0.15348000  1
  C  456  1  0.13282400  0.90018300  0.13481000  1
  C  459  1  0.16974000  0.88543800  0.11641100  1
  C  460  1  0.17320700  0.86000300  0.11512900  1
  C  461  1  0.18385800  0.85028100  0.09669400  1
  C  462  1  0.19001300  0.86529100  0.07943200  1
  C  463  1  0.18600200  0.89054600  0.08115300  1
  C  464  1  0.17653100  0.90038000  0.09967700  1
  C  481  1  0.28893700  0.40544200  0.70791600  1
  C  482  1  0.27831100  0.38664100  0.71969100  1
  C  484  1  0.25854000  0.41463300  0.74215800  1
  C  485  1  0.26850400  0.43446000  0.73108200  1
  C  486  1  0.28371200  0.42953600  0.71392000  1
  C  488  1  0.24326400  0.41868700  0.75935200  1
  C  489  1  0.21894200  0.40227000  0.78646700  1
  C  490  1  0.21249800  0.42557000  0.79357300  1
  C  491  1  0.22236200  0.44579800  0.78316100  1
  C  494  1  0.23774700  0.44262100  0.76578800  1
  C  495  1  0.24774300  0.46228400  0.75472600  1
  C  496  1  0.26296900  0.45823600  0.73749700  1
  C  501  1  0.19786000  0.42817700  0.81079200  1
  C  502  1  0.30368700  0.39968700  0.69115900  1
  C  505  1  0.20826500  0.54315200  0.20793000  1
  C  506  1  0.21887400  0.56194900  0.21972000  1
  C  508  1  0.23864500  0.53394900  0.24217900  1
  C  509  1  0.22869500  0.51412500  0.23108800  1
  C  510  1  0.21349700  0.51905500  0.21392300  1
  C  512  1  0.25391700  0.52988700  0.25937700  1
  C  513  1  0.27822600  0.54629600  0.28650400  1
  C  514  1  0.28468200  0.52299300  0.29359500  1
  C  515  1  0.27483000  0.50276900  0.28317100  1
  C  518  1  0.25944400  0.50595200  0.26579900  1
  C  519  1  0.24946300  0.48629300  0.25472100  1
  C  520  1  0.23424000  0.49034700  0.23749100  1
  C  525  1  0.29933100  0.52037900  0.31080800  1
  C  526  1  0.19352700  0.54891100  0.19116600  1
  C  529  1  0.81913800  0.01665600  0.95903100  1
  C  530  1  0.83794400  0.00504100  0.97009000  1
  C  532  1  0.81001400  0.98414900  0.99185400  1
  C  533  1  0.79017600  0.99514300  0.98154000  1
  C  534  1  0.79506300  0.01139300  0.96509000  1
  C  536  1  0.80599900  0.96782200  0.00832900  1
  C  537  1  0.82246400  0.94178400  0.03422400  1
  C  538  1  0.79920100  0.93546600  0.04153300  1
  C  539  1  0.77898100  0.94614700  0.03169400  1
  C  542  1  0.78210000  0.96233300  0.01485700  1
  C  543  1  0.76242100  0.97331100  0.00452800  1
  C  544  1  0.76642500  0.98953500  0.98797900  1
  C  549  1  0.79657400  0.92075400  0.05876900  1
  C  550  1  0.82488500  0.03204200  0.94267600  1
  C  553  1  0.67804700  0.93196200  0.45897800  1
  C  554  1  0.65923700  0.94361600  0.47000600  1
  C  556  1  0.68716200  0.96448700  0.49179000  1
  C  557  1  0.70700200  0.95345700  0.48150700  1
  C  558  1  0.70211600  0.93719800  0.46506000  1
  C  560  1  0.69117100  0.98081500  0.50826700  1
  C  561  1  0.67469700  0.00687400  0.53414000  1
  C  562  1  0.69795700  0.01314900  0.54148800  1
  C  563  1  0.71817800  0.00244300  0.53167200  1
  C  566  1  0.71506900  0.98626600  0.51482700  1
  C  567  1  0.73474700  0.97525700  0.50452600  1
  C  568  1  0.73074900  0.95903500  0.48797500  1
  C  573  1  0.70056400  0.02782800  0.55874600  1
  C  574  1  0.67230200  0.91656500  0.44263000  1
  C  577  1  0.70622100  0.54452900  0.28819200  1
  C  578  1  0.71789400  0.56333700  0.27718000  1
  C  580  1  0.73881800  0.53541400  0.25543200  1
  C  581  1  0.72776400  0.51557600  0.26569600  1
  C  582  1  0.71147000  0.52046000  0.28211500  1
  C  584  1  0.75517200  0.53140100  0.23897500  1
  C  585  1  0.78126200  0.54786200  0.21311600  1
  C  586  1  0.78752400  0.52459800  0.20576600  1
  C  587  1  0.77680800  0.50438300  0.21558200  1
  C  590  1  0.76062300  0.50750200  0.23241900  1
  C  591  1  0.74959500  0.48782500  0.24270600  1
  C  592  1  0.73334700  0.49182700  0.25923800  1
  C  597  1  0.80216000  0.52197600  0.18848200  1
  C  598  1  0.69078600  0.55026800  0.30451800  1
  C  601  1  0.79099100  0.40404400  0.78816900  1
  C  602  1  0.77933000  0.38523800  0.77714500  1
  C  604  1  0.75839700  0.41317000  0.75540900  1
  C  605  1  0.76944000  0.43300400  0.76568700  1
  C  606  1  0.78573100  0.42811700  0.78210600  1
  C  608  1  0.74204300  0.41718800  0.73895500  1
  C  609  1  0.71595900  0.40073500  0.71308600  1
  C  610  1  0.70968100  0.42400200  0.70575500  1
  C  611  1  0.72038900  0.44421400  0.71558100  1
  C  614  1  0.73657800  0.44109100  0.73241500  1
  C  615  1  0.74759500  0.46076600  0.74271400  1
  C  616  1  0.76384500  0.45675700  0.75924300  1
  C  621  1  0.69503200  0.42663100  0.68848000  1
  C  622  1  0.80642200  0.39830100  0.80449600  1
  C  625  1  0.17985200  0.93334500  0.03910800  1
  C  626  1  0.16101800  0.94461700  0.02782000  1
  C  628  1  0.18889800  0.96475600  0.00547500  1
  C  629  1  0.20875600  0.95412700  0.01604700  1
  C  630  1  0.20390900  0.93843100  0.03290300  1
  C  632  1  0.19289300  0.98049400  0.98856900  1
  C  633  1  0.17643200  0.00571600  0.96206300  1
  C  634  1  0.19969900  0.01182400  0.95464500  1
  C  635  1  0.21991600  0.00142600  0.96469800  1
  C  638  1  0.21679200  0.98576200  0.98189700  1
  C  639  1  0.23648200  0.97514900  0.99248700  1
  C  640  1  0.23249800  0.95950200  0.00944500  1
  C  645  1  0.20233700  0.02632100  0.93729000  1
  C  646  1  0.17416500  0.91828600  0.05570100  1
  C  649  1  0.31734000  0.01523100  0.53913700  1
  C  650  1  0.33618200  0.00393500  0.52787900  1
  C  652  1  0.30832300  0.98379800  0.50551300  1
  C  653  1  0.28845600  0.99445000  0.51605600  1
  C  654  1  0.29328900  0.01015700  0.53290700  1
  C  656  1  0.30434400  0.96805600  0.48860800  1
  C  657  1  0.32083300  0.94282100  0.46212400  1
  C  658  1  0.29757500  0.93673600  0.45467000  1
  C  659  1  0.27734700  0.94714800  0.46469800  1
  C  662  1  0.28045200  0.96280500  0.48190500  1
  C  663  1  0.26075400  0.97343800  0.49246600  1
  C  664  1  0.26472100  0.98908800  0.50942500  1
  C  669  1  0.29496400  0.92226300  0.43729700  1
  C  670  1  0.32301300  0.03030500  0.55572500  1
  C  673  1  0.78751100  0.90668500  0.20693800  1
  C  674  1  0.77722900  0.88782500  0.21886400  1
  C  676  1  0.75828200  0.91571200  0.24196700  1
  C  677  1  0.76787600  0.93558600  0.23070400  1
  C  678  1  0.78249200  0.93074700  0.21314800  1
  C  680  1  0.74364000  0.91970300  0.25958600  1
  C  681  1  0.72018000  0.90322600  0.28725400  1
  C  682  1  0.71399900  0.92651300  0.29454900  1
  C  683  1  0.72356200  0.94676300  0.28397000  1
  C  686  1  0.73838300  0.94362000  0.26623200  1
  C  687  1  0.74799800  0.96332300  0.25497500  1
  C  688  1  0.76260500  0.95933700  0.23734500  1
  C  693  1  0.69954700  0.92910800  0.31187600  1
  C  694  1  0.80192300  0.90104900  0.18994200  1
  C  697  1  0.70964300  0.04190600  0.70697900  1
  C  698  1  0.71995800  0.06076800  0.71888300  1
  C  700  1  0.73892100  0.03288500  0.74197800  1
  C  701  1  0.72929700  0.01300900  0.73073700  1
  C  702  1  0.71465700  0.01784500  0.71319500  1
  C  704  1  0.75357900  0.02889700  0.75958700  1
  C  705  1  0.77707000  0.04537900  0.78723200  1
  C  706  1  0.78323500  0.02209400  0.79454300  1
  C  707  1  0.77365000  0.00184300  0.78398000  1
  C  710  1  0.75882400  0.00498200  0.76624500  1
  C  711  1  0.74918100  0.98527700  0.75500800  1
  C  712  1  0.73455800  0.98925900  0.73738500  1
  C  717  1  0.79767200  0.01950600  0.81187700  1
  C  718  1  0.69520000  0.04754200  0.69000200  1
  C  721  1  0.31744700  0.51473800  0.45788500  1
  C  722  1  0.33624000  0.50414400  0.46968600  1
  C  724  1  0.30823200  0.48439800  0.49215800  1
  C  725  1  0.28841300  0.49433400  0.48105200  1
  C  726  1  0.29334900  0.50951200  0.46387500  1
  C  728  1  0.30416600  0.46915400  0.50936700  1
  C  729  1  0.32056700  0.44488400  0.53652300  1
  C  730  1  0.29726200  0.43843400  0.54361000  1
  C  731  1  0.27703900  0.44827000  0.53317200  1
  C  734  1  0.28022800  0.46363400  0.51578800  1
  C  735  1  0.26057300  0.47359800  0.50469600  1
  C  736  1  0.26463300  0.48879800  0.48745200  1
  C  741  1  0.29464200  0.42378500  0.56081900  1
  C  742  1  0.32320700  0.52947900  0.44112600  1
  C  745  1  0.17974000  0.43385400  0.95789100  1
  C  746  1  0.16095000  0.44444100  0.96970200  1
  C  748  1  0.18896500  0.46418200  0.99216700  1
  C  749  1  0.20878100  0.45425400  0.98105400  1
  C  750  1  0.20384200  0.43908100  0.96387500  1
  C  752  1  0.19303800  0.47942200  0.00938000  1
  C  753  1  0.17664600  0.50368300  0.03654600  1
  C  754  1  0.19995400  0.51013700  0.04362600  1
  C  755  1  0.22017300  0.50030700  0.03318000  1
  C  758  1  0.21697700  0.48494600  0.01579400  1
  C  759  1  0.23663000  0.47498700  0.00469300  1
  C  760  1  0.23256500  0.45979100  0.98744800  1
  C  765  1  0.20257700  0.52478800  0.06083300  1
  C  766  1  0.17397500  0.41912000  0.94112700  1
  C  769  1  0.20745000  0.04284700  0.78906100  1
  C  770  1  0.21880300  0.06166400  0.77781500  1
  C  772  1  0.23898600  0.03375300  0.75552600  1
  C  773  1  0.22827400  0.01391300  0.76605900  1
  C  774  1  0.21251800  0.01878400  0.78286700  1
  C  776  1  0.25478400  0.02973200  0.73866700  1
  C  777  1  0.28014000  0.04614500  0.71223300  1
  C  778  1  0.28621900  0.02286600  0.70482300  1
  C  779  1  0.27574800  0.00266900  0.71484800  1
  C  782  1  0.26002900  0.00582200  0.73200500  1
  C  783  1  0.24933700  0.98614900  0.74255800  1
  C  784  1  0.23363100  0.99016100  0.75947000  1
  C  789  1  0.30075300  0.02019800  0.68749300  1
  C  790  1  0.19233700  0.04854800  0.80561300  1
  C  793  1  0.28976100  0.90572300  0.28903100  1
  C  794  1  0.27838400  0.88690600  0.27780400  1
  C  796  1  0.25819700  0.91481200  0.25551600  1
  C  797  1  0.26893100  0.93465400  0.26603300  1
  C  798  1  0.28470200  0.92978500  0.28282900  1
  C  800  1  0.24238600  0.91883000  0.23866500  1
  C  801  1  0.21700700  0.90241200  0.21225000  1
  C  802  1  0.21094200  0.92568800  0.20482600  1
  C  803  1  0.22143200  0.94588700  0.21483500  1
  C  806  1  0.23715400  0.94273800  0.23199100  1
  C  807  1  0.24786600  0.96241200  0.24252700  1
  C  808  1  0.26358300  0.95840500  0.25943300  1
  C  813  1  0.19642000  0.92834700  0.18749000  1
  C  814  1  0.30488600  0.90002500  0.30557500  1
  C  817  1  0.68151800  0.43516000  0.54012100  1
  C  818  1  0.66265900  0.44562500  0.52830800  1
  C  820  1  0.69054100  0.46473400  0.50530100  1
  C  821  1  0.71041500  0.45495500  0.51644600  1
  C  822  1  0.70557800  0.44017200  0.53389700  1
  C  824  1  0.69453500  0.47953500  0.48778300  1
  C  825  1  0.67806700  0.50327500  0.46028800  1
  C  826  1  0.70135400  0.50939800  0.45295600  1
  C  827  1  0.72159600  0.49968100  0.46344200  1
  C  830  1  0.71845100  0.48475200  0.48111100  1
  C  831  1  0.73815100  0.47496000  0.49225600  1
  C  832  1  0.73416600  0.46020500  0.50979500  1
  C  837  1  0.70395000  0.52381200  0.43560500  1
  C  838  1  0.67587900  0.42062000  0.55704100  1
  C  841  1  0.81568700  0.51343400  0.04010200  1
  C  842  1  0.83454400  0.50297900  0.02828100  1
  C  844  1  0.80665900  0.48386900  0.00527800  1
  C  845  1  0.78678800  0.49363800  0.01642900  1
  C  846  1  0.79162500  0.50841900  0.03388200  1
  C  848  1  0.80266400  0.46906900  0.98775800  1
  C  849  1  0.81913000  0.44533500  0.96025800  1
  C  850  1  0.79584400  0.43920500  0.95293200  1
  C  851  1  0.77560100  0.44891500  0.96342100  1
  C  854  1  0.77874800  0.46384400  0.98109300  1
  C  855  1  0.75904800  0.47362900  0.99224300  1
  C  856  1  0.76303500  0.48838200  0.00978300  1
  C  861  1  0.79324600  0.42478700  0.93558300  1
  C  862  1  0.82132600  0.52797100  0.05702300  1
  C  865  1  0.18174400  0.28783300  0.91021000  1
  C  866  1  0.16374800  0.27142700  0.90369100  1
  C  868  1  0.19030400  0.23790300  0.90821400  1
  C  869  1  0.20910500  0.25336500  0.91522100  1
  C  870  1  0.20454300  0.27847100  0.91607800  1
  C  872  1  0.19416500  0.21279100  0.90685900  1
  C  873  1  0.17874600  0.17385700  0.89831100  1
  C  874  1  0.20064900  0.16246600  0.90405100  1
  C  875  1  0.21977000  0.17738100  0.91107100  1
  C  878  1  0.21678200  0.20269100  0.91263800  1
  C  879  1  0.23536200  0.21814300  0.91971600  1
  C  880  1  0.23157100  0.24325800  0.92096500  1
  C  885  1  0.20343900  0.13763900  0.90250800  1
  C  886  1  0.17664500  0.31219500  0.91057600  1
  C  889  1  0.31544700  0.66075200  0.41020500  1
  C  890  1  0.33344700  0.67715300  0.40368600  1
  C  892  1  0.30689900  0.71068600  0.40821100  1
  C  893  1  0.28809500  0.69522800  0.41521800  1
  C  894  1  0.29264900  0.67012000  0.41607500  1
  C  896  1  0.30304700  0.73579800  0.40685600  1
  C  897  1  0.31847700  0.77472700  0.39830600  1
  C  898  1  0.29657700  0.78612400  0.40404500  1
  C  899  1  0.27745100  0.77121500  0.41106600  1
  C  902  1  0.28043200  0.74590300  0.41263400  1
  C  903  1  0.26184700  0.73045900  0.41971300  1
  C  904  1  0.26563000  0.70534200  0.42096200  1
  C  909  1  0.29379700  0.81095100  0.40249500  1
  C  910  1  0.32054000  0.63638800  0.41057000  1
  C  913  1  0.93479000  0.90922100  0.16163800  1
  C  914  1  0.95100500  0.89101100  0.15519700  1
  C  916  1  0.98478900  0.91730800  0.15935700  1
  C  917  1  0.96953500  0.93631300  0.16629200  1
  C  918  1  0.94439100  0.93199100  0.16729300  1
  C  920  1  0.00992100  0.92094500  0.15780600  1
  C  921  1  0.04866000  0.90514500  0.14909300  1
  C  922  1  0.06026600  0.92702800  0.15456500  1
  C  923  1  0.04555800  0.94632800  0.16154600  1
  C  926  1  0.02024300  0.94354700  0.16332300  1
  C  927  1  0.00500500  0.96233000  0.17035000  1
  C  928  1  0.97987100  0.95876000  0.17178600  1
  C  933  1  0.08509800  0.92963300  0.15284300  1
  C  934  1  0.91036800  0.90438800  0.16193600  1
  C  937  1  0.56240400  0.03943600  0.66163700  1
  C  938  1  0.54618000  0.05765600  0.65523600  1
  C  940  1  0.51240300  0.03134700  0.65939000  1
  C  941  1  0.52766800  0.01233100  0.66628600  1
  C  942  1  0.55281400  0.01665400  0.66727000  1
  C  944  1  0.48727200  0.02770600  0.65784800  1
  C  945  1  0.44852100  0.04350600  0.64917000  1
  C  946  1  0.43692500  0.02160800  0.65461300  1
  C  947  1  0.45164500  0.00230300  0.66156500  1
  C  950  1  0.47695900  0.00509000  0.66333800  1
  C  951  1  0.49220700  0.98630000  0.67033000  1
  C  952  1  0.51734300  0.98987400  0.67175500  1
  C  957  1  0.41209400  0.01899000  0.65288800  1
  C  958  1  0.58682700  0.04427000  0.66190800  1
  C  961  1  0.31632700  0.28596900  0.58487100  1
  C  962  1  0.33430300  0.26973700  0.59176100  1
  C  964  1  0.30756800  0.23615700  0.58843100  1
  C  965  1  0.28879200  0.25141100  0.58104800  1
  C  966  1  0.29345700  0.27644300  0.57939600  1
  C  968  1  0.30356200  0.21114700  0.59065600  1
  C  969  1  0.31878900  0.17251300  0.60041400  1
  C  970  1  0.29676500  0.16102700  0.59518300  1
  C  971  1  0.27768300  0.17574600  0.58779500  1
  C  974  1  0.28082600  0.20094800  0.58537000  1
  C  975  1  0.26228000  0.21618700  0.57789600  1
  C  976  1  0.26621300  0.24120100  0.57579100  1
  C  981  1  0.29390500  0.13627700  0.59737400  1
  C  982  1  0.32139100  0.31035200  0.58408200  1
  C  985  1  0.18087500  0.66261300  0.08486300  1
  C  986  1  0.16289300  0.67883900  0.09175300  1
  C  988  1  0.18961900  0.71242800  0.08842400  1
  C  989  1  0.20839800  0.69717900  0.08104000  1
  C  990  1  0.20374200  0.67214500  0.07938700  1
  C  992  1  0.19361600  0.73743800  0.09065000  1
  C  993  1  0.17837500  0.77606600  0.10041100  1
  C  994  1  0.20039500  0.78756100  0.09518000  1
  C  995  1  0.21948300  0.77284800  0.08779100  1
  C  998  1  0.21634800  0.74764600  0.08536500  1
  C  999  1  0.23489900  0.73241400  0.07789000  1
  C  1000  1  0.23097500  0.70739800  0.07578300  1
  C  1005  1  0.20324400  0.81230900  0.09737500  1
  C  1006  1  0.17581900  0.63822700  0.08407400  1
  C  1009  1  0.56081600  0.90837000  0.33391100  1
  C  1010  1  0.54477600  0.89014600  0.34065200  1
  C  1012  1  0.51091300  0.91655500  0.33756800  1
  C  1013  1  0.52596300  0.93556900  0.33032900  1
  C  1014  1  0.55104500  0.93119500  0.32862500  1
  C  1016  1  0.48587000  0.92028200  0.33988800  1
  C  1017  1  0.44741900  0.90458500  0.34964700  1
  C  1018  1  0.43571100  0.92657000  0.34466400  1
  C  1019  1  0.45022300  0.94586500  0.33738100  1
  C  1022  1  0.47543700  0.94298200  0.33483800  1
  C  1023  1  0.49046800  0.96176400  0.32748900  1
  C  1024  1  0.51551400  0.95810600  0.32529200  1
  C  1029  1  0.41095200  0.92921100  0.34698600  1
  C  1030  1  0.58526600  0.90360600  0.33322600  1
  C  1033  1  0.93638500  0.04023700  0.83394700  1
  C  1034  1  0.95243400  0.05846800  0.84066300  1
  C  1036  1  0.98629000  0.03205100  0.83757800  1
  C  1037  1  0.97123100  0.01303100  0.83036200  1
  C  1038  1  0.94614900  0.01740700  0.82867200  1
  C  1040  1  0.01133300  0.02832000  0.83989200  1
  C  1041  1  0.04979200  0.04401300  0.84963300  1
  C  1042  1  0.06149100  0.02202100  0.84466400  1
  C  1043  1  0.04697200  0.00272300  0.83739700  1
  C  1046  1  0.02175700  0.00561100  0.83485600  1
  C  1047  1  0.00671900  0.98682600  0.82752600  1
  C  1048  1  0.98167200  0.99048700  0.82533700  1
  C  1053  1  0.08625000  0.01937000  0.84698600  1
  C  1054  1  0.91193500  0.04500500  0.83328600  1
  C  1057  1  0.81400500  0.66041000  0.08595800  1
  C  1058  1  0.83232100  0.67628200  0.09279900  1
  C  1060  1  0.80656800  0.71047800  0.08863000  1
  C  1061  1  0.78747300  0.69557600  0.08131000  1
  C  1062  1  0.79146100  0.67038700  0.08012600  1
  C  1064  1  0.80328600  0.73564600  0.09031600  1
  C  1065  1  0.81955700  0.77408400  0.09939400  1
  C  1066  1  0.79799500  0.78606800  0.09360900  1
  C  1067  1  0.77857500  0.77171200  0.08633400  1
  C  1070  1  0.78096000  0.74636200  0.08452700  1
  C  1071  1  0.76207600  0.73147600  0.07714800  1
  C  1072  1  0.76528700  0.70630300  0.07559600  1
  C  1077  1  0.79585400  0.81095600  0.09512500  1
  C  1078  1  0.81853100  0.63594000  0.08547800  1
  C  1081  1  0.68320300  0.28817300  0.58596700  1
  C  1082  1  0.66489200  0.27229900  0.59281000  1
  C  1084  1  0.69064900  0.23810700  0.58863500  1
  C  1085  1  0.70973900  0.25301000  0.58131200  1
  C  1086  1  0.70575000  0.27820000  0.58013100  1
  C  1088  1  0.69393500  0.21293900  0.59031900  1
  C  1089  1  0.67766900  0.17450000  0.59939900  1
  C  1090  1  0.69923100  0.16251800  0.59361000  1
  C  1091  1  0.71864800  0.17687500  0.58633200  1
  C  1094  1  0.71625900  0.20222500  0.58452500  1
  C  1095  1  0.73514000  0.21711400  0.57714400  1
  C  1096  1  0.73192700  0.24228700  0.57559400  1
  C  1101  1  0.70137400  0.13763000  0.59512900  1
  C  1102  1  0.67867400  0.31264300  0.58548900  1
  C  1105  1  0.68226900  0.66230400  0.41274500  1
  C  1106  1  0.66395600  0.67804100  0.40565300  1
  C  1108  1  0.68992100  0.71224900  0.40868500  1
  C  1109  1  0.70900700  0.69751500  0.41626600  1
  C  1110  1  0.70490600  0.67240600  0.41816000  1
  C  1112  1  0.69336400  0.73731400  0.40620900  1
  C  1113  1  0.67730100  0.77549500  0.39608700  1
  C  1114  1  0.69902900  0.78752600  0.40130900  1
  C  1115  1  0.71841500  0.77332000  0.40885700  1
  C  1118  1  0.71584400  0.74808200  0.41146500  1
  C  1119  1  0.73470600  0.73336600  0.41913000  1
  C  1120  1  0.73133500  0.70829800  0.42146500  1
  C  1125  1  0.70130000  0.81233800  0.39915900  1
  C  1126  1  0.67776900  0.63781400  0.41360900  1
  C  1129  1  0.81493300  0.28628300  0.91275100  1
  C  1130  1  0.83324600  0.27054700  0.90565700  1
  C  1132  1  0.80728200  0.23633800  0.90869400  1
  C  1133  1  0.78819800  0.25107400  0.91627700  1
  C  1134  1  0.79229900  0.27618400  0.91816900  1
  C  1136  1  0.80383700  0.21127500  0.90622000  1
  C  1137  1  0.81990000  0.17309100  0.89609800  1
  C  1138  1  0.79817300  0.16106200  0.90132100  1
  C  1139  1  0.77878600  0.17526800  0.90887100  1
  C  1142  1  0.78135700  0.20050500  0.91147800  1
  C  1143  1  0.76249900  0.21522300  0.91914400  1
  C  1144  1  0.76586800  0.24029100  0.92147800  1
  C  1149  1  0.79590300  0.13625100  0.89917400  1
  C  1150  1  0.81943400  0.31077400  0.91360900  1
  C  1153  1  0.43491600  0.40699500  0.65988600  1
  C  1154  1  0.45103000  0.38897600  0.65289100  1
  C  1156  1  0.48489000  0.41509400  0.65743300  1
  C  1157  1  0.46972800  0.43390400  0.66489800  1
  C  1158  1  0.44458800  0.42958400  0.66597100  1
  C  1160  1  0.51002900  0.41868800  0.65592100  1
  C  1161  1  0.54871100  0.40295100  0.64692900  1
  C  1162  1  0.56041500  0.42454900  0.65303300  1
  C  1163  1  0.54579700  0.44371800  0.66040600  1
  C  1166  1  0.52045600  0.44104100  0.66201800  1
  C  1167  1  0.50530600  0.45964800  0.66951500  1
  C  1168  1  0.48016000  0.45613100  0.67090400  1
  C  1173  1  0.58529000  0.42694600  0.65170600  1
  C  1174  1  0.41052000  0.40211100  0.66046100  1
  C  1177  1  0.06228800  0.54161300  0.15986700  1
  C  1178  1  0.04616900  0.55962800  0.15287300  1
  C  1180  1  0.01231200  0.53351000  0.15742800  1
  C  1181  1  0.02747800  0.51470200  0.16489300  1
  C  1182  1  0.05261700  0.51902600  0.16595800  1
  C  1184  1  0.98717200  0.52991500  0.15592200  1
  C  1185  1  0.94848800  0.54565000  0.14694000  1
  C  1186  1  0.93678600  0.52405200  0.15304800  1
  C  1187  1  0.95141000  0.50488500  0.16042200  1
  C  1190  1  0.97674900  0.50756400  0.16202800  1
  C  1191  1  0.99190400  0.48895800  0.16952200  1
  C  1192  1  0.01704900  0.49248000  0.17090400  1
  C  1197  1  0.91191100  0.52165100  0.15172400  1
  C  1198  1  0.08668200  0.54650100  0.16043900  1
  C  1201  1  0.06013700  0.40589900  0.83532200  1
  C  1202  1  0.04416800  0.38789600  0.84260800  1
  C  1204  1  0.01031300  0.41428900  0.83934400  1
  C  1205  1  0.02529500  0.43307700  0.83157800  1
  C  1206  1  0.05034300  0.42860400  0.82970600  1
  C  1208  1  0.98529100  0.41808700  0.84174700  1
  C  1209  1  0.94689100  0.40260500  0.85191300  1
  C  1210  1  0.93513500  0.42439200  0.84641700  1
  C  1211  1  0.94959000  0.44351800  0.83873500  1
  C  1214  1  0.97480900  0.44062000  0.83623600  1
  C  1215  1  0.98977900  0.45919100  0.82840900  1
  C  1216  1  0.01480700  0.45547100  0.82614300  1
  C  1221  1  0.91033900  0.42693300  0.84843600  1
  C  1222  1  0.08454400  0.40102000  0.83432900  1
  C  1225  1  0.43705700  0.54270000  0.33534200  1
  C  1226  1  0.45302700  0.56069700  0.34263600  1
  C  1228  1  0.48688100  0.53430600  0.33935700  1
  C  1229  1  0.47189800  0.51552100  0.33158300  1
  C  1230  1  0.44685000  0.51999400  0.32971500  1
  C  1232  1  0.51190400  0.53050600  0.34175300  1
  C  1233  1  0.55030600  0.54598300  0.35191900  1
  C  1234  1  0.56206300  0.52419900  0.34641300  1
  C  1235  1  0.54760300  0.50507600  0.33872500  1
  C  1238  1  0.52238500  0.50797600  0.33623100  1
  C  1239  1  0.50741500  0.48941000  0.32839900  1
  C  1240  1  0.48238600  0.49313000  0.32613900  1
  C  1245  1  0.58685800  0.52165500  0.34842900  1
  C  1246  1  0.41265000  0.54757800  0.33435200  1
  N  8  1  0.20455000  0.35797800  0.93423900  1
  N  15  1  0.12994400  0.42856500  0.80901600  1
  N  17  1  0.16945500  0.34475900  0.86570000  1
  N  18  1  0.11797000  0.39575400  0.87861900  1
  N  27  1  0.17870100  0.41520300  0.81230300  1
  N  28  1  0.09989600  0.41584600  0.84223300  1
  N  29  1  0.19092600  0.32741700  0.90178300  1
  N  30  1  0.18978900  0.40604200  0.93172000  1
  N  38  1  0.29262800  0.59060600  0.43423300  1
  N  45  1  0.36726000  0.52000300  0.30902900  1
  N  47  1  0.32772300  0.60382700  0.36569400  1
  N  48  1  0.37921000  0.55284700  0.37862200  1
  N  57  1  0.31849600  0.53334200  0.31230300  1
  N  58  1  0.39729700  0.53274500  0.34224300  1
  N  59  1  0.30625400  0.62117000  0.40177800  1
  N  60  1  0.30738700  0.54254200  0.43171000  1
  N  68  1  0.86383600  0.93203100  0.18472700  1
  N  75  1  0.80269800  0.85266900  0.05787600  1
  N  77  1  0.87923300  0.89738500  0.11638500  1
  N  78  1  0.83196000  0.84470800  0.12904500  1
  N  87  1  0.81070000  0.90255800  0.06125500  1
  N  88  1  0.81447500  0.82454100  0.09267500  1
  N  89  1  0.89539600  0.91869500  0.15285500  1
  N  90  1  0.81613500  0.91656900  0.18143700  1
  N  98  1  0.63332300  0.01657600  0.68472400  1
  N  105  1  0.69447700  0.09591900  0.55787000  1
  N  107  1  0.61799700  0.05125500  0.61638300  1
  N  108  1  0.66530200  0.10388500  0.62906300  1
  N  117  1  0.68646500  0.04604200  0.56124000  1
  N  118  1  0.68275500  0.12404500  0.59267300  1
  N  119  1  0.60179800  0.02994500  0.65284500  1
  N  120  1  0.68104300  0.03200200  0.68145600  1
  N  128  1  0.29410900  0.35591000  0.55890600  1
  N  135  1  0.36485300  0.43019700  0.68420600  1
  N  137  1  0.32682400  0.34367200  0.62851000  1
  N  138  1  0.37791800  0.39511300  0.61564200  1
  N  147  1  0.31674900  0.41550300  0.68173700  1
  N  148  1  0.39535600  0.41648700  0.65171000  1
  N  149  1  0.30667700  0.32575100  0.59207300  1
  N  150  1  0.30758900  0.40460700  0.56229500  1
  N  158  1  0.20311200  0.59266300  0.05890700  1
  N  165  1  0.13234200  0.51841500  0.18421300  1
  N  167  1  0.17038700  0.60492400  0.12850500  1
  N  168  1  0.11930100  0.55347400  0.11563700  1
  N  177  1  0.18044900  0.53310200  0.18175100  1
  N  178  1  0.10185200  0.53211400  0.15170700  1
  N  179  1  0.19053900  0.62283400  0.09206700  1
  N  180  1  0.18963600  0.54397000  0.06230700  1
  N  188  1  0.63148800  0.93103900  0.30899400  1
  N  195  1  0.69639100  0.85468300  0.43585800  1
  N  197  1  0.61727600  0.89821000  0.37825200  1
  N  198  1  0.66403800  0.84582000  0.36576200  1
  N  207  1  0.68830700  0.90445600  0.43250500  1
  N  208  1  0.68286200  0.82610700  0.40183900  1
  N  209  1  0.60039600  0.91837800  0.34152400  1
  N  210  1  0.67987500  0.91688700  0.31306200  1
  N  218  1  0.86573700  0.01757900  0.80902600  1
  N  225  1  0.80081400  0.09392200  0.93589000  1
  N  227  1  0.87990300  0.05036400  0.87830500  1
  N  228  1  0.83316300  0.10275700  0.86579300  1
  N  237  1  0.80888100  0.04414700  0.93254800  1
  N  238  1  0.81433700  0.12248200  0.90187200  1
  N  239  1  0.89680500  0.03022600  0.84157200  1
  N  240  1  0.81735300  0.03171400  0.81306800  1
  N  248  1  0.79043800  0.58969800  0.06259400  1
  N  255  1  0.87028600  0.52824600  0.18909700  1
  N  257  1  0.82530600  0.60466800  0.13092400  1
  N  258  1  0.87776600  0.55751600  0.11789500  1
  N  267  1  0.82034600  0.53609800  0.18592100  1
  N  268  1  0.89818700  0.54016600  0.15418800  1
  N  269  1  0.80407300  0.62108300  0.09452400  1
  N  270  1  0.80569600  0.54188200  0.06575100  1
  N  278  1  0.70676500  0.35889300  0.56260200  1
  N  285  1  0.62690100  0.42037200  0.68909100  1
  N  287  1  0.67189700  0.34391300  0.63093100  1
  N  288  1  0.61943900  0.39107200  0.61789500  1
  N  297  1  0.67684200  0.41251300  0.68592900  1
  N  298  1  0.59901200  0.40843300  0.65418200  1
  N  299  1  0.69313300  0.32750200  0.59453000  1
  N  300  1  0.69151100  0.40670800  0.56576600  1
  N  308  1  0.12972900  0.02393600  0.81102600  1
  N  315  1  0.19752500  0.09471300  0.93903700  1
  N  317  1  0.11901600  0.05639700  0.88086600  1
  N  318  1  0.16763900  0.10431400  0.86822300  1
  N  327  1  0.18884800  0.04504200  0.93510800  1
  N  328  1  0.18512600  0.12362300  0.90484200  1
  N  329  1  0.10030400  0.03761500  0.84445500  1
  N  330  1  0.17922800  0.03271400  0.81498500  1
  N  338  1  0.36748600  0.92464300  0.31099800  1
  N  345  1  0.29976600  0.85387200  0.43904100  1
  N  347  1  0.37819800  0.89217500  0.38083400  1
  N  348  1  0.32956400  0.84425900  0.36820200  1
  N  357  1  0.30843500  0.90353100  0.43511400  1
  N  358  1  0.31211000  0.82496000  0.40484600  1
  N  359  1  0.39690600  0.91096500  0.34442100  1
  N  360  1  0.31798500  0.91586100  0.31495500  1
  N  368  1  0.70557100  0.59196700  0.43818800  1
  N  375  1  0.62920600  0.52615700  0.31167300  1
  N  377  1  0.67282400  0.60550900  0.36879900  1
  N  378  1  0.62064700  0.55883200  0.38168400  1
  N  387  1  0.67901500  0.53421300  0.31487800  1
  N  388  1  0.60077200  0.53997300  0.34570700  1
  N  389  1  0.69275000  0.62276600  0.40548400  1
  N  390  1  0.69170400  0.54346300  0.43434400  1
  N  398  1  0.79163000  0.35663200  0.93818400  1
  N  405  1  0.86800200  0.42242800  0.81166700  1
  N  407  1  0.82438400  0.34306500  0.86880100  1
  N  408  1  0.87655000  0.38976700  0.88168600  1
  N  417  1  0.81819500  0.41435200  0.81486000  1
  N  418  1  0.89642600  0.40861400  0.84570600  1
  N  419  1  0.80445100  0.32582200  0.90548600  1
  N  420  1  0.80549000  0.40513400  0.93432500  1
  N  428  1  0.36915700  0.02509400  0.68936200  1
  N  435  1  0.29823000  0.09279000  0.56138300  1
  N  437  1  0.37890100  0.05483000  0.61852000  1
  N  438  1  0.33084500  0.10332500  0.63119100  1
  N  447  1  0.30715000  0.04329500  0.56518300  1
  N  448  1  0.31207400  0.12212800  0.59483700  1
  N  449  1  0.39814200  0.03735600  0.65519900  1
  N  450  1  0.31948300  0.03367200  0.68531500  1
  N  458  1  0.12801100  0.92348200  0.18934700  1
  N  465  1  0.19890900  0.85577700  0.06135600  1
  N  467  1  0.11827200  0.89379500  0.11848800  1
  N  468  1  0.16629900  0.84526600  0.13116700  1
  N  477  1  0.19001500  0.90527200  0.06515200  1
  N  478  1  0.18507500  0.82645200  0.09480900  1
  N  479  1  0.09903600  0.91126100  0.15517900  1
  N  480  1  0.17767400  0.91489300  0.18532100  1
  N  483  1  0.26380000  0.39175200  0.73606200  1
  N  493  1  0.23378800  0.39967400  0.76989900  1
  N  507  1  0.23337800  0.55683100  0.23609600  1
  N  517  1  0.26338100  0.54890000  0.26993700  1
  N  531  1  0.83287100  0.98952000  0.98576800  1
  N  541  1  0.82502000  0.95744600  0.01821600  1
  N  555  1  0.66430900  0.95914300  0.48568100  1
  N  565  1  0.67214800  0.99121800  0.51812700  1
  N  579  1  0.73345700  0.55826900  0.26153100  1
  N  589  1  0.76559400  0.55041800  0.22912000  1
  N  603  1  0.76376700  0.39031300  0.76149600  1
  N  613  1  0.73163100  0.39817300  0.72908800  1
  N  627  1  0.16605600  0.95960000  0.01174200  1
  N  637  1  0.17387300  0.99055700  0.97843600  1
  N  651  1  0.33116000  0.98894300  0.51180400  1
  N  661  1  0.32337500  0.95797800  0.47850000  1
  N  675  1  0.76329400  0.89285800  0.23563000  1
  N  685  1  0.73447800  0.90066600  0.27031700  1
  N  699  1  0.73391500  0.05573600  0.73563400  1
  N  709  1  0.76276300  0.04793700  0.77030200  1
  N  723  1  0.33111800  0.48966000  0.48607400  1
  N  733  1  0.32317400  0.45970600  0.51994100  1
  N  747  1  0.16607800  0.45892100  0.98609000  1
  N  757  1  0.17403200  0.48886400  0.01996300  1
  N  771  1  0.23384400  0.05660400  0.76178200  1
  N  781  1  0.26492500  0.04873300  0.72856500  1
  N  795  1  0.26333000  0.89196300  0.26177900  1
  N  805  1  0.23222700  0.89982900  0.22857900  1
  N  819  1  0.66769100  0.45972400  0.51164500  1
  N  829  1  0.67550100  0.48885700  0.47714900  1
  N  843  1  0.82951000  0.48888200  0.01161700  1
  N  853  1  0.82169800  0.45975200  0.97712000  1
  N  867  1  0.16859900  0.24749100  0.90282300  1
  N  877  1  0.17628100  0.19808200  0.89992600  1
  N  891  1  0.32860300  0.70109100  0.40282000  1
  N  901  1  0.32093600  0.75049900  0.39992300  1
  N  915  1  0.97497700  0.89563400  0.15418100  1
  N  925  1  0.02443100  0.90287900  0.15090900  1
  N  939  1  0.52220600  0.05303100  0.65423500  1
  N  949  1  0.47275100  0.04577900  0.65098100  1
  N  963  1  0.32935700  0.24586800  0.59339200  1
  N  973  1  0.32140300  0.19663300  0.59797100  1
  N  987  1  0.16783200  0.70270800  0.09338400  1
  N  997  1  0.17577000  0.75194500  0.09796600  1
  N  1011  1  0.52085900  0.89481400  0.34234100  1
  N  1021  1  0.47155300  0.90222200  0.34709500  1
  N  1035  1  0.97635200  0.05379600  0.84234100  1
  N  1045  1  0.02565800  0.04638200  0.84708400  1
  N  1059  1  0.82801200  0.70030100  0.09398800  1
  N  1069  1  0.82145400  0.74982500  0.09752500  1
  N  1083  1  0.66920500  0.24828000  0.59399700  1
  N  1093  1  0.67576900  0.19875800  0.59753000  1
  N  1107  1  0.66836800  0.70198700  0.40378300  1
  N  1117  1  0.67522900  0.75134300  0.39872400  1
  N  1131  1  0.82883300  0.24660000  0.90378900  1
  N  1141  1  0.82197200  0.19724400  0.89873300  1
  N  1155  1  0.47499800  0.39360200  0.65182300  1
  N  1165  1  0.52445900  0.40077400  0.64861500  1
  N  1179  1  0.02220100  0.55500300  0.15181200  1
  N  1189  1  0.97273800  0.54782800  0.14861800  1
  N  1203  1  0.02028500  0.39266300  0.84444900  1
  N  1213  1  0.97102500  0.40021700  0.84937400  1
  N  1227  1  0.47691000  0.55592900  0.34447100  1
  N  1237  1  0.52617200  0.54837300  0.34938500  1
