# generated using pymatgen
data_H16C17N2
_symmetry_space_group_name_H-M   'P 1'
_cell_length_a   20.11310000
_cell_length_b   52.03150000
_cell_length_c   52.03150000
_cell_angle_alpha   120.00000000
_cell_angle_beta   90.00000000
_cell_angle_gamma   90.00000000
_symmetry_Int_Tables_number   1
_chemical_formula_structural   H16C17N2
_chemical_formula_sum   'H384 C408 N48'
_cell_volume   47156.58394795
_cell_formula_units_Z   24
loop_
 _symmetry_equiv_pos_site_id
 _symmetry_equiv_pos_as_xyz
  1  'x, y, z'
loop_
 _atom_site_type_symbol
 _atom_site_label
 _atom_site_symmetry_multiplicity
 _atom_site_fract_x
 _atom_site_fract_y
 _atom_site_fract_z
 _atom_site_occupancy
  C  1  1  0.81165900  0.71174500  0.15072900  1
  C  2  1  0.75362100  0.73365000  0.16875300  1
  C  3  1  0.80564400  0.70427800  0.11730400  1
  C  4  1  0.73575700  0.69065700  0.10317700  1
  C  7  1  0.68095300  0.71321400  0.12346800  1
  C  8  1  0.68261900  0.72088300  0.15663800  1
  C  13  1  0.67314200  0.69099700  0.15652800  1
  C  14  1  0.72823500  0.66737800  0.13830600  1
  C  17  1  0.72587400  0.66208700  0.10576700  1
  C  20  1  0.79777100  0.68194100  0.15142600  1
  C  23  1  0.14501900  0.43575800  0.28565600  1
  C  24  1  0.08694800  0.43190400  0.26377500  1
  C  25  1  0.13902000  0.40978300  0.29310000  1
  C  26  1  0.06915300  0.40927300  0.30673300  1
  C  29  1  0.01431800  0.40703200  0.28419700  1
  C  30  1  0.01596900  0.43255300  0.27655600  1
  C  35  1  0.00652700  0.46231700  0.30646000  1
  C  36  1  0.06165600  0.46768500  0.33005500  1
  C  39  1  0.05929900  0.44042100  0.33532000  1
  C  42  1  0.13117200  0.46624600  0.31547800  1
  C  45  1  0.47832700  0.84665700  0.56164300  1
  C  46  1  0.42024300  0.82863200  0.56548800  1
  C  47  1  0.47233100  0.88007600  0.58761900  1
  C  48  1  0.40247400  0.89422400  0.58812300  1
  C  51  1  0.34762400  0.87393000  0.59035800  1
  C  52  1  0.34926900  0.84077000  0.56483500  1
  C  57  1  0.33985200  0.84091200  0.53507300  1
  C  58  1  0.39499600  0.85913600  0.52971100  1
  C  61  1  0.39264200  0.89166500  0.55697600  1
  C  64  1  0.46450500  0.84599500  0.53115700  1
  C  67  1  0.81170000  0.28436200  0.84797600  1
  C  68  1  0.75363700  0.26247500  0.82995300  1
  C  69  1  0.80568700  0.29182500  0.88140000  1
  C  70  1  0.73581300  0.30546300  0.89553300  1
  C  73  1  0.68098400  0.28291900  0.87524100  1
  C  74  1  0.68264800  0.27525800  0.84207500  1
  C  79  1  0.67321700  0.30515000  0.84219100  1
  C  80  1  0.72833600  0.32875100  0.86041000  1
  C  83  1  0.72597200  0.33403700  0.89294900  1
  C  86  1  0.79785800  0.31417200  0.84728700  1
  C  89  1  0.14496200  0.56036600  0.71304400  1
  C  90  1  0.08692800  0.56423900  0.73494700  1
  C  91  1  0.13894400  0.58633100  0.70558700  1
  C  92  1  0.06905400  0.58683900  0.69196800  1
  C  95  1  0.01425400  0.58909900  0.71452400  1
  C  96  1  0.01592400  0.56359200  0.72218400  1
  C  101  1  0.00644800  0.53382000  0.69229200  1
  C  102  1  0.06153600  0.52843000  0.66867500  1
  C  105  1  0.05917200  0.55568600  0.66339400  1
  C  108  1  0.13107600  0.52987100  0.68323700  1
  C  111  1  0.47835600  0.14945700  0.43706100  1
  C  112  1  0.42027500  0.16748000  0.43320700  1
  C  113  1  0.47237300  0.11603700  0.41108600  1
  C  114  1  0.40251300  0.10188600  0.41057200  1
  C  117  1  0.34766800  0.12217900  0.40833100  1
  C  118  1  0.34930200  0.15533800  0.43385200  1
  C  123  1  0.33986500  0.15519800  0.46361600  1
  C  124  1  0.39500000  0.13697800  0.46898600  1
  C  127  1  0.39266400  0.10444800  0.44172300  1
  C  130  1  0.46451200  0.15012100  0.46754700  1
  C  133  1  0.50802700  0.55017800  0.84487000  1
  C  134  1  0.57291900  0.55114200  0.82837700  1
  C  135  1  0.51549700  0.57477500  0.87887900  1
  C  136  1  0.58012500  0.57069700  0.89386000  1
  C  139  1  0.64248000  0.57057700  0.87557100  1
  C  140  1  0.63856900  0.54653400  0.84183400  1
  C  145  1  0.63260200  0.51572400  0.84015600  1
  C  146  1  0.57059700  0.51265400  0.85672800  1
  C  149  1  0.57567300  0.53870200  0.88968000  1
  C  152  1  0.50709600  0.51872600  0.84303800  1
  C  155  1  0.17475600  0.15252100  0.70597600  1
  C  156  1  0.23962900  0.16902900  0.72343600  1
  C  157  1  0.18226800  0.11851300  0.69656800  1
  C  158  1  0.24691300  0.10354600  0.67751700  1
  C  161  1  0.30924600  0.12185100  0.69568900  1
  C  162  1  0.30529300  0.15558700  0.70537800  1
  C  167  1  0.29932200  0.15725700  0.67624200  1
  C  168  1  0.23733700  0.14066700  0.65659400  1
  C  171  1  0.24245300  0.10772000  0.64969900  1
  C  174  1  0.17382100  0.15434700  0.67635100  1
  C  177  1  0.84142900  0.29145400  0.44721100  1
  C  178  1  0.90630000  0.27398700  0.44624900  1
  C  179  1  0.84892300  0.30086100  0.42260900  1
  C  180  1  0.91357200  0.31990600  0.42668400  1
  C  183  1  0.97590500  0.30173000  0.42681000  1
  C  184  1  0.97196700  0.29204100  0.45085600  1
  C  189  1  0.96601200  0.32117900  0.48166300  1
  C  190  1  0.90403100  0.34083000  0.48472800  1
  C  193  1  0.90912800  0.34772700  0.45867800  1
  C  196  1  0.84051100  0.32107800  0.47866200  1
  C  199  1  0.50811100  0.44593000  0.15383700  1
  C  200  1  0.57301700  0.44496400  0.17032000  1
  C  201  1  0.51555500  0.42132700  0.11982600  1
  C  202  1  0.58017700  0.42539700  0.10483500  1
  C  205  1  0.64254500  0.42551500  0.12311800  1
  C  206  1  0.63865800  0.44956400  0.15685400  1
  C  211  1  0.63269200  0.48037000  0.15852300  1
  C  212  1  0.57067600  0.48344100  0.14195800  1
  C  215  1  0.57572800  0.45738900  0.10900900  1
  C  218  1  0.50718100  0.47738100  0.15566300  1
  C  221  1  0.17472600  0.84359400  0.29272900  1
  C  222  1  0.23960900  0.82709600  0.27527200  1
  C  223  1  0.18220400  0.87760200  0.30213700  1
  C  224  1  0.24683800  0.89257900  0.32119100  1
  C  227  1  0.30918600  0.87428600  0.30302200  1
  C  228  1  0.30526800  0.84055100  0.29333400  1
  C  233  1  0.29930200  0.83887900  0.32247000  1
  C  234  1  0.23730200  0.85545700  0.34211300  1
  C  237  1  0.24238600  0.88840600  0.34901000  1
  C  240  1  0.17379600  0.84176700  0.32235300  1
  C  243  1  0.84139600  0.70467000  0.55149400  1
  C  244  1  0.90627800  0.72212700  0.55244400  1
  C  245  1  0.84889300  0.69526500  0.57609600  1
  C  246  1  0.91352900  0.67621300  0.57201500  1
  C  249  1  0.97587000  0.69438100  0.57188100  1
  C  250  1  0.97193400  0.70406500  0.54783300  1
  C  255  1  0.96595700  0.67492700  0.51702800  1
  C  256  1  0.90396700  0.65528600  0.51397200  1
  C  259  1  0.90906800  0.64839300  0.54002500  1
  C  262  1  0.84045700  0.67504500  0.52004500  1
  C  265  1  0.11570500  0.82802000  0.27179800  1
  C  266  1  0.06794800  0.81066200  0.27639200  1
  C  268  1  0.02363600  0.78836000  0.22661900  1
  C  269  1  0.06626700  0.80681800  0.22091600  1
  C  270  1  0.11077800  0.82621300  0.24365100  1
  C  272  1  0.97857000  0.76627600  0.20563800  1
  C  273  1  0.96950100  0.73731300  0.20165900  1
  C  274  1  0.91902100  0.71882200  0.18192000  1
  C  275  1  0.87668100  0.72770900  0.16589400  1
  C  276  1  0.89295000  0.75575000  0.16918600  1
  C  281  1  0.01144400  0.72574100  0.21722100  1
  C  285  1  0.06906600  0.80475800  0.19136400  1
  C  289  1  0.44913000  0.44057300  0.16942900  1
  C  290  1  0.40133800  0.46252000  0.18676700  1
  C  292  1  0.35701800  0.43504200  0.20905900  1
  C  293  1  0.39964900  0.41088000  0.19060100  1
  C  294  1  0.44417200  0.41422400  0.17121300  1
  C  296  1  0.31194000  0.43613700  0.23113500  1
  C  297  1  0.30291600  0.46110600  0.26011200  1
  C  298  1  0.25242200  0.45986200  0.27859900  1
  C  299  1  0.20999600  0.43497000  0.26966600  1
  C  300  1  0.22626000  0.41021500  0.24163300  1
  C  305  1  0.34492900  0.48822200  0.27170000  1
  C  309  1  0.40242800  0.38338300  0.19265300  1
  C  313  1  0.78237500  0.72560300  0.55685500  1
  C  314  1  0.73462000  0.72101100  0.53490100  1
  C  316  1  0.69031100  0.77078200  0.56237800  1
  C  317  1  0.73294000  0.77648400  0.58654000  1
  C  318  1  0.77745200  0.75374800  0.58319500  1
  C  320  1  0.64524500  0.79176400  0.56128100  1
  C  321  1  0.63623600  0.79577400  0.53631200  1
  C  322  1  0.58574300  0.81550200  0.53755200  1
  C  323  1  0.54329600  0.83145600  0.56243800  1
  C  324  1  0.55954300  0.82817400  0.58719200  1
  C  329  1  0.67826900  0.78025300  0.50920200  1
  C  333  1  0.73573500  0.80603700  0.61403300  1
  C  337  1  0.11573000  0.16808500  0.72690600  1
  C  338  1  0.06796500  0.18544200  0.72231200  1
  C  340  1  0.02365800  0.20773700  0.77208600  1
  C  341  1  0.06628900  0.18927700  0.77778400  1
  C  342  1  0.11080200  0.16988700  0.75505000  1
  C  344  1  0.97860000  0.22982100  0.79306900  1
  C  345  1  0.96958100  0.25879400  0.79706700  1
  C  346  1  0.91910200  0.27728700  0.81680000  1
  C  347  1  0.87670500  0.26838500  0.83279600  1
  C  348  1  0.89293900  0.24034200  0.82950400  1
  C  353  1  0.01157800  0.27037100  0.78152700  1
  C  357  1  0.06908600  0.19133300  0.80733700  1
  C  361  1  0.44901200  0.55554100  0.82929700  1
  C  362  1  0.40125500  0.53358900  0.81193400  1
  C  364  1  0.35694600  0.56107000  0.78964200  1
  C  365  1  0.39958000  0.58522900  0.80810400  1
  C  366  1  0.44408800  0.58188300  0.82749400  1
  C  368  1  0.31188000  0.55997500  0.76756500  1
  C  369  1  0.30281200  0.53499700  0.73859800  1
  C  370  1  0.25233000  0.53624800  0.72011000  1
  C  371  1  0.20998700  0.56116300  0.72900600  1
  C  372  1  0.22625500  0.58590400  0.75704800  1
  C  377  1  0.34476000  0.50786200  0.72701700  1
  C  381  1  0.40238200  0.61272500  0.80605000  1
  C  385  1  0.78239400  0.27052800  0.44184500  1
  C  386  1  0.73468500  0.27510500  0.46381200  1
  C  388  1  0.69035000  0.22533900  0.43633800  1
  C  389  1  0.73295300  0.21964100  0.41216900  1
  C  390  1  0.77745700  0.24237800  0.41550900  1
  C  392  1  0.64527900  0.20435800  0.43743500  1
  C  393  1  0.63625100  0.20035300  0.46240700  1
  C  394  1  0.58575600  0.18062300  0.46116500  1
  C  395  1  0.54332700  0.16466300  0.43627300  1
  C  396  1  0.55958900  0.16794200  0.41151800  1
  C  401  1  0.67826400  0.21587900  0.48952200  1
  C  405  1  0.73573400  0.19009200  0.38467200  1
  C  409  1  0.62860400  0.74226300  0.17587900  1
  C  410  1  0.62883800  0.75361600  0.20688100  1
  C  412  1  0.52102700  0.77558800  0.21350900  1
  C  413  1  0.51740400  0.76587400  0.18261500  1
  C  414  1  0.57201000  0.74969000  0.16460400  1
  C  416  1  0.47040400  0.79070700  0.23496600  1
  C  417  1  0.45772600  0.78761700  0.26026500  1
  C  418  1  0.40580400  0.80474000  0.27952700  1
  C  419  1  0.36462200  0.82373500  0.27419700  1
  C  420  1  0.37994600  0.82501500  0.24832900  1
  C  425  1  0.49349800  0.76636100  0.26674900  1
  C  429  1  0.45781000  0.77015800  0.16813500  1
  C  433  1  0.96191900  0.43044400  0.25520200  1
  C  434  1  0.96214700  0.45011400  0.24387600  1
  C  436  1  0.85441200  0.43471100  0.22182900  1
  C  437  1  0.85084200  0.41349200  0.23149500  1
  C  438  1  0.90542400  0.41167900  0.24770000  1
  C  440  1  0.80379900  0.44104700  0.20670000  1
  C  441  1  0.79111900  0.46943300  0.20978700  1
  C  442  1  0.73920400  0.47156900  0.19265800  1
  C  443  1  0.69803200  0.44724200  0.17365900  1
  C  444  1  0.71335600  0.42009500  0.17238000  1
  C  449  1  0.82686700  0.49718100  0.23104600  1
  C  453  1  0.79132900  0.39466500  0.22713700  1
  C  457  1  0.29521000  0.82152600  0.56694000  1
  C  458  1  0.29541400  0.79053000  0.54726600  1
  C  460  1  0.18765800  0.78389700  0.56265700  1
  C  461  1  0.18409800  0.81478300  0.58387600  1
  C  462  1  0.23869700  0.83279400  0.58569300  1
  C  464  1  0.13703400  0.76243900  0.55632500  1
  C  465  1  0.12433100  0.73714500  0.52793800  1
  C  466  1  0.07242400  0.71787900  0.52580900  1
  C  467  1  0.03129200  0.72319700  0.55014500  1
  C  468  1  0.04662000  0.74907000  0.57728800  1
  C  473  1  0.16004900  0.73066400  0.50018800  1
  C  477  1  0.12457700  0.82926000  0.60269600  1
  C  481  1  0.62861000  0.25389400  0.82283700  1
  C  482  1  0.62882700  0.24255100  0.79183600  1
  C  484  1  0.52101100  0.22058400  0.78521200  1
  C  485  1  0.51740700  0.23028800  0.81610600  1
  C  486  1  0.57202000  0.24646600  0.83411200  1
  C  488  1  0.47038400  0.20546300  0.76375800  1
  C  489  1  0.45768400  0.20856100  0.73846700  1
  C  490  1  0.40577400  0.19142900  0.71920000  1
  C  491  1  0.36464700  0.17240800  0.72451500  1
  C  492  1  0.37996800  0.17113400  0.75038500  1
  C  497  1  0.49341900  0.22983500  0.73199400  1
  C  501  1  0.45782300  0.22599800  0.83058600  1
  C  505  1  0.96191000  0.56572300  0.74356100  1
  C  506  1  0.96214700  0.54606800  0.75490600  1
  C  508  1  0.85433900  0.56140900  0.77688400  1
  C  509  1  0.85071700  0.58259700  0.76717900  1
  C  510  1  0.90531800  0.58442500  0.75099400  1
  C  512  1  0.80371900  0.55506700  0.79200100  1
  C  513  1  0.79104700  0.52668000  0.78891100  1
  C  514  1  0.73912100  0.52453500  0.80602900  1
  C  515  1  0.69793200  0.54885900  0.82502500  1
  C  516  1  0.71325500  0.57600800  0.82630900  1
  C  521  1  0.82682800  0.49893900  0.76765500  1
  C  525  1  0.79112500  0.60136200  0.77146800  1
  C  529  1  0.29524000  0.17457700  0.43174200  1
  C  530  1  0.29544400  0.20557200  0.45141400  1
  C  532  1  0.18769300  0.21220200  0.43601400  1
  C  533  1  0.18415000  0.18131500  0.41478500  1
  C  534  1  0.23874900  0.16330900  0.41297300  1
  C  536  1  0.13705900  0.23365700  0.44234900  1
  C  537  1  0.12435100  0.25894600  0.47074000  1
  C  538  1  0.07244700  0.27821400  0.47287400  1
  C  539  1  0.03132400  0.27290600  0.44853800  1
  C  540  1  0.04663800  0.24703200  0.42139300  1
  C  545  1  0.16006400  0.26542000  0.49849100  1
  C  549  1  0.12464400  0.16684000  0.39595400  1
  C  553  1  0.71449200  0.63902700  0.13965300  1
  C  554  1  0.69928100  0.63979800  0.16660600  1
  C  556  1  0.66000100  0.58897700  0.14240700  1
  C  557  1  0.68404000  0.58518600  0.11479700  1
  C  558  1  0.70928400  0.61033900  0.11420000  1
  C  560  1  0.62649600  0.56662600  0.14652900  1
  C  561  1  0.61544400  0.56632000  0.17355100  1
  C  562  1  0.58748700  0.54037300  0.17189600  1
  C  563  1  0.57336600  0.51417200  0.14458700  1
  C  564  1  0.57506300  0.51816500  0.11962800  1
  C  569  1  0.63558500  0.59103900  0.20322300  1
  C  573  1  0.68490500  0.55628700  0.08630000  1
  C  577  1  0.04794800  0.49737500  0.35841700  1
  C  578  1  0.03285800  0.52357900  0.35766900  1
  C  580  1  0.99339200  0.55017300  0.40846400  1
  C  581  1  0.01725900  0.52631900  0.41223700  1
  C  582  1  0.04253800  0.50057500  0.38708500  1
  C  584  1  0.95989100  0.57665300  0.43080500  1
  C  585  1  0.94882700  0.60397400  0.43109600  1
  C  586  1  0.92082800  0.62826600  0.45703000  1
  C  587  1  0.90658800  0.62718600  0.48323700  1
  C  588  1  0.90842600  0.59823900  0.47926100  1
  C  593  1  0.96898300  0.60891800  0.40637300  1
  C  597  1  0.01788800  0.52666600  0.44111000  1
  C  601  1  0.38133300  0.85781300  0.50001900  1
  C  602  1  0.36620600  0.83086100  0.47381700  1
  C  604  1  0.32673200  0.85506400  0.44722600  1
  C  605  1  0.35059000  0.88269300  0.47108300  1
  C  606  1  0.37587400  0.88328200  0.49682500  1
  C  608  1  0.29323400  0.85092600  0.42074500  1
  C  609  1  0.28220400  0.82390000  0.39342000  1
  C  610  1  0.25420200  0.82554400  0.36912700  1
  C  611  1  0.23991800  0.85283200  0.37021700  1
  C  612  1  0.24173700  0.87779800  0.39916900  1
  C  617  1  0.30239900  0.79423400  0.38846700  1
  C  621  1  0.35119600  0.91122100  0.47074100  1
  C  625  1  0.71466800  0.35711000  0.85906900  1
  C  626  1  0.69945200  0.35634200  0.83211700  1
  C  628  1  0.66007100  0.40714700  0.85631100  1
  C  629  1  0.68403000  0.41093600  0.88393000  1
  C  630  1  0.70930800  0.38578600  0.88452500  1
  C  632  1  0.62655000  0.42948800  0.85217900  1
  C  633  1  0.61552300  0.42979300  0.82515600  1
  C  634  1  0.58750300  0.45572700  0.82680500  1
  C  635  1  0.57321100  0.48192200  0.85409600  1
  C  636  1  0.57502200  0.47792900  0.87905800  1
  C  641  1  0.63574900  0.40508700  0.79549000  1
  C  645  1  0.68476100  0.43982300  0.91244000  1
  C  649  1  0.04779400  0.49873800  0.64032200  1
  C  650  1  0.03263000  0.47254700  0.64108600  1
  C  652  1  0.99331600  0.44593000  0.59026900  1
  C  653  1  0.01730100  0.46976100  0.58648500  1
  C  654  1  0.04254400  0.49551000  0.61163800  1
  C  656  1  0.95983100  0.41945200  0.56791800  1
  C  657  1  0.94877300  0.39212700  0.56761900  1
  C  658  1  0.92083100  0.36782900  0.54167100  1
  C  659  1  0.90673600  0.36892700  0.51546500  1
  C  660  1  0.90843300  0.39787700  0.51944800  1
  C  665  1  0.96888500  0.38718300  0.59234700  1
  C  669  1  0.01811400  0.46937200  0.55759100  1
  C  673  1  0.38129600  0.13830400  0.49867600  1
  C  674  1  0.36621800  0.16525900  0.52488100  1
  C  676  1  0.32674600  0.14106000  0.55147600  1
  C  677  1  0.35059400  0.11342900  0.52761800  1
  C  678  1  0.37587200  0.11283500  0.50187300  1
  C  680  1  0.29325100  0.14520100  0.57795800  1
  C  681  1  0.28220400  0.17223000  0.60528000  1
  C  682  1  0.25421200  0.17059000  0.62957600  1
  C  683  1  0.23996000  0.14330600  0.62849700  1
  C  684  1  0.24178200  0.11833400  0.59954800  1
  C  689  1  0.30237000  0.20189600  0.61022400  1
  C  693  1  0.35120300  0.08490200  0.52796300  1
  C  697  1  0.72706800  0.68179800  0.07040100  1
  C  698  1  0.67329500  0.69155600  0.05962700  1
  C  700  1  0.68629800  0.65217000  0.00953300  1
  C  701  1  0.74550800  0.64297200  0.01761000  1
  C  702  1  0.76540000  0.65851200  0.04784800  1
  C  704  1  0.65326900  0.63549200  0.98178800  1
  C  705  1  0.63623000  0.64535000  0.96161500  1
  C  706  1  0.60540700  0.62473200  0.93438200  1
  C  707  1  0.59199700  0.59477600  0.92632700  1
  C  708  1  0.60321300  0.58829100  0.94945600  1
  C  713  1  0.65355300  0.67519500  0.96641800  1
  C  717  1  0.78552700  0.61744700  0.99540700  1
  C  721  1  0.06049700  0.38533800  0.31556700  1
  C  722  1  0.00667600  0.36482800  0.30582700  1
  C  724  1  0.01967300  0.35409800  0.34519600  1
  C  725  1  0.07890800  0.37135300  0.35438700  1
  C  726  1  0.09881000  0.38605300  0.33885000  1
  C  728  1  0.98663400  0.34303500  0.36187700  1
  C  729  1  0.96962100  0.31300300  0.35203000  1
  C  730  1  0.93883600  0.30638700  0.37265600  1
  C  731  1  0.92550900  0.32830500  0.40261400  1
  C  732  1  0.93659900  0.35791800  0.40908700  1
  C  737  1  0.98692900  0.28795900  0.32218300  1
  C  741  1  0.11893200  0.37466100  0.37990500  1
  C  745  1  0.39381700  0.92699200  0.61206000  1
  C  746  1  0.34000200  0.93776100  0.63257200  1
  C  748  1  0.35301000  0.98786400  0.64331200  1
  C  749  1  0.41224300  0.97979900  0.62605500  1
  C  750  1  0.43213600  0.94956100  0.61135000  1
  C  752  1  0.31998000  0.01560900  0.65438200  1
  C  753  1  0.30298100  0.03578900  0.68441800  1
  C  754  1  0.27220000  0.06303400  0.69104100  1
  C  755  1  0.25887500  0.07108200  0.66913200  1
  C  756  1  0.26993800  0.04794500  0.63951300  1
  C  761  1  0.32030000  0.03098000  0.70945700  1
  C  765  1  0.45226700  0.00201100  0.62275000  1
  C  769  1  0.72711100  0.31433400  0.92831100  1
  C  770  1  0.67337100  0.30454400  0.93907400  1
  C  772  1  0.68637800  0.34392000  0.98917300  1
  C  773  1  0.74559800  0.35311900  0.98110400  1
  C  774  1  0.76548900  0.33759300  0.95086700  1
  C  776  1  0.65333300  0.36059800  0.01691400  1
  C  777  1  0.63628700  0.35074800  0.03709200  1
  C  778  1  0.60545400  0.37137000  0.06432300  1
  C  779  1  0.59202200  0.40132200  0.07236300  1
  C  780  1  0.60325200  0.40779600  0.04923000  1
  C  785  1  0.65361900  0.32090600  0.03229900  1
  C  789  1  0.78562200  0.37863700  0.00331600  1
  C  793  1  0.06036300  0.61076300  0.68311900  1
  C  794  1  0.00658700  0.63129200  0.69287800  1
  C  796  1  0.01959800  0.64201500  0.65350400  1
  C  797  1  0.07881400  0.62474500  0.64430600  1
  C  798  1  0.09870100  0.61003900  0.65983800  1
  C  800  1  0.98657100  0.65308400  0.63682600  1
  C  801  1  0.96958600  0.68312000  0.64667800  1
  C  802  1  0.93881000  0.68974300  0.62605500  1
  C  803  1  0.92547900  0.66783000  0.59609800  1
  C  804  1  0.93652700  0.63821300  0.58962000  1
  C  809  1  0.98691800  0.70816100  0.67652300  1
  C  813  1  0.11883200  0.62143000  0.61878400  1
  C  817  1  0.39387200  0.06911800  0.38663700  1
  C  818  1  0.34006600  0.05834600  0.36611600  1
  C  820  1  0.35305600  0.00824600  0.35538700  1
  C  821  1  0.41227800  0.01631400  0.37265400  1
  C  822  1  0.43217600  0.04655100  0.38735600  1
  C  824  1  0.32001200  0.98050400  0.34432100  1
  C  825  1  0.30297400  0.96033100  0.31429000  1
  C  826  1  0.27214200  0.93309800  0.30767300  1
  C  827  1  0.25872100  0.92504700  0.32957800  1
  C  828  1  0.26993300  0.94817700  0.35919000  1
  C  833  1  0.32030800  0.96513300  0.28924800  1
  C  837  1  0.45228900  0.99410400  0.37596700  1
  H  5  1  0.84536200  0.68883700  0.10438800  1
  H  6  1  0.81325500  0.72426700  0.11577500  1
  H  9  1  0.68554100  0.73378800  0.12267800  1
  H  10  1  0.63244100  0.70335000  0.11431400  1
  H  11  1  0.75819200  0.75456700  0.16868700  1
  H  12  1  0.75903300  0.73908200  0.19181700  1
  H  15  1  0.62399600  0.68170800  0.14760300  1
  H  16  1  0.67370000  0.69597800  0.17953100  1
  H  18  1  0.67829300  0.65175600  0.09552500  1
  H  19  1  0.76516700  0.64631000  0.09302600  1
  H  21  1  0.80001600  0.68646300  0.17433000  1
  H  22  1  0.83694100  0.66582300  0.13909000  1
  H  27  1  0.17875800  0.41229200  0.30852700  1
  H  28  1  0.14660800  0.38827200  0.27309800  1
  H  31  1  0.01889000  0.38567800  0.26361300  1
  H  32  1  0.96580900  0.40773700  0.29406300  1
  H  33  1  0.09149000  0.41092900  0.24284600  1
  H  34  1  0.09234200  0.44954800  0.25836100  1
  H  37  1  0.95739500  0.46267600  0.31575800  1
  H  38  1  0.00707200  0.48035500  0.30150500  1
  H  40  1  0.01172300  0.44050000  0.34565000  1
  H  41  1  0.09859600  0.44344700  0.35109100  1
  H  43  1  0.13342000  0.48463900  0.31097500  1
  H  44  1  0.17036100  0.47000800  0.33158300  1
  H  49  1  0.51207800  0.89299300  0.58511400  1
  H  50  1  0.47990300  0.88158600  0.60913100  1
  H  53  1  0.35218000  0.87469800  0.61171200  1
  H  54  1  0.29912300  0.88309600  0.58964900  1
  H  55  1  0.42476700  0.82867500  0.58646300  1
  H  56  1  0.42563500  0.80557300  0.54784400  1
  H  59  1  0.29072800  0.84985300  0.53470800  1
  H  60  1  0.34039400  0.81791700  0.51703300  1
  H  62  1  0.34506800  0.90191800  0.55689400  1
  H  63  1  0.43194600  0.90441000  0.55395300  1
  H  65  1  0.46675500  0.82309900  0.51276100  1
  H  66  1  0.50370500  0.85833800  0.52739900  1
  H  71  1  0.84542200  0.30725500  0.89431500  1
  H  72  1  0.81326900  0.27183200  0.88292400  1
  H  75  1  0.68554800  0.26234300  0.87602500  1
  H  76  1  0.63248200  0.29279400  0.88440200  1
  H  77  1  0.75817600  0.24155400  0.83001300  1
  H  78  1  0.75904500  0.25704700  0.80689100  1
  H  81  1  0.62408000  0.31445200  0.85112000  1
  H  82  1  0.67377400  0.30017500  0.81918900  1
  H  84  1  0.67839200  0.34437300  0.90319100  1
  H  85  1  0.76527200  0.34980800  0.90569000  1
  H  87  1  0.80011300  0.30965500  0.82438600  1
  H  88  1  0.83704500  0.33027900  0.85962400  1
  H  93  1  0.17865900  0.58381200  0.69014800  1
  H  94  1  0.14655600  0.60784700  0.72558100  1
  H  97  1  0.01884000  0.61046100  0.73510200  1
  H  98  1  0.96574200  0.58839100  0.70466200  1
  H  99  1  0.09149700  0.58522000  0.75586800  1
  H  100  1  0.09234200  0.54660300  0.74037200  1
  H  103  1  0.95729900  0.53345800  0.68300500  1
  H  104  1  0.00700400  0.51579200  0.69726500  1
  H  106  1  0.01158600  0.55560100  0.65306800  1
  H  107  1  0.09845800  0.55265300  0.64761600  1
  H  109  1  0.13332500  0.51148500  0.68775100  1
  H  110  1  0.17024200  0.52609400  0.66711800  1
  H  115  1  0.51211800  0.10312300  0.41359600  1
  H  116  1  0.47996000  0.11452800  0.38957500  1
  H  119  1  0.35224200  0.12140800  0.38697700  1
  H  120  1  0.29916800  0.11301000  0.40903100  1
  H  121  1  0.42481400  0.16743600  0.41223300  1
  H  122  1  0.42565700  0.19053800  0.45085200  1
  H  125  1  0.29074000  0.14625400  0.46397300  1
  H  126  1  0.34039700  0.17819200  0.48165400  1
  H  128  1  0.34508800  0.09419300  0.44179800  1
  H  129  1  0.43196600  0.09170600  0.44475000  1
  H  131  1  0.46675200  0.17301800  0.48594100  1
  H  132  1  0.50371000  0.13778200  0.47131100  1
  H  137  1  0.47153800  0.57431700  0.89102600  1
  H  138  1  0.51690900  0.59677700  0.88111600  1
  H  141  1  0.64698000  0.59242700  0.87772100  1
  H  142  1  0.68788300  0.56709900  0.88509500  1
  H  143  1  0.57609200  0.57248400  0.82917800  1
  H  144  1  0.56975200  0.53415600  0.80484900  1
  H  147  1  0.67801400  0.51133800  0.84898800  1
  H  148  1  0.62913600  0.49890100  0.81671700  1
  H  150  1  0.62026100  0.53476500  0.89931600  1
  H  151  1  0.53235800  0.53798700  0.90206100  1
  H  153  1  0.50357100  0.50107700  0.81984300  1
  H  154  1  0.46297600  0.51707200  0.85443500  1
  H  159  1  0.13832200  0.10635400  0.68396000  1
  H  160  1  0.18368600  0.11627800  0.71633400  1
  H  163  1  0.31375000  0.11970400  0.71539100  1
  H  164  1  0.35465900  0.11233900  0.68269300  1
  H  165  1  0.24280600  0.16823100  0.74398000  1
  H  166  1  0.23643700  0.19255600  0.72997400  1
  H  169  1  0.34474800  0.14843900  0.66303300  1
  H  170  1  0.29581900  0.18069200  0.68285100  1
  H  172  1  0.28704600  0.09808700  0.63612700  1
  H  173  1  0.19914300  0.09533000  0.63660100  1
  H  175  1  0.17027100  0.17753900  0.68189100  1
  H  176  1  0.12971600  0.14293800  0.66329700  1
  H  181  1  0.80498100  0.31347200  0.42306400  1
  H  182  1  0.85032600  0.28109400  0.40060800  1
  H  185  1  0.98039600  0.28202700  0.40496100  1
  H  186  1  0.02131800  0.31472400  0.43028700  1
  H  187  1  0.90946600  0.25344400  0.42490600  1
  H  188  1  0.90311800  0.26744800  0.46323700  1
  H  191  1  0.01144400  0.33438400  0.48604600  1
  H  192  1  0.96252100  0.31457100  0.49849000  1
  H  194  1  0.95372500  0.36129700  0.46261300  1
  H  195  1  0.86581900  0.36082500  0.45939000  1
  H  197  1  0.83697500  0.31553700  0.49631300  1
  H  198  1  0.79640600  0.33413500  0.48031400  1
  H  203  1  0.47159000  0.42178600  0.10768400  1
  H  204  1  0.51696500  0.39932600  0.11759200  1
  H  207  1  0.64704100  0.40366700  0.12097200  1
  H  208  1  0.68793900  0.42898600  0.11358400  1
  H  209  1  0.57618900  0.42362200  0.16952200  1
  H  210  1  0.56987100  0.46195400  0.19384800  1
  H  213  1  0.67810300  0.48474800  0.14968600  1
  H  214  1  0.62923900  0.49719800  0.18196000  1
  H  216  1  0.62031100  0.46132200  0.09936500  1
  H  217  1  0.53240700  0.45810700  0.09663400  1
  H  219  1  0.50367000  0.49503100  0.17885700  1
  H  220  1  0.46306100  0.47903500  0.14426800  1
  H  225  1  0.13825000  0.88975400  0.31474200  1
  H  226  1  0.18361600  0.87983600  0.28236900  1
  H  229  1  0.31368300  0.87643300  0.28332100  1
  H  230  1  0.35459200  0.88381000  0.31602100  1
  H  231  1  0.24278100  0.82789400  0.25472800  1
  H  232  1  0.23643700  0.80356900  0.26873400  1
  H  235  1  0.34471800  0.84770900  0.33568300  1
  H  236  1  0.29582600  0.81544200  0.31585900  1
  H  238  1  0.28697600  0.89804300  0.36258200  1
  H  239  1  0.19907400  0.90079000  0.36210600  1
  H  241  1  0.17026400  0.81857400  0.31681200  1
  H  242  1  0.12968100  0.85316900  0.33540600  1
  H  247  1  0.80494200  0.68266200  0.57564800  1
  H  248  1  0.85031100  0.71503400  0.59809600  1
  H  251  1  0.98037900  0.71408400  0.59372800  1
  H  252  1  0.02128200  0.68138200  0.56840100  1
  H  253  1  0.90945600  0.74267200  0.57378600  1
  H  254  1  0.90309200  0.72866300  0.53545400  1
  H  257  1  0.01138000  0.66171600  0.51264100  1
  H  258  1  0.96246300  0.68153500  0.50019900  1
  H  260  1  0.95366000  0.63481900  0.53609000  1
  H  261  1  0.86575700  0.63529700  0.53931700  1
  H  263  1  0.83691500  0.68058300  0.50239200  1
  H  264  1  0.79634600  0.66199300  0.51840000  1
  H  271  1  0.14324900  0.83832700  0.23886500  1
  H  278  1  0.91176800  0.69862400  0.18017500  1
  H  279  1  0.86598800  0.76439500  0.15869100  1
  H  280  1  0.06568800  0.81019300  0.29569700  1
  H  282  1  0.06395200  0.72888000  0.21423500  1
  H  283  1  0.00372300  0.70208900  0.20885800  1
  H  284  1  0.99978000  0.73742600  0.24085000  1
  H  286  1  0.07776700  0.78180400  0.17408200  1
  H  287  1  0.10872400  0.81827500  0.18985700  1
  H  288  1  0.02223100  0.81240400  0.18696200  1
  H  295  1  0.47664900  0.39732500  0.15909900  1
  H  302  1  0.24519800  0.47830500  0.29880900  1
  H  303  1  0.19926500  0.39108200  0.23297700  1
  H  304  1  0.39908200  0.48229300  0.18723500  1
  H  306  1  0.39742200  0.48207100  0.26855400  1
  H  307  1  0.33722200  0.50350000  0.29535600  1
  H  308  1  0.33332667  0.50018800  0.26003100  1
  H  310  1  0.41111700  0.38904700  0.21560500  1
  H  311  1  0.44208400  0.36835900  0.17913600  1
  H  312  1  0.35558800  0.37133900  0.18500100  1
  H  319  1  0.80992900  0.75853200  0.60009400  1
  H  326  1  0.57853300  0.81727200  0.51910900  1
  H  327  1  0.53253200  0.83864800  0.60632300  1
  H  328  1  0.73236200  0.70170800  0.51512800  1
  H  330  1  0.73076000  0.78326100  0.51536200  1
  H  331  1  0.67057800  0.78863200  0.49392600  1
  H  332  1  0.66666833  0.75661600  0.49723200  1
  H  334  1  0.74444100  0.82331700  0.60836200  1
  H  335  1  0.77539000  0.80754100  0.62905700  1
  H  336  1  0.68889800  0.81043600  0.62607700  1
  H  343  1  0.14328400  0.15777300  0.75983300  1
  H  350  1  0.91188200  0.29749400  0.81856100  1
  H  351  1  0.86594700  0.23169300  0.83998900  1
  H  352  1  0.06570800  0.18591400  0.70301100  1
  H  354  1  0.06407700  0.26721800  0.78451900  1
  H  355  1  0.00388700  0.29402700  0.78990100  1
  H  356  1  0.99994400  0.25870000  0.75789200  1
  H  358  1  0.07779400  0.21428600  0.82462000  1
  H  359  1  0.10873900  0.17781300  0.80884100  1
  H  360  1  0.02224800  0.18369100  0.81173800  1
  H  367  1  0.47656200  0.59878200  0.83961300  1
  H  374  1  0.24507800  0.51779900  0.69991000  1
  H  375  1  0.19929200  0.60504600  0.76570000  1
  H  376  1  0.39899600  0.51381500  0.81146300  1
  H  378  1  0.39726800  0.51398900  0.73015800  1
  H  379  1  0.33703800  0.49257800  0.70336400  1
  H  380  1  0.33310000  0.49591000  0.73869600  1
  H  382  1  0.41108200  0.60705700  0.78309800  1
  H  383  1  0.44204200  0.62774700  0.81956900  1
  H  384  1  0.35554800  0.62477300  0.81369800  1
  H  391  1  0.80991400  0.23759700  0.39860600  1
  H  398  1  0.57853300  0.17885600  0.47960600  1
  H  399  1  0.53259200  0.15746300  0.39238400  1
  H  400  1  0.73244700  0.29440500  0.48359000  1
  H  402  1  0.73075700  0.21287700  0.48337000  1
  H  403  1  0.67056200  0.20750300  0.50480000  1
  H  404  1  0.66666033  0.23951600  0.50149000  1
  H  406  1  0.74444800  0.17280600  0.39033700  1
  H  407  1  0.77538000  0.18859000  0.36964500  1
  H  408  1  0.68888900  0.18569500  0.37263200  1
  H  415  1  0.56859800  0.74234400  0.14247800  1
  H  422  1  0.39774800  0.80259900  0.29767200  1
  H  423  1  0.35267000  0.83732500  0.24188000  1
  H  424  1  0.66561100  0.74891000  0.21735000  1
  H  426  1  0.49409500  0.74432700  0.24702100  1
  H  427  1  0.47035400  0.76411200  0.28451100  1
  H  428  1  0.54440100  0.77388800  0.27362200  1
  H  430  1  0.41351400  0.76196800  0.17386700  1
  H  431  1  0.46138200  0.75837900  0.14395700  1
  H  432  1  0.45159800  0.79365900  0.17548700  1
  H  439  1  0.90205700  0.39686900  0.25500900  1
  H  446  1  0.73114500  0.49185400  0.19479600  1
  H  447  1  0.68608400  0.40133700  0.16007300  1
  H  448  1  0.99888000  0.46531600  0.24861900  1
  H  450  1  0.82743900  0.49949400  0.25308300  1
  H  451  1  0.80371900  0.51718900  0.23328700  1
  H  452  1  0.87777600  0.49653100  0.22352700  1
  H  454  1  0.74696600  0.40854200  0.23532000  1
  H  455  1  0.79492900  0.38222800  0.23887900  1
  H  456  1  0.78520800  0.37854000  0.20362200  1
  H  463  1  0.23533600  0.85491300  0.60050400  1
  H  470  1  0.06434800  0.69973700  0.50552500  1
  H  471  1  0.01937000  0.75551800  0.59605300  1
  H  472  1  0.33215600  0.78006900  0.53206900  1
  H  474  1  0.16062100  0.75039400  0.49788500  1
  H  475  1  0.13688000  0.71290400  0.48018200  1
  H  476  1  0.21096100  0.72379000  0.50082600  1
  H  478  1  0.08022300  0.82356400  0.58881600  1
  H  479  1  0.12818400  0.85343700  0.61512700  1
  H  480  1  0.11844000  0.82187400  0.61882300  1
  H  487  1  0.56862400  0.25380400  0.85623700  1
  H  494  1  0.39770500  0.19357500  0.70106000  1
  H  495  1  0.35271400  0.15881600  0.75683100  1
  H  496  1  0.66559900  0.24725700  0.78136700  1
  H  498  1  0.49400100  0.25186300  0.75173000  1
  H  499  1  0.47025000  0.23208900  0.71424000  1
  H  500  1  0.54432500  0.22231800  0.72511600  1
  H  502  1  0.41351800  0.23419000  0.82486100  1
  H  503  1  0.46140500  0.23777200  0.85476300  1
  H  504  1  0.45161600  0.20249500  0.82323000  1
  H  511  1  0.90190400  0.59921000  0.74365400  1
  H  518  1  0.73106600  0.50425000  0.80388900  1
  H  519  1  0.68597500  0.59476700  0.83861900  1
  H  520  1  0.99892000  0.53089100  0.75019500  1
  H  522  1  0.82742100  0.49663400  0.74562100  1
  H  523  1  0.80368900  0.47892800  0.76540700  1
  H  524  1  0.87773000  0.49959800  0.77518500  1
  H  526  1  0.74682500  0.58744300  0.76327800  1
  H  527  1  0.79469400  0.61376700  0.75969400  1
  H  528  1  0.78491500  0.61750800  0.79497100  1
  H  535  1  0.23540000  0.14118900  0.39815800  1
  H  542  1  0.06437500  0.29635400  0.49316100  1
  H  543  1  0.01938400  0.24059000  0.40263200  1
  H  544  1  0.33217100  0.21603500  0.46661700  1
  H  546  1  0.16064100  0.24568300  0.50078400  1
  H  547  1  0.13688500  0.28317200  0.51849700  1
  H  548  1  0.21097100  0.27229800  0.49785900  1
  H  550  1  0.08028000  0.17252500  0.40983000  1
  H  551  1  0.12826900  0.14266300  0.38351400  1
  H  552  1  0.11851600  0.17423700  0.37983600  1
  H  559  1  0.72300500  0.60739400  0.09408100  1
  H  566  1  0.58238000  0.53972400  0.19108900  1
  H  567  1  0.56309000  0.50174000  0.09881100  1
  H  568  1  0.70386900  0.65878200  0.18658900  1
  H  570  1  0.68891400  0.59501800  0.20347000  1
  H  571  1  0.62527400  0.58649300  0.22117600  1
  H  572  1  0.60843900  0.61115000  0.20816600  1
  H  574  1  0.70805400  0.53924900  0.08970800  1
  H  575  1  0.71307700  0.55712100  0.06878700  1
  H  576  1  0.63432200  0.54965100  0.07807700  1
  H  583  1  0.05613200  0.48337500  0.39001400  1
  H  590  1  0.91571500  0.64809900  0.45766200  1
  H  591  1  0.89644000  0.59385200  0.49568800  1
  H  592  1  0.03755700  0.52459400  0.33869500  1
  H  594  1  0.02232000  0.60520600  0.40241200  1
  H  595  1  0.95863300  0.63140900  0.41090100  1
  H  596  1  0.94187400  0.59373200  0.38625600  1
  H  598  1  0.04108700  0.54707500  0.45818600  1
  H  599  1  0.04589400  0.50827400  0.44026500  1
  H  600  1  0.96723400  0.52511700  0.44769900  1
  H  607  1  0.38946000  0.90341100  0.51402600  1
  H  614  1  0.24909600  0.80634300  0.34929400  1
  H  615  1  0.22973500  0.89861100  0.40355800  1
  H  616  1  0.37090700  0.81087400  0.47280000  1
  H  618  1  0.35573200  0.79399900  0.39218900  1
  H  619  1  0.29207800  0.77627500  0.36597200  1
  H  620  1  0.27529200  0.78928800  0.40364300  1
  H  622  1  0.37439000  0.90789500  0.45033300  1
  H  623  1  0.37919800  0.92877000  0.48913500  1
  H  624  1  0.30054000  0.91935400  0.47229100  1
  H  631  1  0.72297000  0.38872800  0.90465100  1
  H  638  1  0.58240100  0.45636700  0.80760700  1
  H  639  1  0.56301000  0.49434900  0.89987200  1
  H  640  1  0.70409100  0.33736400  0.81213300  1
  H  642  1  0.68908700  0.40113600  0.79526700  1
  H  643  1  0.62545700  0.40963200  0.77753400  1
  H  644  1  0.60864700  0.38496300  0.79053000  1
  H  646  1  0.70791000  0.45688300  0.90906700  1
  H  647  1  0.71286300  0.43899000  0.92997100  1
  H  648  1  0.63413900  0.44642600  0.92062100  1
  H  655  1  0.05622600  0.51269400  0.60870000  1
  H  662  1  0.91572500  0.34799000  0.54102700  1
  H  663  1  0.89646400  0.40226400  0.50301900  1
  H  664  1  0.03724800  0.47154400  0.66006700  1
  H  666  1  0.02221400  0.39091100  0.59633000  1
  H  667  1  0.95855700  0.36468700  0.58780900  1
  H  668  1  0.94172900  0.40235900  0.61245400  1
  H  670  1  0.04129000  0.44893900  0.54054600  1
  H  671  1  0.04623500  0.48773500  0.55843100  1
  H  672  1  0.96751400  0.47094400  0.55096400  1
  H  679  1  0.38945200  0.09270800  0.48467300  1
  H  686  1  0.24910600  0.18979200  0.64940900  1
  H  687  1  0.22978800  0.09752000  0.59516100  1
  H  688  1  0.37092200  0.18524500  0.52589500  1
  H  690  1  0.35570600  0.20214100  0.60650700  1
  H  691  1  0.29203000  0.21985800  0.63271500  1
  H  692  1  0.27525800  0.20683100  0.59504100  1
  H  694  1  0.37440700  0.08823000  0.54837000  1
  H  695  1  0.37919800  0.06735300  0.50956800  1
  H  696  1  0.30054400  0.07677100  0.52641900  1
  H  703  1  0.80599700  0.65095900  0.05390100  1
  H  710  1  0.59685400  0.63125000  0.91910700  1
  H  711  1  0.59337200  0.56804000  0.94709600  1
  H  712  1  0.64290500  0.70854500  0.07339400  1
  H  714  1  0.67997800  0.68890400  0.98717300  1
  H  715  1  0.60820400  0.68686100  0.96671100  1
  H  716  1  0.68531900  0.67290700  0.94837600  1
  H  718  1  0.79836500  0.62084800  0.97693900  1
  H  719  1  0.75719700  0.59691900  0.98695400  1
  H  720  1  0.83179900  0.61467900  0.00473400  1
  H  727  1  0.13942400  0.39964800  0.34639900  1
  H  734  1  0.93029300  0.28459600  0.36614500  1
  H  735  1  0.92675700  0.37581100  0.42933600  1
  H  736  1  0.97627700  0.36161700  0.28884400  1
  H  738  1  0.01331400  0.29500500  0.30846400  1
  H  739  1  0.94157900  0.27657700  0.31052900  1
  H  740  1  0.01873300  0.27221200  0.32446800  1
  H  742  1  0.13174900  0.35278800  0.37649700  1
  H  743  1  0.09061200  0.38673700  0.40043700  1
  H  744  1  0.16521200  0.38674700  0.38267000  1
  H  751  1  0.47275100  0.94351500  0.59775400  1
  H  758  1  0.26367000  0.07831400  0.71283500  1
  H  759  1  0.26008100  0.05030100  0.62162000  1
  H  760  1  0.30959800  0.92398900  0.63578100  1
  H  762  1  0.34667900  0.01021300  0.70240300  1
  H  763  1  0.27495400  0.03070900  0.72084200  1
  H  764  1  0.35211000  0.04900800  0.72520200  1
  H  766  1  0.46509400  0.02047000  0.64462500  1
  H  767  1  0.42394700  0.01047100  0.61068000  1
  H  768  1  0.49854500  0.99268800  0.61066000  1
  H  775  1  0.80608600  0.34514700  0.94481500  1
  H  782  1  0.59689300  0.36485500  0.07959900  1
  H  783  1  0.59340800  0.42804500  0.05158300  1
  H  784  1  0.64298200  0.28755800  0.92530100  1
  H  786  1  0.68004800  0.30719600  0.01154500  1
  H  787  1  0.60827500  0.30924200  0.03200900  1
  H  788  1  0.68538700  0.32320200  0.05034500  1
  H  790  1  0.79845700  0.37522000  0.02177400  1
  H  791  1  0.75729700  0.39916700  0.01178000  1
  H  792  1  0.83189500  0.38140600  0.99399200  1
  H  799  1  0.13930200  0.59643600  0.65228500  1
  H  806  1  0.93028900  0.71153500  0.63256600  1
  H  807  1  0.92666300  0.62032000  0.56937300  1
  H  808  1  0.97619300  0.63450900  0.70986500  1
  H  810  1  0.01329400  0.70110800  0.69023800  1
  H  811  1  0.94157800  0.71955000  0.68818100  1
  H  812  1  0.01873300  0.72390200  0.67423500  1
  H  814  1  0.13167400  0.64330200  0.62219200  1
  H  815  1  0.09050200  0.60936200  0.59825500  1
  H  816  1  0.16510300  0.60933400  0.61601300  1
  H  823  1  0.47278400  0.05259700  0.40095700  1
  H  830  1  0.26358800  0.91782400  0.28588200  1
  H  831  1  0.26008100  0.94582200  0.37708300  1
  H  832  1  0.30967600  0.07211700  0.36290100  1
  H  834  1  0.34673100  0.98588800  0.29629700  1
  H  835  1  0.27496400  0.96542500  0.27787300  1
  H  836  1  0.35207800  0.94709100  0.27349600  1
  H  838  1  0.46511900  0.97563900  0.35409600  1
  H  839  1  0.42396000  0.98564900  0.38804000  1
  H  840  1  0.49856500  0.00342700  0.38806000  1
  N  267  1  0.02629600  0.79203600  0.25437800  1
  N  277  1  0.94008900  0.77350100  0.18869700  1
  N  291  1  0.35967600  0.45912500  0.20538700  1
  N  301  1  0.27342300  0.41197700  0.22389200  1
  N  315  1  0.69296900  0.74302700  0.53829400  1
  N  325  1  0.60670800  0.80867400  0.58543400  1
  N  339  1  0.02631500  0.20406600  0.74432900  1
  N  349  1  0.94008300  0.22258800  0.80999500  1
  N  363  1  0.35960400  0.53698300  0.79331100  1
  N  373  1  0.27339800  0.58414000  0.77479600  1
  N  387  1  0.69303600  0.25309100  0.46042600  1
  N  397  1  0.60675300  0.18744300  0.41327900  1
  N  411  1  0.57697200  0.76926500  0.22368000  1
  N  421  1  0.43093800  0.80931100  0.23067200  1
  N  435  1  0.91030600  0.45124600  0.22820600  1
  N  445  1  0.76434200  0.41814700  0.18809200  1
  N  459  1  0.24355700  0.77373400  0.54612700  1
  N  469  1  0.09760200  0.76672900  0.57923000  1
  N  483  1  0.57695200  0.22690900  0.77504000  1
  N  493  1  0.43094800  0.18684800  0.76804700  1
  N  507  1  0.91028600  0.54491600  0.77055700  1
  N  517  1  0.76425100  0.57796400  0.81060600  1
  N  531  1  0.24358200  0.22236600  0.45254900  1
  N  541  1  0.09762000  0.22937200  0.41944700  1
  N  555  1  0.67142200  0.61606000  0.16659600  1
  N  565  1  0.60203300  0.54288100  0.12174600  1
  N  579  1  0.00497600  0.54730400  0.38140100  1
  N  589  1  0.93543000  0.57563700  0.45456000  1
  N  603  1  0.33831800  0.83087000  0.45009400  1
  N  613  1  0.26874700  0.87569700  0.42176800  1
  N  627  1  0.67156500  0.38007200  0.83212100  1
  N  637  1  0.60204400  0.45322700  0.87695200  1
  N  651  1  0.00477700  0.44881800  0.61734800  1
  N  661  1  0.93538400  0.42047900  0.54416400  1
  N  675  1  0.33834100  0.16525300  0.54860800  1
  N  685  1  0.26878400  0.12043000  0.57694400  1
  N  699  1  0.65399100  0.67624900  0.03085400  1
  N  709  1  0.63353700  0.60792300  0.97504600  1
  N  723  1  0.98735500  0.35135900  0.32112800  1
  N  733  1  0.96689600  0.36386900  0.38944400  1
  N  747  1  0.32068800  0.96653300  0.64604700  1
  N  757  1  0.30023200  0.02234700  0.63355300  1
  N  771  1  0.65407400  0.31984300  0.96784800  1
  N  781  1  0.63359200  0.38816500  0.02364700  1
  N  795  1  0.98728200  0.64476400  0.67757700  1
  N  805  1  0.96681300  0.63225400  0.60926000  1
  N  819  1  0.32075000  0.02957500  0.35264400  1
  N  829  1  0.30027100  0.97376500  0.36514900  1
