# generated using pymatgen
data_H32C41(N2O)2
_symmetry_space_group_name_H-M   'P 1'
_cell_length_a   37.11370000
_cell_length_b   37.11370000
_cell_length_c   43.98270000
_cell_angle_alpha   90.00040000
_cell_angle_beta   89.99960000
_cell_angle_gamma   90.00000000
_symmetry_Int_Tables_number   1
_chemical_formula_structural   H32C41(N2O)2
_chemical_formula_sum   'H512 C656 N64 O32'
_cell_volume   60582.94653302
_cell_formula_units_Z   16
loop_
 _symmetry_equiv_pos_site_id
 _symmetry_equiv_pos_as_xyz
  1  'x, y, z'
loop_
 _atom_site_type_symbol
 _atom_site_label
 _atom_site_symmetry_multiplicity
 _atom_site_fract_x
 _atom_site_fract_y
 _atom_site_fract_z
 _atom_site_occupancy
  H  25  1  0.03167300  0.15645200  0.23865500  1
  H  26  1  0.96732500  0.15094800  0.23757300  1
  H  27  1  0.90025000  0.15224000  0.24549000  1
  H  28  1  0.83900600  0.16260400  0.25915400  1
  H  29  1  0.87191200  0.23946400  0.32465500  1
  H  30  1  0.02446300  0.23082200  0.31121500  1
  H  31  1  0.94657700  0.17477100  0.35630100  1
  H  32  1  0.95854300  0.24491700  0.43151000  1
  H  33  1  0.96022200  0.29595300  0.39761500  1
  H  34  1  0.94791500  0.27452100  0.25867000  1
  H  35  1  0.96474300  0.34064000  0.35327300  1
  H  36  1  0.96750000  0.37214000  0.30535600  1
  H  39  1  0.80532800  0.18418200  0.31998700  1
  H  40  1  0.80932900  0.23082400  0.31782000  1
  H  42  1  0.08352200  0.21684400  0.29061900  1
  H  43  1  0.08333200  0.20204000  0.25280600  1
  H  45  1  0.97559300  0.17610300  0.43328800  1
  H  46  1  0.95330500  0.14855000  0.40679800  1
  H  48  1  0.96648700  0.32610800  0.22995400  1
  H  49  1  0.98361600  0.36377300  0.24859300  1
  H  74  1  0.85401700  0.71643300  0.23947400  1
  H  75  1  0.91833500  0.72381300  0.23589700  1
  H  76  1  0.98660900  0.72616800  0.24258400  1
  H  77  1  0.04853100  0.72030200  0.25657800  1
  H  78  1  0.01880000  0.65729400  0.33279900  1
  H  79  1  0.86661800  0.65773300  0.32114000  1
  H  80  1  0.94148500  0.72309400  0.35670600  1
  H  81  1  0.93315600  0.66622400  0.43986100  1
  H  82  1  0.93442000  0.60988900  0.41266400  1
  H  83  1  0.94862800  0.60667300  0.27272500  1
  H  84  1  0.93727300  0.55788900  0.37520200  1
  H  85  1  0.94181100  0.51751800  0.33240100  1
  H  88  1  0.08319400  0.70949300  0.32199000  1
  H  89  1  0.08104000  0.66260400  0.32137600  1
  H  91  1  0.80670800  0.66666667  0.30183900  1
  H  92  1  0.80308100  0.67508400  0.26283000  1
  H  94  1  0.91293100  0.73449000  0.43284700  1
  H  95  1  0.93497500  0.75730600  0.40327400  1
  H  97  1  0.97162000  0.51492000  0.27758200  1
  H  98  1  0.95472900  0.54673500  0.25151500  1
  H  123  1  0.72149800  0.03663800  0.73841000  1
  H  124  1  0.73347800  0.97300000  0.73708500  1
  H  125  1  0.74187900  0.90610500  0.74710000  1
  H  126  1  0.74034000  0.84461900  0.76321600  1
  H  127  1  0.66223100  0.87059900  0.82981900  1
  H  128  1  0.65430400  0.02250200  0.81506100  1
  H  129  1  0.71623500  0.95404500  0.85917800  1
  H  130  1  0.64528200  0.95280400  0.93452800  1
  H  131  1  0.59460600  0.94646600  0.90068500  1
  H  132  1  0.61715400  0.93731800  0.76179500  1
  H  133  1  0.55014800  0.93721900  0.85700700  1
  H  134  1  0.51877200  0.92823200  0.80959100  1
  H  137  1  0.72832000  0.80965600  0.82155000  1
  H  138  1  0.68217500  0.81076100  0.82801600  1
  H  140  1  0.66399300  0.08289300  0.79624000  1
  H  141  1  0.67650900  0.08635500  0.75799300  1
  H  143  1  0.71025300  0.98055900  0.93682500  1
  H  144  1  0.74115800  0.96368900  0.91005300  1
  H  146  1  0.52608800  0.90564500  0.75411200  1
  H  147  1  0.56448900  0.91903000  0.73435900  1
  H  172  1  0.17158700  0.85300900  0.73949300  1
  H  173  1  0.16470800  0.91736000  0.73574600  1
  H  174  1  0.16359900  0.98583300  0.74201000  1
  H  175  1  0.17121400  0.04779500  0.75525800  1
  H  176  1  0.23819700  0.01787300  0.82895700  1
  H  177  1  0.23494500  0.86570300  0.81862800  1
  H  178  1  0.17270600  0.94195000  0.85613200  1
  H  179  1  0.23421300  0.93438200  0.93694500  1
  H  180  1  0.28894000  0.93481800  0.90749300  1
  H  181  1  0.28392700  0.94462000  0.76729400  1
  H  182  1  0.33884600  0.93726200  0.86779300  1
  H  183  1  0.37657900  0.93946000  0.82316000  1
  H  186  1  0.18607600  0.08288000  0.81979000  1
  H  187  1  0.23285200  0.08001700  0.81766700  1
  H  189  1  0.22412700  0.80572800  0.80026900  1
  H  190  1  0.21421100  0.80202300  0.76151900  1
  H  192  1  0.16511400  0.91549200  0.93312500  1
  H  193  1  0.14107800  0.93740500  0.90415000  1
  H  195  1  0.34216100  0.93955700  0.74299900  1
  H  196  1  0.37510000  0.91861300  0.76562100  1
  H  221  1  0.84103600  0.16494300  0.74620700  1
  H  222  1  0.90273300  0.15637900  0.75973000  1
  H  223  1  0.97069400  0.15684500  0.76683300  1
  H  224  1  0.03501700  0.16352100  0.76421800  1
  H  225  1  0.02443700  0.23024400  0.68688800  1
  H  226  1  0.87213900  0.23591500  0.67555200  1
  H  227  1  0.94664200  0.17202600  0.64564200  1
  H  228  1  0.95885900  0.23888400  0.56836200  1
  H  229  1  0.96022800  0.29135800  0.60065400  1
  H  230  1  0.94866500  0.27557800  0.74019700  1
  H  231  1  0.96465700  0.33797500  0.64373500  1
  H  232  1  0.96804100  0.37128100  0.69076900  1
  H  235  1  0.08395400  0.21932000  0.70672300  1
  H  236  1  0.08627100  0.20661300  0.74495800  1
  H  238  1  0.80705500  0.18003400  0.68357100  1
  H  239  1  0.80994300  0.22681100  0.68321600  1
  H  241  1  0.95313400  0.14368300  0.59620000  1
  H  242  1  0.97564300  0.16968000  0.56878700  1
  H  244  1  0.98447100  0.36560400  0.74724300  1
  H  245  1  0.96949500  0.32789600  0.76703800  1
  H  270  1  0.04765900  0.72427500  0.74450800  1
  H  271  1  0.98569700  0.72702100  0.75925300  1
  H  272  1  0.91755200  0.72123600  0.76662600  1
  H  273  1  0.85340600  0.71254600  0.76262200  1
  H  274  1  0.86762000  0.65786800  0.67919400  1
  H  275  1  0.01968800  0.66090700  0.66803700  1
  H  276  1  0.94174400  0.72496900  0.64528500  1
  H  277  1  0.93265400  0.66987000  0.56133900  1
  H  278  1  0.93482200  0.61297000  0.58761300  1
  H  279  1  0.94978600  0.60682500  0.72742700  1
  H  280  1  0.93837600  0.56017000  0.62424700  1
  H  281  1  0.94284600  0.51891900  0.66645700  1
  H  284  1  0.80752900  0.66448500  0.69869300  1
  H  285  1  0.80281900  0.67318100  0.73752400  1
  H  287  1  0.08213700  0.71797800  0.68087400  1
  H  288  1  0.08142000  0.67136100  0.67692000  1
  H  290  1  0.93468800  0.76011500  0.59940600  1
  H  291  1  0.91248300  0.73802300  0.56954000  1
  H  293  1  0.95537100  0.54647800  0.74781600  1
  H  294  1  0.97227100  0.51504500  0.72141700  1
  H  319  1  0.17896400  0.05119000  0.25156500  1
  H  320  1  0.16509600  0.98964700  0.26240100  1
  H  321  1  0.16039000  0.92131900  0.26678700  1
  H  322  1  0.16545100  0.85684500  0.26358300  1
  H  323  1  0.23043300  0.86674300  0.18514500  1
  H  324  1  0.24134300  0.01877600  0.17574300  1
  H  325  1  0.17361000  0.94480600  0.14479300  1
  H  326  1  0.23977600  0.93362600  0.06696400  1
  H  327  1  0.29254900  0.93176400  0.09891900  1
  H  328  1  0.27794400  0.94084000  0.23867800  1
  H  329  1  0.33955300  0.92656400  0.14166200  1
  H  330  1  0.37323800  0.92227300  0.18846800  1
  H  333  1  0.21930800  0.80743400  0.20497000  1
  H  334  1  0.20803300  0.80527600  0.24352700  1
  H  336  1  0.20163200  0.08699000  0.18413200  1
  H  337  1  0.24655800  0.08003900  0.19474200  1
  H  339  1  0.14485000  0.93755700  0.09552900  1
  H  340  1  0.17116400  0.91584800  0.06787000  1
  H  342  1  0.36852200  0.90527700  0.24461600  1
  H  343  1  0.33046600  0.91857700  0.26476300  1
  H  368  1  0.72769100  0.84172300  0.24318400  1
  H  369  1  0.73079800  0.90320500  0.25898400  1
  H  370  1  0.72588900  0.97055500  0.26757600  1
  H  371  1  0.71785400  0.03473000  0.26512200  1
  H  372  1  0.66063900  0.02385100  0.18254900  1
  H  373  1  0.66267800  0.87159300  0.16821700  1
  H  374  1  0.72754700  0.94890100  0.14674900  1
  H  375  1  0.67279700  0.96245100  0.06308400  1
  H  376  1  0.61585000  0.96034700  0.08923300  1
  H  377  1  0.60913400  0.94088100  0.22864700  1
  H  378  1  0.56295000  0.95561600  0.12561100  1
  H  379  1  0.52151800  0.95039100  0.16761300  1
  H  382  1  0.66806200  0.08348100  0.20393500  1
  H  383  1  0.67821400  0.08619300  0.24268200  1
  H  385  1  0.72059500  0.80871600  0.17973100  1
  H  386  1  0.67400800  0.80960000  0.17546800  1
  H  388  1  0.76284400  0.95610000  0.10128600  1
  H  389  1  0.74197300  0.97976000  0.07163800  1
  H  391  1  0.54859600  0.93627300  0.24891400  1
  H  392  1  0.51751600  0.91930600  0.22224100  1
  H  398  1  0.16028700  0.17083500  0.30117100  1
  H  399  1  0.21278100  0.14782400  0.27580600  1
  H  401  1  0.14659100  0.09916600  0.20964700  1
  H  403  1  0.07911600  0.09576400  0.24392500  1
  H  405  1  0.23135000  0.13002500  0.21944700  1
  H  407  1  0.07509700  0.14090200  0.29218300  1
  H  413  1  0.72681300  0.71127900  0.29261900  1
  H  414  1  0.68232300  0.73840900  0.26029100  1
  H  416  1  0.76441900  0.79422000  0.21369100  1
  H  418  1  0.82013700  0.79276600  0.26099600  1
  H  420  1  0.67913300  0.76146400  0.20411800  1
  H  422  1  0.81299900  0.73876200  0.30340300  1
  H  428  1  0.70901500  0.16402200  0.79511200  1
  H  429  1  0.73712800  0.21115800  0.76623900  1
  H  431  1  0.79372200  0.13325100  0.71542400  1
  H  433  1  0.79161500  0.07421400  0.76018900  1
  H  435  1  0.76191200  0.22004800  0.71159500  1
  H  437  1  0.73681000  0.07798400  0.80167200  1
  H  443  1  0.17972000  0.72617000  0.79320700  1
  H  444  1  0.15246800  0.68102200  0.76161900  1
  H  446  1  0.09463100  0.76194500  0.71529900  1
  H  448  1  0.09650100  0.81825700  0.76213100  1
  H  450  1  0.12879500  0.67666100  0.70619800  1
  H  452  1  0.15191600  0.81255300  0.80336800  1
  H  458  1  0.72675500  0.71202600  0.70873300  1
  H  459  1  0.68439100  0.74080800  0.74206000  1
  H  461  1  0.77015600  0.79278100  0.78710900  1
  H  463  1  0.82373800  0.79016700  0.73774200  1
  H  465  1  0.68426900  0.76312100  0.79857000  1
  H  467  1  0.81322500  0.73592000  0.69581600  1
  H  473  1  0.16313500  0.17414100  0.70451500  1
  H  474  1  0.21198300  0.14889200  0.73329900  1
  H  476  1  0.13730600  0.09519800  0.78956000  1
  H  478  1  0.07539000  0.09426300  0.74777300  1
  H  480  1  0.22298700  0.12805900  0.78959200  1
  H  482  1  0.07662100  0.14532300  0.70346500  1
  H  488  1  0.17504100  0.72829100  0.20646100  1
  H  489  1  0.15012500  0.68051100  0.23668600  1
  H  491  1  0.09520100  0.75708400  0.29022800  1
  H  493  1  0.09411300  0.81726100  0.24667200  1
  H  495  1  0.12914600  0.67190000  0.29323600  1
  H  497  1  0.14567700  0.81481100  0.20274100  1
  H  503  1  0.71639900  0.16272700  0.20288200  1
  H  504  1  0.74236000  0.21111500  0.23179300  1
  H  506  1  0.78794900  0.13557200  0.29213500  1
  H  508  1  0.78892500  0.07276700  0.25154000  1
  H  510  1  0.76085100  0.22237600  0.28958600  1
  H  512  1  0.74192900  0.07577800  0.20397500  1
  H  518  1  0.89794100  0.45645400  0.30278300  1
  H  519  1  0.90243000  0.39350400  0.29008000  1
  H  521  1  0.94233200  0.42074100  0.20345700  1
  H  523  1  0.96552300  0.49055400  0.20893700  1
  H  525  1  0.90433200  0.35070300  0.24124500  1
  H  527  1  0.89681000  0.52551100  0.25586000  1
  H  533  1  0.43204900  0.99287200  0.79913200  1
  H  534  1  0.49574600  0.98750400  0.78985800  1
  H  536  1  0.47463800  0.94755100  0.70205500  1
  H  538  1  0.40424100  0.92593100  0.70349000  1
  H  540  1  0.54244000  0.98366700  0.74299400  1
  H  542  1  0.36667200  0.99499200  0.74921000  1
  H  548  1  0.89947300  0.45707100  0.69522100  1
  H  549  1  0.90429400  0.39403300  0.70753000  1
  H  551  1  0.94182300  0.42074900  0.79502800  1
  H  553  1  0.96450500  0.49067200  0.79047900  1
  H  555  1  0.90585100  0.35067200  0.75652900  1
  H  557  1  0.89720700  0.52592200  0.74257600  1
  H  563  1  0.45953800  0.99132500  0.19542200  1
  H  564  1  0.39631000  0.98548900  0.20670800  1
  H  566  1  0.42164000  0.94847900  0.29465900  1
  H  568  1  0.49202300  0.92676500  0.29109800  1
  H  570  1  0.35189500  0.98327500  0.25527500  1
  H  572  1  0.52748200  0.99427300  0.24393200  1
  H  578  1  0.90006200  0.22344300  0.53019700  1
  H  579  1  0.90021300  0.22634500  0.47553700  1
  H  581  1  0.93898900  0.11984200  0.47138300  1
  H  583  1  0.96812300  0.10810700  0.52926200  1
  H  585  1  0.89924900  0.15775100  0.42869800  1
  H  587  1  0.90028300  0.14978900  0.57206100  1
  H  593  1  0.99488200  0.69000300  0.52963800  1
  H  594  1  0.99501900  0.68806000  0.47491400  1
  H  596  1  0.94214400  0.78834600  0.47214200  1
  H  598  1  0.91199000  0.79603600  0.52932800  1
  H  600  1  0.98637300  0.75792600  0.42945300  1
  H  602  1  0.98497100  0.76286600  0.57185400  1
  H  608  1  0.68804200  0.89672800  0.03590500  1
  H  609  1  0.67776300  0.89778700  0.98187900  1
  H  611  1  0.77619900  0.95207100  0.96911700  1
  H  613  1  0.79180700  0.98170500  0.02516300  1
  H  615  1  0.73844700  0.90709300  0.92925300  1
  H  617  1  0.76700200  0.90891000  0.07029200  1
  H  623  1  0.21946000  0.99365200  0.02630700  1
  H  624  1  0.21746400  0.99385400  0.97160200  1
  H  626  1  0.11286900  0.95002600  0.97401700  1
  H  628  1  0.10666200  0.92105600  0.03193400  1
  H  630  1  0.14369900  0.98977100  0.92912600  1
  H  632  1  0.15050000  0.99123500  0.07252700  1
  H  657  1  0.46278100  0.61450400  0.51149000  1
  H  658  1  0.39843300  0.60900000  0.51040800  1
  H  659  1  0.33135800  0.61029200  0.51832500  1
  H  660  1  0.27011400  0.62065600  0.53198900  1
  H  661  1  0.30302000  0.69751600  0.59749000  1
  H  662  1  0.45557100  0.68887400  0.58405000  1
  H  663  1  0.37768500  0.63282300  0.62913600  1
  H  664  1  0.38965100  0.70296900  0.70434500  1
  H  665  1  0.39133000  0.75400500  0.67045000  1
  H  666  1  0.37902300  0.73257300  0.53150500  1
  H  667  1  0.39585100  0.79869200  0.62610800  1
  H  668  1  0.39860800  0.83019200  0.57819100  1
  H  671  1  0.23643600  0.64223400  0.59282200  1
  H  672  1  0.24043700  0.68887600  0.59065500  1
  H  674  1  0.51463000  0.67489600  0.56345400  1
  H  675  1  0.51444000  0.66009200  0.52564100  1
  H  677  1  0.40670100  0.63415500  0.70612300  1
  H  678  1  0.38441300  0.60660200  0.67963300  1
  H  680  1  0.39759500  0.78416000  0.50278900  1
  H  681  1  0.41472400  0.82182500  0.52142800  1
  H  706  1  0.28512500  0.17448500  0.51230900  1
  H  707  1  0.34944300  0.18186500  0.50873200  1
  H  708  1  0.41771700  0.18422000  0.51541900  1
  H  709  1  0.47963900  0.17835400  0.52941300  1
  H  710  1  0.44990800  0.11534600  0.60563400  1
  H  711  1  0.29772600  0.11578500  0.59397500  1
  H  712  1  0.37259300  0.18114600  0.62954100  1
  H  713  1  0.36426400  0.12427600  0.71269600  1
  H  714  1  0.36552800  0.06794090  0.68549900  1
  H  715  1  0.37973600  0.06472490  0.54556000  1
  H  716  1  0.36838100  0.01594090  0.64803700  1
  H  717  1  0.37291900  0.97557000  0.60523600  1
  H  720  1  0.51430200  0.16754500  0.59482500  1
  H  721  1  0.51214800  0.12065600  0.59421100  1
  H  723  1  0.23781600  0.12475400  0.57467400  1
  H  724  1  0.23418900  0.13313600  0.53566500  1
  H  726  1  0.34403900  0.19254200  0.70568200  1
  H  727  1  0.36608300  0.21535800  0.67610900  1
  H  729  1  0.40272800  0.97297200  0.55041700  1
  H  730  1  0.38583700  0.00478688  0.52435000  1
  H  755  1  0.15260600  0.49469000  0.01124450  1
  H  756  1  0.16458600  0.43105200  0.00991955  1
  H  757  1  0.17298700  0.36415700  0.01993450  1
  H  758  1  0.17144800  0.30267100  0.03605050  1
  H  759  1  0.09333870  0.32865100  0.10265400  1
  H  760  1  0.08541170  0.48055400  0.08789550  1
  H  761  1  0.14734300  0.41209700  0.13201300  1
  H  762  1  0.07638970  0.41085600  0.20736300  1
  H  763  1  0.02571370  0.40451800  0.17352000  1
  H  764  1  0.04826170  0.39537000  0.03462950  1
  H  765  1  0.98125600  0.39527100  0.12984200  1
  H  766  1  0.94988000  0.38628400  0.08242550  1
  H  769  1  0.15942800  0.26770800  0.09438450  1
  H  770  1  0.11328300  0.26881300  0.10085100  1
  H  772  1  0.09510070  0.54094500  0.06907450  1
  H  773  1  0.10761700  0.54440700  0.03082750  1
  H  775  1  0.14136100  0.43861100  0.20966000  1
  H  776  1  0.17226600  0.42174100  0.18288800  1
  H  778  1  0.95719600  0.36369700  0.02694650  1
  H  779  1  0.99559700  0.37708200  0.00719355  1
  H  804  1  0.60269500  0.31106100  0.01232750  1
  H  805  1  0.59581600  0.37541200  0.00858055  1
  H  806  1  0.59470700  0.44388500  0.01484450  1
  H  807  1  0.60232200  0.50584700  0.02809250  1
  H  808  1  0.66930500  0.47592500  0.10179200  1
  H  809  1  0.66605300  0.32375500  0.09146250  1
  H  810  1  0.60381400  0.40000200  0.12896700  1
  H  811  1  0.66532100  0.39243400  0.20978000  1
  H  812  1  0.72004800  0.39287000  0.18032800  1
  H  813  1  0.71503500  0.40267200  0.04012850  1
  H  814  1  0.76995400  0.39531400  0.14062800  1
  H  815  1  0.80768700  0.39751200  0.09599450  1
  H  818  1  0.61718400  0.54093200  0.09262450  1
  H  819  1  0.66396000  0.53806900  0.09050150  1
  H  821  1  0.65523500  0.26378000  0.07310350  1
  H  822  1  0.64531900  0.26007500  0.03435350  1
  H  824  1  0.59622200  0.37354400  0.20596000  1
  H  825  1  0.57218600  0.39545700  0.17698500  1
  H  827  1  0.77326900  0.39760900  0.01583350  1
  H  828  1  0.80620800  0.37666500  0.03845550  1
  H  853  1  0.27214400  0.62299500  0.01904150  1
  H  854  1  0.33384100  0.61443100  0.03256450  1
  H  855  1  0.40180200  0.61489700  0.03966750  1
  H  856  1  0.46612500  0.62157300  0.03705250  1
  H  857  1  0.45554500  0.68829600  0.95972300  1
  H  858  1  0.30324700  0.69396700  0.94838700  1
  H  859  1  0.37775000  0.63007800  0.91847700  1
  H  860  1  0.38996700  0.69693600  0.84119700  1
  H  861  1  0.39133600  0.74941000  0.87348900  1
  H  862  1  0.37977300  0.73363000  0.01303150  1
  H  863  1  0.39576500  0.79602700  0.91657000  1
  H  864  1  0.39914900  0.82933300  0.96360400  1
  H  867  1  0.51506200  0.67737200  0.97955800  1
  H  868  1  0.51737900  0.66466500  0.01779250  1
  H  870  1  0.23816300  0.63808600  0.95640600  1
  H  871  1  0.24105100  0.68486300  0.95605100  1
  H  873  1  0.38424200  0.60173500  0.86903500  1
  H  874  1  0.40675100  0.62773200  0.84162200  1
  H  876  1  0.41557900  0.82365600  0.02007750  1
  H  877  1  0.40060300  0.78594800  0.03987250  1
  H  902  1  0.47876700  0.18232700  0.01734250  1
  H  903  1  0.41680500  0.18507300  0.03208750  1
  H  904  1  0.34866000  0.17928800  0.03946050  1
  H  905  1  0.28451400  0.17059800  0.03545650  1
  H  906  1  0.29872800  0.11592000  0.95202900  1
  H  907  1  0.45079600  0.11895900  0.94087200  1
  H  908  1  0.37285200  0.18302100  0.91812000  1
  H  909  1  0.36376200  0.12792200  0.83417400  1
  H  910  1  0.36593000  0.07102190  0.86044800  1
  H  911  1  0.38089400  0.06487690  0.00026155  1
  H  912  1  0.36948400  0.01822190  0.89708200  1
  H  913  1  0.37395400  0.97697100  0.93929200  1
  H  916  1  0.23863700  0.12253700  0.97152800  1
  H  917  1  0.23392700  0.13123300  0.01035850  1
  H  919  1  0.51324500  0.17603000  0.95370900  1
  H  920  1  0.51252800  0.12941300  0.94975500  1
  H  922  1  0.36579600  0.21816700  0.87224100  1
  H  923  1  0.34359100  0.19607500  0.84237500  1
  H  925  1  0.38647900  0.00452988  0.02065050  1
  H  926  1  0.40337900  0.97309700  0.99425200  1
  H  951  1  0.61007200  0.50924200  0.52440000  1
  H  952  1  0.59620400  0.44769900  0.53523600  1
  H  953  1  0.59149800  0.37937100  0.53962200  1
  H  954  1  0.59655900  0.31489700  0.53641800  1
  H  955  1  0.66154100  0.32479500  0.45798000  1
  H  956  1  0.67245100  0.47682800  0.44857800  1
  H  957  1  0.60471800  0.40285800  0.41762800  1
  H  958  1  0.67088400  0.39167800  0.33979900  1
  H  959  1  0.72365700  0.38981600  0.37175400  1
  H  960  1  0.70905200  0.39889200  0.51151300  1
  H  961  1  0.77066100  0.38461600  0.41449700  1
  H  962  1  0.80434600  0.38032500  0.46130300  1
  H  965  1  0.65041600  0.26548600  0.47780500  1
  H  966  1  0.63914100  0.26332800  0.51636200  1
  H  968  1  0.63274000  0.54504200  0.45696700  1
  H  969  1  0.67766600  0.53809100  0.46757700  1
  H  971  1  0.57595800  0.39560900  0.36836400  1
  H  972  1  0.60227200  0.37390000  0.34070500  1
  H  974  1  0.79963000  0.36332900  0.51745100  1
  H  975  1  0.76157400  0.37662900  0.53759800  1
  H  1000  1  0.15879900  0.29977500  0.51601900  1
  H  1001  1  0.16190600  0.36125700  0.53181900  1
  H  1002  1  0.15699700  0.42860700  0.54041100  1
  H  1003  1  0.14896200  0.49278200  0.53795700  1
  H  1004  1  0.09174670  0.48190300  0.45538400  1
  H  1005  1  0.09378570  0.32964500  0.44105200  1
  H  1006  1  0.15865500  0.40695300  0.41958400  1
  H  1007  1  0.10390500  0.42050300  0.33591900  1
  H  1008  1  0.04695770  0.41839900  0.36206800  1
  H  1009  1  0.04024170  0.39893300  0.50148200  1
  H  1010  1  0.99405800  0.41366800  0.39844600  1
  H  1011  1  0.95262600  0.40844300  0.44044800  1
  H  1014  1  0.09916970  0.54153300  0.47677000  1
  H  1015  1  0.10932200  0.54424500  0.51551700  1
  H  1017  1  0.15170300  0.26676800  0.45256600  1
  H  1018  1  0.10511600  0.26765200  0.44830300  1
  H  1020  1  0.19395200  0.41415200  0.37412100  1
  H  1021  1  0.17308100  0.43781200  0.34447300  1
  H  1023  1  0.97970400  0.39432500  0.52174900  1
  H  1024  1  0.94862400  0.37735800  0.49507600  1
  H  1030  1  0.59139500  0.62888700  0.57400600  1
  H  1031  1  0.64388900  0.60587600  0.54864100  1
  H  1033  1  0.57769900  0.55721800  0.48248200  1
  H  1035  1  0.51022400  0.55381600  0.51676000  1
  H  1037  1  0.66245800  0.58807700  0.49228200  1
  H  1039  1  0.50620500  0.59895400  0.56501800  1
  H  1045  1  0.15792100  0.16933100  0.56545400  1
  H  1046  1  0.11343100  0.19646100  0.53312600  1
  H  1048  1  0.19552700  0.25227200  0.48652600  1
  H  1050  1  0.25124500  0.25081800  0.53383100  1
  H  1052  1  0.11024100  0.21951600  0.47695300  1
  H  1054  1  0.24410700  0.19681400  0.57623800  1
  H  1060  1  0.14012300  0.62207400  0.06794650  1
  H  1061  1  0.16823600  0.66921000  0.03907350  1
  H  1063  1  0.22483000  0.59130300  0.98825900  1
  H  1065  1  0.22272300  0.53226600  0.03302350  1
  H  1067  1  0.19302000  0.67810000  0.98443000  1
  H  1069  1  0.16791800  0.53603600  0.07450650  1
  H  1075  1  0.61082800  0.18422200  0.06604150  1
  H  1076  1  0.58357600  0.13907400  0.03445350  1
  H  1078  1  0.52573900  0.21999700  0.98813400  1
  H  1080  1  0.52760900  0.27630900  0.03496550  1
  H  1082  1  0.55990300  0.13471300  0.97903300  1
  H  1084  1  0.58302400  0.27060500  0.07620250  1
  H  1090  1  0.15786300  0.17007800  0.98156800  1
  H  1091  1  0.11549900  0.19886000  0.01489450  1
  H  1093  1  0.20126400  0.25083300  0.05994350  1
  H  1095  1  0.25484600  0.24821900  0.01057650  1
  H  1097  1  0.11537700  0.22117300  0.07140450  1
  H  1099  1  0.24433300  0.19397200  0.96865100  1
  H  1105  1  0.59424300  0.63219300  0.97735000  1
  H  1106  1  0.64309100  0.60694400  0.00613355  1
  H  1108  1  0.56841400  0.55325000  0.06239450  1
  H  1110  1  0.50649800  0.55231500  0.02060750  1
  H  1112  1  0.65409500  0.58611100  0.06242650  1
  H  1114  1  0.50772900  0.60337500  0.97630000  1
  H  1120  1  0.60614900  0.18634300  0.47929600  1
  H  1121  1  0.58123300  0.13856300  0.50952100  1
  H  1123  1  0.52630900  0.21513600  0.56306300  1
  H  1125  1  0.52522100  0.27531300  0.51950700  1
  H  1127  1  0.56025400  0.12995200  0.56607100  1
  H  1129  1  0.57678500  0.27286300  0.47557600  1
  H  1135  1  0.14750700  0.62077900  0.47571700  1
  H  1136  1  0.17346800  0.66916700  0.50462800  1
  H  1138  1  0.21905700  0.59362400  0.56497000  1
  H  1140  1  0.22003300  0.53081900  0.52437500  1
  H  1142  1  0.19195900  0.68042800  0.56242100  1
  H  1144  1  0.17303700  0.53383000  0.47681000  1
  H  1150  1  0.32904900  0.91450600  0.57561800  1
  H  1151  1  0.33353800  0.85155600  0.56291500  1
  H  1153  1  0.37344000  0.87879300  0.47629200  1
  H  1155  1  0.39663100  0.94860600  0.48177200  1
  H  1157  1  0.33544000  0.80875500  0.51408000  1
  H  1159  1  0.32791800  0.98356300  0.52869500  1
  H  1165  1  0.86315700  0.45092400  0.07196650  1
  H  1166  1  0.92685400  0.44555600  0.06269250  1
  H  1168  1  0.90574600  0.40560300  0.97489000  1
  H  1170  1  0.83534900  0.38398300  0.97632500  1
  H  1172  1  0.97354800  0.44171900  0.01582850  1
  H  1174  1  0.79778000  0.45304400  0.02204450  1
  H  1180  1  0.33058100  0.91512300  0.96805600  1
  H  1181  1  0.33540200  0.85208500  0.98036500  1
  H  1183  1  0.37293100  0.87880100  0.06786250  1
  H  1185  1  0.39561300  0.94872400  0.06331350  1
  H  1187  1  0.33695900  0.80872400  0.02936350  1
  H  1189  1  0.32831500  0.98397400  0.01541050  1
  H  1195  1  0.89064600  0.44937700  0.46825700  1
  H  1196  1  0.82741800  0.44354100  0.47954300  1
  H  1198  1  0.85274800  0.40653100  0.56749400  1
  H  1200  1  0.92313100  0.38481700  0.56393300  1
  H  1202  1  0.78300300  0.44132700  0.52811000  1
  H  1204  1  0.95859000  0.45232500  0.51676700  1
  H  1210  1  0.33117000  0.68149500  0.80303200  1
  H  1211  1  0.33132100  0.68439700  0.74837200  1
  H  1213  1  0.37009700  0.57789400  0.74421800  1
  H  1215  1  0.39923100  0.56615900  0.80209700  1
  H  1217  1  0.33035700  0.61580300  0.70153300  1
  H  1219  1  0.33139100  0.60784100  0.84489600  1
  H  1225  1  0.42599000  0.14805500  0.80247300  1
  H  1226  1  0.42612700  0.14611200  0.74774900  1
  H  1228  1  0.37325200  0.24639800  0.74497700  1
  H  1230  1  0.34309800  0.25408800  0.80216300  1
  H  1232  1  0.41748100  0.21597800  0.70228800  1
  H  1234  1  0.41607900  0.22091800  0.84468900  1
  H  1240  1  0.11915000  0.35478000  0.30874000  1
  H  1241  1  0.10887100  0.35583900  0.25471400  1
  H  1243  1  0.20730700  0.41012300  0.24195200  1
  H  1245  1  0.22291500  0.43975700  0.29799800  1
  H  1247  1  0.16955500  0.36514500  0.20208800  1
  H  1249  1  0.19811000  0.36696200  0.34312700  1
  H  1255  1  0.65056800  0.45170400  0.29914200  1
  H  1256  1  0.64857200  0.45190600  0.24443700  1
  H  1258  1  0.54397700  0.40807800  0.24685200  1
  H  1260  1  0.53777000  0.37910800  0.30476900  1
  H  1262  1  0.57480700  0.44782300  0.20196100  1
  H  1264  1  0.58160800  0.44928700  0.34536200  1
  C  1  1  0.94993800  0.27052800  0.30642500  1
  C  2  1  0.95465800  0.28945900  0.33361700  1
  C  3  1  0.95426700  0.26485900  0.35748600  1
  C  4  1  0.95030900  0.23006100  0.34556500  1
  C  5  1  0.94956800  0.20002300  0.36524100  1
  C  6  1  0.95251800  0.20511600  0.39711500  1
  C  7  1  0.95629800  0.24062600  0.40861000  1
  C  8  1  0.95737100  0.27055600  0.38897500  1
  C  9  1  0.96038400  0.32693600  0.33346300  1
  C  10  1  0.96185500  0.34518200  0.30538100  1
  C  11  1  0.95685700  0.32655500  0.27754800  1
  C  12  1  0.95069500  0.28889000  0.27837100  1
  C  13  1  0.97489100  0.21058300  0.29500400  1
  C  14  1  0.95867100  0.18741900  0.27396000  1
  C  15  1  0.92157100  0.18979800  0.27700200  1
  C  16  1  0.91353900  0.21509200  0.29955200  1
  C  17  1  0.89422300  0.17091200  0.26179100  1
  C  18  1  0.85819600  0.17713900  0.27012000  1
  C  19  1  0.84890800  0.20239900  0.29304700  1
  C  20  1  0.87728800  0.22159600  0.30755000  1
  C  21  1  0.01281900  0.21352300  0.29603000  1
  C  22  1  0.03433300  0.19304900  0.27569900  1
  C  23  1  0.01700000  0.17040100  0.25427500  1
  C  24  1  0.97930700  0.16716000  0.25339000  1
  C  37  1  0.94709000  0.23123600  0.31194500  1
  C  38  1  0.81103500  0.20614600  0.30422900  1
  C  41  1  0.07445300  0.19503100  0.27580100  1
  C  44  1  0.95170200  0.17437500  0.41876200  1
  C  47  1  0.96041100  0.34561300  0.24786100  1
  C  50  1  0.94344100  0.61955000  0.31926900  1
  C  51  1  0.94022100  0.60550700  0.34865500  1
  C  52  1  0.93845400  0.63400100  0.36907900  1
  C  53  1  0.94038600  0.66646000  0.35290000  1
  C  54  1  0.93970100  0.69955600  0.36868600  1
  C  55  1  0.93724100  0.69989000  0.40089600  1
  C  56  1  0.93511700  0.66666667  0.41666800  1
  C  57  1  0.93573500  0.63362900  0.40095100  1
  C  58  1  0.93952900  0.56810300  0.35371800  1
  C  59  1  0.94215900  0.54472100  0.32862000  1
  C  60  1  0.94554600  0.55833300  0.29862400  1
  C  61  1  0.94618400  0.59612200  0.29410000  1
  C  62  1  0.91480500  0.67541600  0.30060900  1
  C  63  1  0.92957600  0.69501500  0.27644000  1
  C  64  1  0.96685600  0.69499900  0.27933700  1
  C  65  1  0.97614400  0.67503300  0.30513100  1
  C  66  1  0.99345000  0.71147000  0.26136600  1
  C  67  1  0.02984400  0.70795600  0.26988300  1
  C  68  1  0.04020600  0.68803100  0.29602100  1
  C  69  1  0.01262400  0.67150900  0.31357100  1
  C  70  1  0.87708300  0.67185900  0.30324600  1
  C  71  1  0.85410800  0.68795300  0.28132000  1
  C  72  1  0.86986000  0.70626100  0.25637100  1
  C  73  1  0.90745500  0.71031600  0.25394500  1
  C  86  1  0.94363300  0.65952200  0.31975500  1
  C  87  1  0.07830900  0.68657100  0.30700200  1
  C  90  1  0.81412800  0.68584100  0.28403400  1
  C  93  1  0.93702800  0.73405600  0.41850800  1
  C  96  1  0.94878200  0.53274900  0.27284100  1
  C  99  1  0.62096100  0.94208200  0.80943400  1
  C  100  1  0.60172200  0.94252400  0.83674900  1
  C  101  1  0.62610400  0.94694000  0.86047000  1
  C  102  1  0.66102100  0.94918700  0.84844700  1
  C  103  1  0.69083700  0.95296500  0.86812500  1
  C  104  1  0.68540500  0.95431800  0.90004700  1
  C  105  1  0.64979800  0.95197700  0.91159400  1
  C  106  1  0.62006000  0.94835500  0.89199100  1
  C  107  1  0.56412200  0.93769800  0.83699900  1
  C  108  1  0.54592900  0.93268600  0.80918800  1
  C  109  1  0.56477700  0.93310100  0.78115200  1
  C  110  1  0.60268700  0.93759300  0.78158000  1
  C  111  1  0.67699900  0.97496400  0.79704900  1
  C  112  1  0.70067300  0.96099900  0.77524100  1
  C  113  1  0.70313500  0.92396400  0.77912200  1
  C  114  1  0.68029200  0.91380100  0.80288300  1
  C  115  1  0.72477700  0.89850500  0.76415000  1
  C  116  1  0.72369400  0.86239100  0.77383600  1
  C  117  1  0.70088000  0.85111800  0.79791300  1
  C  118  1  0.67865900  0.87741300  0.81206700  1
  C  119  1  0.67106600  0.01248800  0.79866600  1
  C  120  1  0.68867500  0.03591100  0.77791000  1
  C  121  1  0.71047000  0.02067700  0.75481200  1
  C  122  1  0.71717600  0.98342500  0.75361900  1
  C  135  1  0.66025100  0.94538500  0.81484300  1
  C  136  1  0.70252600  0.81359800  0.81013900  1
  C  139  1  0.68518800  0.07585900  0.78006300  1
  C  142  1  0.71584700  0.95771000  0.92181000  1
  C  145  1  0.54540400  0.92774400  0.75180700  1
  C  148  1  0.27391900  0.94193600  0.81447400  1
  C  149  1  0.28968700  0.93959500  0.84329000  1
  C  150  1  0.26240200  0.93840400  0.86490300  1
  C  151  1  0.22904500  0.94011500  0.85005900  1
  C  152  1  0.19688100  0.94009900  0.86716500  1
  C  153  1  0.19837200  0.93826500  0.89937100  1
  C  154  1  0.23248300  0.93598500  0.91378200  1
  C  155  1  0.26456700  0.93613600  0.89674500  1
  C  156  1  0.32735200  0.93892700  0.84673500  1
  C  157  1  0.34919300  0.94032000  0.82058400  1
  C  158  1  0.33377600  0.94226500  0.79112400  1
  C  159  1  0.29577400  0.94317600  0.78824600  1
  C  160  1  0.21659600  0.91387400  0.79849300  1
  C  161  1  0.19587200  0.92865800  0.77500700  1
  C  162  1  0.19660300  0.96597300  0.77755500  1
  C  163  1  0.21822400  0.97523900  0.80237900  1
  C  164  1  0.17950200  0.99263700  0.76008700  1
  C  165  1  0.18405500  0.02906100  0.76817200  1
  C  166  1  0.20565500  0.03939400  0.79335900  1
  C  167  1  0.22281500  0.01173900  0.81037000  1
  C  168  1  0.21987500  0.87614900  0.80128100  1
  C  169  1  0.20234800  0.85316000  0.78017200  1
  C  170  1  0.18282100  0.86888500  0.75587400  1
  C  171  1  0.17904100  0.90649600  0.75333400  1
  C  184  1  0.23405200  0.94268300  0.81664600  1
  C  185  1  0.20821200  0.07754200  0.80409100  1
  C  188  1  0.20434100  0.81318800  0.78298700  1
  C  191  1  0.16525100  0.93921600  0.91834500  1
  C  194  1  0.35763500  0.94233200  0.76405900  1
  C  197  1  0.94988100  0.26980100  0.69254900  1
  C  198  1  0.95442900  0.28763000  0.66481600  1
  C  199  1  0.95405200  0.26202900  0.64168800  1
  C  200  1  0.95018000  0.22773900  0.65464300  1
  C  201  1  0.94953600  0.19687700  0.63591600  1
  C  202  1  0.95254300  0.20059000  0.60391000  1
  C  203  1  0.95640500  0.23558300  0.59135300  1
  C  204  1  0.95730400  0.26635400  0.61005500  1
  C  205  1  0.96038900  0.32506600  0.66393100  1
  C  206  1  0.96222400  0.34437400  0.69150100  1
  C  207  1  0.95755400  0.32680700  0.71986200  1
  C  208  1  0.95110900  0.28919600  0.72009000  1
  C  209  1  0.91436500  0.21439200  0.70173200  1
  C  210  1  0.92314900  0.19116900  0.72564200  1
  C  211  1  0.96039400  0.18950900  0.72825200  1
  C  212  1  0.97574200  0.21093300  0.70550000  1
  C  213  1  0.98198700  0.17159800  0.74968500  1
  C  214  1  0.01963600  0.17529000  0.74780000  1
  C  215  1  0.03598200  0.19588100  0.72443700  1
  C  216  1  0.01354600  0.21421500  0.70341000  1
  C  217  1  0.87795800  0.21966700  0.69367700  1
  C  218  1  0.85004900  0.20135200  0.70955100  1
  C  219  1  0.85996500  0.17851200  0.73404700  1
  C  220  1  0.89622300  0.17342400  0.74232300  1
  C  233  1  0.94737500  0.23028200  0.68821800  1
  C  234  1  0.07602400  0.19823800  0.72271100  1
  C  237  1  0.81213400  0.20327600  0.69814900  1
  C  240  1  0.95168900  0.16886900  0.58328800  1
  C  243  1  0.96190000  0.34675400  0.74905300  1
  C  246  1  0.94484500  0.62065500  0.68106100  1
  C  247  1  0.94151500  0.60722800  0.65148100  1
  C  248  1  0.93940000  0.63615000  0.63151600  1
  C  249  1  0.94117300  0.66826000  0.64819800  1
  C  250  1  0.94006800  0.70168900  0.63293900  1
  C  251  1  0.93724200  0.70271800  0.60075600  1
  C  252  1  0.93505900  0.66979800  0.58449800  1
  C  253  1  0.93619100  0.63645700  0.59967900  1
  C  254  1  0.94078200  0.56993800  0.64586700  1
  C  255  1  0.94335500  0.54604100  0.67062500  1
  C  256  1  0.94670900  0.55903400  0.70081400  1
  C  257  1  0.94750400  0.59671800  0.70588900  1
  C  258  1  0.97666600  0.67638100  0.69624800  1
  C  259  1  0.96686100  0.69548500  0.72237900  1
  C  260  1  0.92958600  0.69444800  0.72527300  1
  C  261  1  0.91532700  0.67547900  0.70054300  1
  C  262  1  0.90703900  0.70832100  0.74812600  1
  C  263  1  0.86954600  0.70353600  0.74545000  1
  C  264  1  0.85428500  0.68620300  0.71979600  1
  C  265  1  0.87770000  0.67138600  0.69757600  1
  C  266  1  0.01319100  0.67429800  0.68760400  1
  C  267  1  0.04020600  0.69195500  0.70500200  1
  C  268  1  0.02933700  0.71106700  0.73141200  1
  C  269  1  0.99295600  0.71272100  0.74036600  1
  C  282  1  0.94453000  0.66061900  0.68122700  1
  C  283  1  0.81437800  0.68385300  0.71648600  1
  C  286  1  0.07812700  0.69306200  0.69358800  1
  C  289  1  0.93670000  0.73729300  0.58371600  1
  C  292  1  0.94952500  0.53294700  0.72626500  1
  C  295  1  0.27174700  0.94030400  0.19104600  1
  C  296  1  0.28936300  0.93635100  0.16315600  1
  C  297  1  0.26358200  0.93742600  0.14019000  1
  C  298  1  0.22941500  0.94132200  0.15338500  1
  C  299  1  0.19838600  0.94216800  0.13487800  1
  C  300  1  0.20182000  0.93937600  0.10284100  1
  C  301  1  0.23670300  0.93585400  0.08999900  1
  C  302  1  0.26763800  0.93468200  0.10849700  1
  C  303  1  0.32678400  0.93035000  0.16199200  1
  C  304  1  0.34631300  0.92796600  0.18942500  1
  C  305  1  0.32896600  0.93211800  0.21793800  1
  C  306  1  0.29137600  0.93864100  0.21845900  1
  C  307  1  0.21750100  0.97689900  0.20092300  1
  C  308  1  0.19512300  0.96854200  0.22550700  1
  C  309  1  0.19204400  0.93129400  0.22755800  1
  C  310  1  0.21240000  0.91564200  0.20424600  1
  C  311  1  0.17426200  0.90986300  0.24920000  1
  C  312  1  0.17705100  0.87214100  0.24700600  1
  C  313  1  0.19676600  0.85557000  0.22321600  1
  C  314  1  0.21490500  0.87780700  0.20192600  1
  C  315  1  0.22498000  0.01319100  0.19385900  1
  C  316  1  0.21087100  0.04147700  0.21209300  1
  C  317  1  0.18915800  0.03201100  0.23745200  1
  C  318  1  0.18083700  0.99583600  0.24406200  1
  C  331  1  0.23223100  0.94364500  0.18695400  1
  C  332  1  0.19887400  0.81551200  0.22149800  1
  C  335  1  0.21883000  0.07958300  0.20329700  1
  C  338  1  0.16988900  0.93969400  0.08247600  1
  C  341  1  0.34910600  0.92729300  0.24698100  1
  C  344  1  0.62318100  0.94685100  0.18241500  1
  C  345  1  0.60987600  0.95125400  0.15288800  1
  C  346  1  0.63885200  0.95362700  0.13300600  1
  C  347  1  0.67088800  0.95078200  0.14966800  1
  C  348  1  0.70434000  0.95156300  0.13442700  1
  C  349  1  0.70551200  0.95533500  0.10230700  1
  C  350  1  0.67266700  0.95905300  0.08614400  1
  C  351  1  0.63928300  0.95803200  0.10127000  1
  C  352  1  0.57261700  0.95252300  0.14720200  1
  C  353  1  0.54861500  0.94949200  0.17184000  1
  C  354  1  0.56146200  0.94528300  0.20200000  1
  C  355  1  0.59912500  0.94386600  0.20713700  1
  C  356  1  0.67869900  0.91392300  0.19697600  1
  C  357  1  0.69841100  0.92295700  0.22297500  1
  C  358  1  0.69777800  0.96010800  0.22653900  1
  C  359  1  0.67839500  0.97525000  0.20242100  1
  C  360  1  0.71253800  0.98175300  0.24958900  1
  C  361  1  0.70812700  0.01932400  0.24780000  1
  C  362  1  0.69003200  0.03557100  0.22296700  1
  C  363  1  0.67451200  0.01302400  0.20043100  1
  C  364  1  0.67642200  0.87759600  0.18771900  1
  C  365  1  0.69443500  0.85012700  0.20437100  1
  C  366  1  0.71411200  0.86032000  0.23067000  1
  C  367  1  0.71595700  0.89643100  0.24026500  1
  C  380  1  0.66315200  0.94664600  0.18262700  1
  C  381  1  0.68800800  0.07564300  0.22096300  1
  C  384  1  0.69555800  0.81248300  0.19232500  1
  C  387  1  0.74019200  0.95523000  0.08534600  1
  C  390  1  0.53520500  0.94215200  0.22730600  1
  C  393  1  0.18482900  0.12167500  0.24006900  1
  C  394  1  0.18791000  0.14253300  0.26682700  1
  C  395  1  0.15720400  0.15596100  0.28176500  1
  C  396  1  0.12247100  0.14861100  0.27044500  1
  C  397  1  0.11900800  0.12723100  0.24392100  1
  C  400  1  0.14991900  0.11468400  0.22860100  1
  C  408  1  0.71883800  0.76866900  0.23346400  1
  C  409  1  0.70887900  0.74469700  0.25699900  1
  C  410  1  0.73490100  0.72875200  0.27598100  1
  C  411  1  0.77174200  0.73684600  0.27233900  1
  C  412  1  0.78204100  0.76188200  0.24970000  1
  C  415  1  0.75596100  0.77654800  0.22994000  1
  C  423  1  0.76785900  0.17703600  0.73760800  1
  C  424  1  0.74336300  0.18494500  0.76132400  1
  C  425  1  0.72683000  0.15736000  0.77828300  1
  C  426  1  0.73504300  0.12091700  0.77256500  1
  C  427  1  0.76069400  0.11264200  0.74980600  1
  C  430  1  0.77561900  0.14030200  0.73182100  1
  C  438  1  0.12124100  0.71688900  0.73495000  1
  C  439  1  0.14571700  0.70745600  0.75827500  1
  C  440  1  0.16173800  0.73385900  0.77682100  1
  C  441  1  0.15316100  0.77056000  0.77298800  1
  C  442  1  0.12749600  0.78031900  0.75068600  1
  C  445  1  0.11272200  0.75386200  0.73135800  1
  C  453  1  0.72289600  0.76955200  0.76808600  1
  C  454  1  0.71125700  0.74615600  0.74468600  1
  C  455  1  0.73603500  0.72921900  0.72513700  1
  C  456  1  0.77326900  0.73586300  0.72795200  1
  C  457  1  0.78522100  0.76051800  0.75030100  1
  C  460  1  0.76040500  0.77588100  0.77080000  1
  C  468  1  0.17956700  0.11995700  0.76455000  1
  C  469  1  0.18609700  0.14274100  0.73938600  1
  C  470  1  0.15753200  0.15752300  0.72245400  1
  C  471  1  0.12152200  0.14938700  0.72991200  1
  C  472  1  0.11459900  0.12563700  0.75439400  1
  C  475  1  0.14328500  0.11212600  0.77200300  1
  C  483  1  0.12060900  0.71400000  0.26672500  1
  C  484  1  0.14363000  0.70658200  0.24189000  1
  C  485  1  0.15821700  0.73451800  0.22411500  1
  C  486  1  0.14967300  0.77074900  0.23038800  1
  C  487  1  0.12569700  0.77853700  0.25452000  1
  C  490  1  0.11230400  0.75050700  0.27294600  1
  C  498  1  0.76748500  0.17827700  0.26499700  1
  C  499  1  0.74657100  0.18515600  0.23876600  1
  C  500  1  0.73136400  0.15684400  0.22176600  1
  C  501  1  0.73715200  0.12068500  0.23024000  1
  C  502  1  0.75881200  0.11337500  0.25599100  1
  C  505  1  0.77253700  0.14188800  0.27369800  1
  C  513  1  0.92379700  0.40163800  0.24594900  1
  C  514  1  0.91031100  0.41238600  0.27453300  1
  C  515  1  0.90747900  0.44916000  0.28184900  1
  C  516  1  0.91768300  0.47578300  0.26065200  1
  C  517  1  0.93046600  0.46517200  0.23167500  1
  C  520  1  0.93310900  0.42823200  0.22444400  1
  C  528  1  0.49071600  0.96583300  0.74550200  1
  C  529  1  0.47800000  0.97982200  0.77333300  1
  C  530  1  0.44079000  0.98325000  0.77862600  1
  C  531  1  0.41570300  0.97339300  0.75603300  1
  C  532  1  0.42833700  0.96060300  0.72763600  1
  C  535  1  0.46570300  0.95711300  0.72252200  1
  C  543  1  0.92438300  0.40193000  0.75211600  1
  C  544  1  0.91149000  0.41282600  0.72337900  1
  C  545  1  0.90846200  0.44964600  0.71629500  1
  C  546  1  0.91797300  0.47613500  0.73783700  1
  C  547  1  0.93011100  0.46535700  0.76696700  1
  C  550  1  0.93288900  0.42837400  0.77398600  1
  C  558  1  0.40352000  0.96565900  0.25146000  1
  C  559  1  0.41485600  0.97867000  0.22288200  1
  C  560  1  0.45178000  0.98229100  0.21639600  1
  C  561  1  0.47792900  0.97315700  0.23835000  1
  C  562  1  0.46668500  0.96086500  0.26730500  1
  C  565  1  0.42959600  0.95755400  0.27374600  1
  C  573  1  0.92015200  0.17354200  0.46868600  1
  C  574  1  0.90906500  0.20342800  0.48608400  1
  C  575  1  0.90898300  0.20172200  0.51802400  1
  C  576  1  0.92031300  0.17023200  0.53319100  1
  C  577  1  0.93201300  0.14025900  0.51586400  1
  C  580  1  0.93149300  0.14190900  0.48378100  1
  C  588  1  0.96788900  0.73766900  0.46871800  1
  C  589  1  0.98300500  0.70928100  0.48575400  1
  C  590  1  0.98291000  0.71042600  0.51773300  1
  C  591  1  0.96744700  0.73982800  0.53331200  1
  C  592  1  0.95177600  0.76821900  0.51632800  1
  C  595  1  0.95240400  0.76717600  0.48424000  1
  C  603  1  0.72576200  0.92562600  0.97079300  1
  C  604  1  0.70034000  0.90984200  0.99051800  1
  C  605  1  0.70637200  0.90920100  0.02209200  1
  C  606  1  0.73749000  0.92513000  0.03466800  1
  C  607  1  0.76288300  0.94154200  0.01498300  1
  C  610  1  0.75719200  0.94121600  0.98323200  1
  C  618  1  0.16525600  0.97130700  0.96801400  1
  C  619  1  0.19596600  0.98396800  0.98352900  1
  C  620  1  0.19712200  0.98383900  0.01549000  1
  C  621  1  0.16752000  0.97125300  0.03254800  1
  C  622  1  0.13662600  0.95830400  0.01711400  1
  C  625  1  0.13558700  0.95856200  0.98502100  1
  C  633  1  0.38104600  0.72858000  0.57926000  1
  C  634  1  0.38576600  0.74751100  0.60645200  1
  C  635  1  0.38537500  0.72291100  0.63032100  1
  C  636  1  0.38141700  0.68811300  0.61840000  1
  C  637  1  0.38067600  0.65807500  0.63807600  1
  C  638  1  0.38362600  0.66316800  0.66995000  1
  C  639  1  0.38740600  0.69867800  0.68144500  1
  C  640  1  0.38847900  0.72860800  0.66181000  1
  C  641  1  0.39149200  0.78498800  0.60629800  1
  C  642  1  0.39296300  0.80323400  0.57821600  1
  C  643  1  0.38796500  0.78460700  0.55038300  1
  C  644  1  0.38180300  0.74694200  0.55120600  1
  C  645  1  0.40599900  0.66863500  0.56783900  1
  C  646  1  0.38977900  0.64547100  0.54679500  1
  C  647  1  0.35267900  0.64785000  0.54983700  1
  C  648  1  0.34464700  0.67314400  0.57238700  1
  C  649  1  0.32533100  0.62896400  0.53462600  1
  C  650  1  0.28930400  0.63519100  0.54295500  1
  C  651  1  0.28001600  0.66045100  0.56588200  1
  C  652  1  0.30839600  0.67964800  0.58038500  1
  C  653  1  0.44392700  0.67157500  0.56886500  1
  C  654  1  0.46544100  0.65110100  0.54853400  1
  C  655  1  0.44810800  0.62845300  0.52711000  1
  C  656  1  0.41041500  0.62521200  0.52622500  1
  C  669  1  0.37819800  0.68928800  0.58478000  1
  C  670  1  0.24214300  0.66419800  0.57706400  1
  C  673  1  0.50556100  0.65308300  0.54863600  1
  C  676  1  0.38281000  0.63242700  0.69159700  1
  C  679  1  0.39151900  0.80366500  0.52069600  1
  C  682  1  0.37454900  0.07760190  0.59210400  1
  C  683  1  0.37132900  0.06355890  0.62149000  1
  C  684  1  0.36956200  0.09205290  0.64191400  1
  C  685  1  0.37149400  0.12451200  0.62573500  1
  C  686  1  0.37080900  0.15760800  0.64152100  1
  C  687  1  0.36834900  0.15794200  0.67373100  1
  C  688  1  0.36622500  0.12468500  0.68950300  1
  C  689  1  0.36684300  0.09168090  0.67378600  1
  C  690  1  0.37063700  0.02615490  0.62655300  1
  C  691  1  0.37326700  0.00277288  0.60145500  1
  C  692  1  0.37665400  0.01638490  0.57145900  1
  C  693  1  0.37729200  0.05417390  0.56693500  1
  C  694  1  0.34591300  0.13346800  0.57344400  1
  C  695  1  0.36068400  0.15306700  0.54927500  1
  C  696  1  0.39796400  0.15305100  0.55217200  1
  C  697  1  0.40725200  0.13308500  0.57796600  1
  C  698  1  0.42455800  0.16952200  0.53420100  1
  C  699  1  0.46095200  0.16600800  0.54271800  1
  C  700  1  0.47131400  0.14608300  0.56885600  1
  C  701  1  0.44373200  0.12956100  0.58640600  1
  C  702  1  0.30819100  0.12991100  0.57608100  1
  C  703  1  0.28521600  0.14600500  0.55415500  1
  C  704  1  0.30096800  0.16431300  0.52920600  1
  C  705  1  0.33856300  0.16836800  0.52678000  1
  C  718  1  0.37474100  0.11757400  0.59259000  1
  C  719  1  0.50941700  0.14462300  0.57983700  1
  C  722  1  0.24523600  0.14389300  0.55686900  1
  C  725  1  0.36813600  0.19210800  0.69134300  1
  C  728  1  0.37989000  0.99080100  0.54567600  1
  C  731  1  0.05206870  0.40013400  0.08226850  1
  C  732  1  0.03282970  0.40057600  0.10958400  1
  C  733  1  0.05721170  0.40499200  0.13330500  1
  C  734  1  0.09212870  0.40723900  0.12128200  1
  C  735  1  0.12194500  0.41101700  0.14096000  1
  C  736  1  0.11651300  0.41237000  0.17288200  1
  C  737  1  0.08090570  0.41002900  0.18442900  1
  C  738  1  0.05116770  0.40640700  0.16482600  1
  C  739  1  0.99523000  0.39575000  0.10983400  1
  C  740  1  0.97703700  0.39073800  0.08202250  1
  C  741  1  0.99588500  0.39115300  0.05398650  1
  C  742  1  0.03379470  0.39564500  0.05441450  1
  C  743  1  0.10810700  0.43301600  0.06988350  1
  C  744  1  0.13178100  0.41905100  0.04807550  1
  C  745  1  0.13424300  0.38201600  0.05195650  1
  C  746  1  0.11140000  0.37185300  0.07571750  1
  C  747  1  0.15588500  0.35655700  0.03698450  1
  C  748  1  0.15480200  0.32044300  0.04667050  1
  C  749  1  0.13198800  0.30917000  0.07074750  1
  C  750  1  0.10976700  0.33546500  0.08490150  1
  C  751  1  0.10217400  0.47054000  0.07150050  1
  C  752  1  0.11978300  0.49396300  0.05074450  1
  C  753  1  0.14157800  0.47872900  0.02764650  1
  C  754  1  0.14828400  0.44147700  0.02645350  1
  C  767  1  0.09135870  0.40343700  0.08767750  1
  C  768  1  0.13363400  0.27165000  0.08297350  1
  C  771  1  0.11629600  0.53391100  0.05289750  1
  C  774  1  0.14695500  0.41576200  0.19464500  1
  C  777  1  0.97651200  0.38579600  0.02464150  1
  C  780  1  0.70502700  0.39998800  0.08730850  1
  C  781  1  0.72079500  0.39764700  0.11612500  1
  C  782  1  0.69351000  0.39645600  0.13773800  1
  C  783  1  0.66015300  0.39816700  0.12289400  1
  C  784  1  0.62798900  0.39815100  0.14000000  1
  C  785  1  0.62948000  0.39631700  0.17220600  1
  C  786  1  0.66359100  0.39403700  0.18661700  1
  C  787  1  0.69567500  0.39418800  0.16958000  1
  C  788  1  0.75846000  0.39697900  0.11957000  1
  C  789  1  0.78030100  0.39837200  0.09341850  1
  C  790  1  0.76488400  0.40031700  0.06395850  1
  C  791  1  0.72688200  0.40122800  0.06108050  1
  C  792  1  0.64770400  0.37192600  0.07132750  1
  C  793  1  0.62698000  0.38671000  0.04784150  1
  C  794  1  0.62771100  0.42402500  0.05038950  1
  C  795  1  0.64933200  0.43329100  0.07521350  1
  C  796  1  0.61061000  0.45068900  0.03292150  1
  C  797  1  0.61516300  0.48711300  0.04100650  1
  C  798  1  0.63676300  0.49744600  0.06619350  1
  C  799  1  0.65392300  0.46979100  0.08320450  1
  C  800  1  0.65098300  0.33420100  0.07411550  1
  C  801  1  0.63345600  0.31121200  0.05300650  1
  C  802  1  0.61392900  0.32693700  0.02870850  1
  C  803  1  0.61014900  0.36454800  0.02616850  1
  C  816  1  0.66516000  0.40073500  0.08948050  1
  C  817  1  0.63932000  0.53559400  0.07692550  1
  C  820  1  0.63544900  0.27124000  0.05582150  1
  C  823  1  0.59635900  0.39726800  0.19118000  1
  C  826  1  0.78874300  0.40038400  0.03689350  1
  C  829  1  0.38098900  0.72785300  0.96538400  1
  C  830  1  0.38553700  0.74568200  0.93765100  1
  C  831  1  0.38516000  0.72008100  0.91452300  1
  C  832  1  0.38128800  0.68579100  0.92747800  1
  C  833  1  0.38064400  0.65492900  0.90875100  1
  C  834  1  0.38365100  0.65864200  0.87674500  1
  C  835  1  0.38751300  0.69363500  0.86418800  1
  C  836  1  0.38841200  0.72440600  0.88289000  1
  C  837  1  0.39149700  0.78311800  0.93676600  1
  C  838  1  0.39333200  0.80242600  0.96433600  1
  C  839  1  0.38866200  0.78485900  0.99269700  1
  C  840  1  0.38221700  0.74724800  0.99292500  1
  C  841  1  0.34547300  0.67244400  0.97456700  1
  C  842  1  0.35425700  0.64922100  0.99847700  1
  C  843  1  0.39150200  0.64756100  0.00108655  1
  C  844  1  0.40685000  0.66898500  0.97833500  1
  C  845  1  0.41309500  0.62965000  0.02251950  1
  C  846  1  0.45074400  0.63334200  0.02063450  1
  C  847  1  0.46709000  0.65393300  0.99727200  1
  C  848  1  0.44465400  0.67226700  0.97624500  1
  C  849  1  0.30906600  0.67771900  0.96651200  1
  C  850  1  0.28115700  0.65940400  0.98238600  1
  C  851  1  0.29107300  0.63656400  0.00688155  1
  C  852  1  0.32733100  0.63147600  0.01515750  1
  C  865  1  0.37848300  0.68833400  0.96105300  1
  C  866  1  0.50713200  0.65629000  0.99554600  1
  C  869  1  0.24324200  0.66132800  0.97098400  1
  C  872  1  0.38279700  0.62692100  0.85612300  1
  C  875  1  0.39300800  0.80480600  0.02188750  1
  C  878  1  0.37595300  0.07870690  0.95389600  1
  C  879  1  0.37262300  0.06527990  0.92431600  1
  C  880  1  0.37050800  0.09420190  0.90435100  1
  C  881  1  0.37228100  0.12631200  0.92103300  1
  C  882  1  0.37117600  0.15974100  0.90577400  1
  C  883  1  0.36835000  0.16077000  0.87359100  1
  C  884  1  0.36616700  0.12785000  0.85733300  1
  C  885  1  0.36729900  0.09450890  0.87251400  1
  C  886  1  0.37189000  0.02798990  0.91870200  1
  C  887  1  0.37446300  0.00409288  0.94346000  1
  C  888  1  0.37781700  0.01708590  0.97364900  1
  C  889  1  0.37861200  0.05476990  0.97872400  1
  C  890  1  0.40777400  0.13443300  0.96908300  1
  C  891  1  0.39796900  0.15353700  0.99521400  1
  C  892  1  0.36069400  0.15250000  0.99810800  1
  C  893  1  0.34643500  0.13353100  0.97337800  1
  C  894  1  0.33814700  0.16637300  0.02096050  1
  C  895  1  0.30065400  0.16158800  0.01828450  1
  C  896  1  0.28539300  0.14425500  0.99263100  1
  C  897  1  0.30880800  0.12943800  0.97041100  1
  C  898  1  0.44429900  0.13235000  0.96043900  1
  C  899  1  0.47131400  0.15000700  0.97783700  1
  C  900  1  0.46044500  0.16911900  0.00424655  1
  C  901  1  0.42406400  0.17077300  0.01320050  1
  C  914  1  0.37563800  0.11867100  0.95406200  1
  C  915  1  0.24548600  0.14190500  0.98932100  1
  C  918  1  0.50923500  0.15111400  0.96642300  1
  C  921  1  0.36780800  0.19534500  0.85655100  1
  C  924  1  0.38063300  0.99099900  0.99910000  1
  C  927  1  0.70285500  0.39835600  0.46388100  1
  C  928  1  0.72047100  0.39440300  0.43599100  1
  C  929  1  0.69469000  0.39547800  0.41302500  1
  C  930  1  0.66052300  0.39937400  0.42622000  1
  C  931  1  0.62949400  0.40022000  0.40771300  1
  C  932  1  0.63292800  0.39742800  0.37567600  1
  C  933  1  0.66781100  0.39390600  0.36283400  1
  C  934  1  0.69874600  0.39273400  0.38133200  1
  C  935  1  0.75789200  0.38840200  0.43482700  1
  C  936  1  0.77742100  0.38601800  0.46226000  1
  C  937  1  0.76007400  0.39017000  0.49077300  1
  C  938  1  0.72248400  0.39669300  0.49129400  1
  C  939  1  0.64860900  0.43495100  0.47375800  1
  C  940  1  0.62623100  0.42659400  0.49834200  1
  C  941  1  0.62315200  0.38934600  0.50039300  1
  C  942  1  0.64350800  0.37369400  0.47708100  1
  C  943  1  0.60537000  0.36791500  0.52203500  1
  C  944  1  0.60815900  0.33019300  0.51984100  1
  C  945  1  0.62787400  0.31362200  0.49605100  1
  C  946  1  0.64601300  0.33585900  0.47476100  1
  C  947  1  0.65608800  0.47124300  0.46669400  1
  C  948  1  0.64197900  0.49952900  0.48492800  1
  C  949  1  0.62026600  0.49006300  0.51028700  1
  C  950  1  0.61194500  0.45388800  0.51689700  1
  C  963  1  0.66333900  0.40169700  0.45978900  1
  C  964  1  0.62998200  0.27356400  0.49433300  1
  C  967  1  0.64993800  0.53763500  0.47613200  1
  C  970  1  0.60099700  0.39774600  0.35531100  1
  C  973  1  0.78021400  0.38534500  0.51981600  1
  C  976  1  0.05428870  0.40490300  0.45525000  1
  C  977  1  0.04098370  0.40930600  0.42572300  1
  C  978  1  0.06995970  0.41167900  0.40584100  1
  C  979  1  0.10199600  0.40883400  0.42250300  1
  C  980  1  0.13544800  0.40961500  0.40726200  1
  C  981  1  0.13662000  0.41338700  0.37514200  1
  C  982  1  0.10377500  0.41710500  0.35897900  1
  C  983  1  0.07039070  0.41608400  0.37410500  1
  C  984  1  0.00372465  0.41057500  0.42003700  1
  C  985  1  0.97972300  0.40754400  0.44467500  1
  C  986  1  0.99257000  0.40333500  0.47483500  1
  C  987  1  0.03023270  0.40191800  0.47997200  1
  C  988  1  0.10980700  0.37197500  0.46981100  1
  C  989  1  0.12951900  0.38100900  0.49581000  1
  C  990  1  0.12888600  0.41816000  0.49937400  1
  C  991  1  0.10950300  0.43330200  0.47525600  1
  C  992  1  0.14364600  0.43980500  0.52242400  1
  C  993  1  0.13923500  0.47737600  0.52063500  1
  C  994  1  0.12114000  0.49362300  0.49580200  1
  C  995  1  0.10562000  0.47107600  0.47326600  1
  C  996  1  0.10753000  0.33564800  0.46055400  1
  C  997  1  0.12554300  0.30817900  0.47720600  1
  C  998  1  0.14522000  0.31837200  0.50350500  1
  C  999  1  0.14706500  0.35448300  0.51310000  1
  C  1012  1  0.09425970  0.40469800  0.45546200  1
  C  1013  1  0.11911600  0.53369500  0.49379800  1
  C  1016  1  0.12666600  0.27053500  0.46516000  1
  C  1019  1  0.17130000  0.41328200  0.35818100  1
  C  1022  1  0.96631300  0.40020400  0.50014100  1
  C  1025  1  0.61593700  0.57972700  0.51290400  1
  C  1026  1  0.61901800  0.60058500  0.53966200  1
  C  1027  1  0.58831200  0.61401300  0.55460000  1
  C  1028  1  0.55357900  0.60666300  0.54328000  1
  C  1029  1  0.55011600  0.58528300  0.51675600  1
  C  1032  1  0.58102700  0.57273600  0.50143600  1
  C  1040  1  0.14994600  0.22672100  0.50629900  1
  C  1041  1  0.13998700  0.20274900  0.52983400  1
  C  1042  1  0.16600900  0.18680400  0.54881600  1
  C  1043  1  0.20285000  0.19489800  0.54517400  1
  C  1044  1  0.21314900  0.21993400  0.52253500  1
  C  1047  1  0.18706900  0.23460000  0.50277500  1
  C  1055  1  0.19896700  0.63508800  0.01044250  1
  C  1056  1  0.17447100  0.64299700  0.03415850  1
  C  1057  1  0.15793800  0.61541200  0.05111750  1
  C  1058  1  0.16615100  0.57896900  0.04539950  1
  C  1059  1  0.19180200  0.57069400  0.02264050  1
  C  1062  1  0.20672700  0.59835400  0.00465555  1
  C  1070  1  0.55234900  0.17494100  0.00778455  1
  C  1071  1  0.57682500  0.16550800  0.03110950  1
  C  1072  1  0.59284600  0.19191100  0.04965550  1
  C  1073  1  0.58426900  0.22861200  0.04582250  1
  C  1074  1  0.55860400  0.23837100  0.02352050  1
  C  1077  1  0.54383000  0.21191400  0.00419255  1
  C  1085  1  0.15400400  0.22760400  0.04092050  1
  C  1086  1  0.14236500  0.20420800  0.01752050  1
  C  1087  1  0.16714300  0.18727100  0.99797200  1
  C  1088  1  0.20437700  0.19391500  0.00078655  1
  C  1089  1  0.21632900  0.21857000  0.02313550  1
  C  1092  1  0.19151300  0.23393300  0.04363450  1
  C  1100  1  0.61067500  0.57800900  0.03738450  1
  C  1101  1  0.61720500  0.60079300  0.01222050  1
  C  1102  1  0.58864000  0.61557500  0.99528900  1
  C  1103  1  0.55263000  0.60743900  0.00274655  1
  C  1104  1  0.54570700  0.58368900  0.02722850  1
  C  1107  1  0.57439300  0.57017800  0.04483750  1
  C  1115  1  0.55171700  0.17205200  0.53956000  1
  C  1116  1  0.57473800  0.16463400  0.51472500  1
  C  1117  1  0.58932500  0.19257000  0.49695000  1
  C  1118  1  0.58078100  0.22880100  0.50322300  1
  C  1119  1  0.55680500  0.23658900  0.52735500  1
  C  1122  1  0.54341200  0.20855900  0.54578100  1
  C  1130  1  0.19859300  0.63632900  0.53783200  1
  C  1131  1  0.17767900  0.64320800  0.51160100  1
  C  1132  1  0.16247200  0.61489600  0.49460100  1
  C  1133  1  0.16826000  0.57873700  0.50307500  1
  C  1134  1  0.18992000  0.57142700  0.52882600  1
  C  1137  1  0.20364500  0.59994000  0.54653300  1
  C  1145  1  0.35490500  0.85969000  0.51878400  1
  C  1146  1  0.34141900  0.87043800  0.54736800  1
  C  1147  1  0.33858700  0.90721200  0.55468400  1
  C  1148  1  0.34879100  0.93383500  0.53348700  1
  C  1149  1  0.36157400  0.92322400  0.50451000  1
  C  1152  1  0.36421700  0.88628400  0.49727900  1
  C  1160  1  0.92182400  0.42388500  0.01833650  1
  C  1161  1  0.90910800  0.43787400  0.04616750  1
  C  1162  1  0.87189800  0.44130200  0.05146050  1
  C  1163  1  0.84681100  0.43144500  0.02886750  1
  C  1164  1  0.85944500  0.41865500  0.00047055  1
  C  1167  1  0.89681100  0.41516500  0.99535700  1
  C  1175  1  0.35549100  0.85998200  0.02495050  1
  C  1176  1  0.34259800  0.87087800  0.99621400  1
  C  1177  1  0.33957000  0.90769800  0.98913000  1
  C  1178  1  0.34908100  0.93418700  0.01067150  1
  C  1179  1  0.36121900  0.92340900  0.03980150  1
  C  1182  1  0.36399700  0.88642600  0.04682050  1
  C  1190  1  0.83462800  0.42371100  0.52429500  1
  C  1191  1  0.84596400  0.43672200  0.49571700  1
  C  1192  1  0.88288800  0.44034300  0.48923100  1
  C  1193  1  0.90903700  0.43120900  0.51118500  1
  C  1194  1  0.89779300  0.41891700  0.54014000  1
  C  1197  1  0.86070400  0.41560600  0.54658100  1
  C  1205  1  0.35126000  0.63159400  0.74152100  1
  C  1206  1  0.34017300  0.66148000  0.75891900  1
  C  1207  1  0.34009100  0.65977400  0.79085900  1
  C  1208  1  0.35142100  0.62828400  0.80602600  1
  C  1209  1  0.36312100  0.59831100  0.78869900  1
  C  1212  1  0.36260100  0.59996100  0.75661600  1
  C  1220  1  0.39899700  0.19572100  0.74155300  1
  C  1221  1  0.41411300  0.16733300  0.75858900  1
  C  1222  1  0.41401800  0.16847800  0.79056800  1
  C  1223  1  0.39855500  0.19788000  0.80614700  1
  C  1224  1  0.38288400  0.22627100  0.78916300  1
  C  1227  1  0.38351200  0.22522800  0.75707500  1
  C  1235  1  0.15687000  0.38367800  0.24362800  1
  C  1236  1  0.13144800  0.36789400  0.26335300  1
  C  1237  1  0.13748000  0.36725300  0.29492700  1
  C  1238  1  0.16859800  0.38318200  0.30750300  1
  C  1239  1  0.19399100  0.39959400  0.28781800  1
  C  1242  1  0.18830000  0.39926800  0.25606700  1
  C  1250  1  0.59636400  0.42935900  0.24084900  1
  C  1251  1  0.62707400  0.44202000  0.25636400  1
  C  1252  1  0.62823000  0.44189100  0.28832500  1
  C  1253  1  0.59862800  0.42930500  0.30538300  1
  C  1254  1  0.56773400  0.41635600  0.28994900  1
  C  1257  1  0.56669500  0.41661400  0.25785600  1
  N  404  1  0.21731600  0.10800500  0.22729500  1
  N  406  1  0.09242500  0.16158500  0.28700400  1
  N  419  1  0.69044900  0.78310300  0.21519000  1
  N  421  1  0.79667100  0.72059100  0.29244200  1
  N  434  1  0.78320900  0.20687300  0.72163600  1
  N  436  1  0.71846700  0.09436200  0.79096700  1
  N  449  1  0.10700900  0.68817800  0.71692500  1
  N  451  1  0.16984400  0.79595200  0.79241100  1
  N  464  1  0.69573700  0.78454700  0.78731600  1
  N  466  1  0.79687500  0.71837400  0.70746000  1
  N  479  1  0.21026300  0.10608900  0.78019500  1
  N  481  1  0.09382000  0.16455900  0.71190000  1
  N  494  1  0.10706500  0.68386600  0.28332700  1
  N  496  1  0.16477400  0.79779300  0.21164100  1
  N  509  1  0.78236400  0.20868500  0.28043100  1
  N  511  1  0.72245600  0.09320600  0.21166200  1
  N  524  1  0.92759100  0.36508000  0.23765500  1
  N  526  1  0.91461100  0.51216900  0.26975800  1
  N  539  1  0.52772300  0.96061100  0.73946800  1
  N  541  1  0.37870800  0.97643500  0.76325200  1
  N  554  1  0.92892800  0.36536200  0.76005100  1
  N  556  1  0.91517300  0.51256900  0.72883600  1
  N  569  1  0.36686200  0.96037000  0.25876300  1
  N  571  1  0.51452000  0.97633400  0.22990600  1
  N  584  1  0.91773300  0.17605900  0.43667400  1
  N  586  1  0.91773500  0.16971700  0.56529200  1
  N  599  1  0.97085100  0.73665100  0.43664200  1
  N  601  1  0.97034600  0.74063700  0.56542900  1
  N  614  1  0.71943800  0.92345900  0.93913000  1
  N  616  1  0.74303200  0.92198100  0.06646100  1
  N  629  1  0.16461900  0.97353200  0.93590800  1
  N  631  1  0.16977400  0.97373500  0.06459600  1
  N  1036  1  0.64842400  0.56605700  0.50013000  1
  N  1038  1  0.52353300  0.61963700  0.55983900  1
  N  1051  1  0.12155700  0.24115500  0.48802500  1
  N  1053  1  0.22777900  0.17864300  0.56527700  1
  N  1066  1  0.21431700  0.66492500  0.99447100  1
  N  1068  1  0.14957500  0.55241400  0.06380150  1
  N  1081  1  0.53811700  0.14623000  0.98976000  1
  N  1083  1  0.60095200  0.25400400  0.06524550  1
  N  1096  1  0.12684500  0.24259900  0.06015050  1
  N  1098  1  0.22798300  0.17642600  0.98029500  1
  N  1111  1  0.64137100  0.56414100  0.05302950  1
  N  1113  1  0.52492800  0.62261100  0.98473500  1
  N  1126  1  0.53817300  0.14191800  0.55616200  1
  N  1128  1  0.59588200  0.25584500  0.48447600  1
  N  1141  1  0.21347200  0.66673700  0.55326600  1
  N  1143  1  0.15356400  0.55125800  0.48449700  1
  N  1156  1  0.35869900  0.82313200  0.51049000  1
  N  1158  1  0.34571900  0.97022100  0.54259300  1
  N  1171  1  0.95883100  0.41866300  0.01230250  1
  N  1173  1  0.80981600  0.43448700  0.03608650  1
  N  1186  1  0.36003600  0.82341400  0.03288550  1
  N  1188  1  0.34628100  0.97062100  0.00167055  1
  N  1201  1  0.79797000  0.41842200  0.53159800  1
  N  1203  1  0.94562800  0.43438600  0.50274100  1
  N  1216  1  0.34884100  0.63411100  0.70950900  1
  N  1218  1  0.34884300  0.62776900  0.83812700  1
  N  1231  1  0.40195900  0.19470300  0.70947700  1
  N  1233  1  0.40145400  0.19868900  0.83826400  1
  N  1246  1  0.15054600  0.38151100  0.21196500  1
  N  1248  1  0.17414000  0.38003300  0.33929600  1
  N  1261  1  0.59572700  0.43158400  0.20874300  1
  N  1263  1  0.60088200  0.43178700  0.33743100  1
  O  402  1  0.08623400  0.11769800  0.23288900  1
  O  417  1  0.81680400  0.77270600  0.24666300  1
  O  432  1  0.77243400  0.07845400  0.74518300  1
  O  447  1  0.11625600  0.81492900  0.74750000  1
  O  462  1  0.82035900  0.77040100  0.75235400  1
  O  477  1  0.08066300  0.11473600  0.76125600  1
  O  492  1  0.11462100  0.81271000  0.26030200  1
  O  507  1  0.76777100  0.07919000  0.26387900  1
  O  522  1  0.93907700  0.49033300  0.21039400  1
  O  537  1  0.40472300  0.95236600  0.70502200  1
  O  552  1  0.93810500  0.49038300  0.78853000  1
  O  567  1  0.49135500  0.95316500  0.28923400  1
  O  582  1  0.94165600  0.10908900  0.52992200  1
  O  597  1  0.93837900  0.79773400  0.53074900  1
  O  612  1  0.79403800  0.95534000  0.02635600  1
  O  627  1  0.10713800  0.94751800  0.03304800  1
  O  1034  1  0.51734200  0.57575000  0.50572400  1
  O  1049  1  0.24791200  0.23075800  0.51949800  1
  O  1064  1  0.20354200  0.53650600  0.01801750  1
  O  1079  1  0.54736400  0.27298100  0.02033450  1
  O  1094  1  0.25146700  0.22845300  0.02518850  1
  O  1109  1  0.51177100  0.57278800  0.03409050  1
  O  1124  1  0.54572900  0.27076200  0.53313700  1
  O  1139  1  0.19887900  0.53724200  0.53671400  1
  O  1154  1  0.37018500  0.94838500  0.48322900  1
  O  1169  1  0.83583100  0.41041800  0.97785700  1
  O  1184  1  0.36921300  0.94843500  0.06136450  1
  O  1199  1  0.92246300  0.41121700  0.56206900  1
  O  1214  1  0.37276400  0.56714100  0.80275700  1
  O  1229  1  0.36948700  0.25578600  0.80358400  1
  O  1244  1  0.22514600  0.41339200  0.29919100  1
  O  1259  1  0.53824600  0.40557000  0.30588300  1
