# generated using pymatgen
data_H15C28N3
_symmetry_space_group_name_H-M   'P 1'
_cell_length_a   72.84510000
_cell_length_b   72.84580000
_cell_length_c   72.84420000
_cell_angle_alpha   90.00020000
_cell_angle_beta   90.00080000
_cell_angle_gamma   89.99990000
_symmetry_Int_Tables_number   1
_chemical_formula_structural   H15C28N3
_chemical_formula_sum   'H1440 C2688 N288'
_cell_volume   386544.80330328
_cell_formula_units_Z   96
loop_
 _symmetry_equiv_pos_site_id
 _symmetry_equiv_pos_as_xyz
  1  'x, y, z'
loop_
 _atom_site_type_symbol
 _atom_site_label
 _atom_site_symmetry_multiplicity
 _atom_site_fract_x
 _atom_site_fract_y
 _atom_site_fract_z
 _atom_site_occupancy
  H  18  1  0.79351600  0.94067600  0.65332600  1
  H  19  1  0.81054100  0.91578500  0.64052200  1
  H  20  1  0.84132900  0.95971600  0.68019900  1
  H  21  1  0.85164400  0.80742500  0.57455600  1
  H  22  1  0.82665700  0.85655900  0.55616800  1
  H  23  1  0.81294200  0.84018000  0.53117600  1
  H  24  1  0.83798800  0.79115500  0.54962200  1
  H  25  1  0.93159000  0.81545200  0.63929200  1
  H  26  1  0.95645500  0.85024300  0.69047100  1
  H  27  1  0.92808100  0.85956300  0.67693900  1
  H  28  1  0.96004500  0.80615000  0.65292100  1
  H  35  1  0.84150500  0.87855200  0.61095200  1
  H  36  1  0.88262600  0.83772200  0.61254800  1
  H  37  1  0.88145500  0.87928700  0.65295500  1
  H  38  1  0.85846100  0.93477100  0.66735000  1
  H  49  1  0.79202000  0.96389400  0.67831600  1
  H  50  1  0.81307100  0.79078700  0.52645900  1
  H  51  1  0.98637000  0.83378600  0.68299900  1
  H  69  1  0.23641000  0.08924400  0.65334200  1
  H  70  1  0.21938500  0.11414400  0.64055500  1
  H  71  1  0.18859100  0.07017100  0.68017900  1
  H  72  1  0.17825300  0.22247400  0.57454900  1
  H  73  1  0.20327900  0.17334700  0.55619900  1
  H  74  1  0.21700100  0.18972300  0.53120900  1
  H  75  1  0.19191600  0.23874100  0.54961800  1
  H  76  1  0.09833700  0.21446900  0.63930800  1
  H  77  1  0.07344500  0.17966300  0.69046200  1
  H  78  1  0.10181600  0.17033600  0.67693200  1
  H  79  1  0.06988300  0.22377700  0.65293700  1
  H  86  1  0.18841300  0.15135700  0.61096900  1
  H  87  1  0.14728900  0.19218400  0.61256100  1
  H  88  1  0.14846200  0.15062400  0.65297000  1
  H  89  1  0.17145900  0.09512500  0.66734700  1
  H  100  1  0.23790000  0.06600000  0.67831900  1
  H  101  1  0.21687400  0.23910200  0.52648800  1
  H  102  1  0.04353800  0.19612200  0.68298400  1
  H  120  1  0.79350800  0.08923200  0.29809700  1
  H  121  1  0.81053300  0.11413200  0.31088400  1
  H  122  1  0.84132800  0.07015300  0.27126500  1
  H  123  1  0.85164500  0.22246800  0.37687400  1
  H  124  1  0.82665500  0.17333600  0.39525800  1
  H  125  1  0.81293500  0.18971300  0.42024600  1
  H  126  1  0.83798300  0.23873800  0.40180500  1
  H  127  1  0.93158000  0.21445500  0.31213700  1
  H  128  1  0.95646800  0.17965500  0.26097800  1
  H  129  1  0.92809400  0.17033300  0.27450100  1
  H  130  1  0.96003800  0.22376000  0.29851500  1
  H  137  1  0.84150500  0.15134100  0.34047600  1
  H  138  1  0.88262900  0.19217000  0.33888300  1
  H  139  1  0.88145700  0.15060800  0.29847500  1
  H  140  1  0.85846100  0.09510900  0.28409600  1
  H  151  1  0.79201700  0.06598500  0.27312600  1
  H  152  1  0.81306000  0.23910600  0.42496400  1
  H  153  1  0.98637500  0.19611300  0.26846700  1
  H  171  1  0.23640200  0.94067500  0.29811000  1
  H  172  1  0.21938100  0.91577400  0.31090200  1
  H  173  1  0.18858800  0.95971900  0.27124200  1
  H  174  1  0.17826800  0.80742400  0.37688200  1
  H  175  1  0.20326600  0.85655400  0.39526000  1
  H  176  1  0.21698300  0.84017700  0.42025100  1
  H  177  1  0.19192400  0.79115400  0.40181600  1
  H  178  1  0.09834000  0.81543500  0.31212900  1
  H  179  1  0.07346600  0.85023600  0.26096100  1
  H  180  1  0.10184100  0.85955400  0.27449000  1
  H  181  1  0.06988500  0.80613400  0.29850400  1
  H  188  1  0.18841500  0.87854700  0.34047800  1
  H  189  1  0.14729600  0.83771400  0.33888000  1
  H  190  1  0.14846900  0.87927600  0.29847100  1
  H  191  1  0.17145900  0.93476400  0.28408000  1
  H  202  1  0.23789400  0.96389300  0.27311300  1
  H  203  1  0.21684800  0.79078600  0.42497400  1
  H  204  1  0.04355300  0.83377400  0.26843000  1
  H  222  1  0.94113100  0.69303200  0.75384400  1
  H  223  1  0.91620700  0.68016600  0.77077800  1
  H  224  1  0.96026600  0.71947100  0.80185900  1
  H  225  1  0.80789500  0.61387700  0.81215400  1
  H  226  1  0.85691000  0.59539700  0.78700000  1
  H  227  1  0.84045000  0.57040600  0.77338900  1
  H  228  1  0.79154400  0.58894000  0.79859900  1
  H  229  1  0.81589700  0.67844100  0.89180600  1
  H  230  1  0.85058300  0.72958600  0.91689100  1
  H  231  1  0.86000000  0.71612100  0.88851700  1
  H  232  1  0.80649600  0.69200600  0.92026100  1
  H  239  1  0.87903000  0.65026200  0.80178000  1
  H  240  1  0.83824400  0.65180500  0.84294800  1
  H  241  1  0.87976800  0.69224800  0.84174800  1
  H  242  1  0.93528700  0.70656100  0.81890000  1
  H  253  1  0.96444900  0.71798000  0.75254300  1
  H  254  1  0.79106400  0.56576300  0.77367800  1
  H  255  1  0.83399600  0.72205600  0.94674100  1
  H  273  1  0.08877400  0.69301900  0.19757100  1
  H  274  1  0.11368800  0.68013400  0.18063700  1
  H  275  1  0.06967800  0.71950100  0.14956500  1
  H  276  1  0.22203800  0.61389900  0.13930200  1
  H  277  1  0.17301100  0.59537300  0.16439600  1
  H  278  1  0.18947400  0.57038400  0.17801100  1
  H  279  1  0.23839400  0.58896500  0.15285700  1
  H  280  1  0.21401900  0.67843500  0.05961800  1
  H  281  1  0.17933600  0.72958400  0.03453800  1
  H  282  1  0.16991700  0.71611600  0.06290900  1
  H  283  1  0.22342000  0.69200200  0.03116600  1
  H  290  1  0.15089000  0.65025400  0.14964400  1
  H  291  1  0.19167900  0.65180100  0.10847900  1
  H  292  1  0.15014800  0.69224000  0.10967500  1
  H  293  1  0.09464700  0.70657200  0.13252300  1
  H  304  1  0.06548600  0.71799400  0.19887500  1
  H  305  1  0.23887000  0.56575400  0.17773900  1
  H  306  1  0.19591900  0.72205600  0.00468900  1
  H  324  1  0.08876800  0.33687300  0.75386100  1
  H  325  1  0.11368500  0.34975300  0.77079400  1
  H  326  1  0.06967500  0.31039100  0.80186700  1
  H  327  1  0.22202300  0.41601800  0.81215800  1
  H  328  1  0.17300600  0.43449800  0.78701100  1
  H  329  1  0.18946500  0.45948800  0.77339400  1
  H  330  1  0.23837500  0.44095300  0.79859900  1
  H  331  1  0.21403800  0.35142400  0.89179600  1
  H  332  1  0.17930800  0.30031900  0.91690500  1
  H  333  1  0.16989800  0.31378500  0.88852800  1
  H  334  1  0.22343100  0.33786300  0.92025400  1
  H  341  1  0.15088700  0.37963600  0.80178800  1
  H  342  1  0.19167800  0.37808600  0.84295100  1
  H  343  1  0.15014900  0.33764700  0.84175400  1
  H  344  1  0.09464600  0.32331600  0.81890800  1
  H  355  1  0.06547600  0.31190400  0.75255700  1
  H  356  1  0.23885100  0.46413000  0.77368100  1
  H  357  1  0.19591400  0.30779400  0.94674000  1
  H  375  1  0.94114100  0.33686400  0.19758000  1
  H  376  1  0.91621800  0.34973400  0.18064700  1
  H  377  1  0.96026700  0.31041900  0.14956500  1
  H  378  1  0.80789800  0.41601100  0.13928000  1
  H  379  1  0.85691500  0.43450700  0.16441600  1
  H  380  1  0.84045300  0.45949400  0.17803300  1
  H  381  1  0.79154300  0.44094400  0.15283900  1
  H  382  1  0.81590200  0.35145600  0.05962000  1
  H  383  1  0.85058400  0.30030500  0.03454000  1
  H  384  1  0.86000200  0.31377100  0.06291300  1
  H  385  1  0.80650200  0.33789000  0.03116500  1
  H  392  1  0.87903800  0.37963800  0.14964400  1
  H  393  1  0.83825000  0.37809300  0.10847800  1
  H  394  1  0.87977500  0.33765000  0.10967700  1
  H  395  1  0.93529000  0.32333200  0.13252600  1
  H  406  1  0.96444900  0.31190600  0.19887900  1
  H  407  1  0.79105900  0.46413800  0.17773500  1
  H  408  1  0.83399800  0.30782500  0.00469200  1
  H  426  1  0.69280400  0.79194200  0.90046800  1
  H  427  1  0.67978200  0.80843700  0.87533600  1
  H  428  1  0.71917000  0.84032500  0.91873400  1
  H  429  1  0.60360800  0.86046800  0.77349200  1
  H  430  1  0.60139800  0.81609700  0.81092800  1
  H  431  1  0.57273700  0.80657800  0.79787700  1
  H  432  1  0.57503300  0.85093900  0.76054200  1
  H  433  1  0.67837200  0.92956600  0.77452100  1
  H  434  1  0.72884200  0.95430400  0.81040900  1
  H  435  1  0.71523600  0.92582200  0.81926300  1
  H  436  1  0.69207900  0.95813500  0.76568300  1
  H  443  1  0.65003400  0.83874900  0.83713900  1
  H  444  1  0.65148600  0.87989200  0.79632500  1
  H  445  1  0.69157700  0.87915900  0.83819600  1
  H  446  1  0.70610200  0.85692800  0.89354000  1
  H  457  1  0.71783300  0.79105500  0.92368200  1
  H  458  1  0.54545300  0.83408900  0.76858000  1
  H  459  1  0.72163600  0.98430600  0.79406300  1
  H  477  1  0.69279900  0.23795800  0.05097500  1
  H  478  1  0.67979400  0.22146000  0.07611300  1
  H  479  1  0.71913800  0.18957000  0.03267500  1
  H  480  1  0.60361200  0.16943700  0.17794400  1
  H  481  1  0.60138600  0.21378100  0.14047600  1
  H  482  1  0.57272700  0.22330300  0.15352600  1
  H  483  1  0.57503900  0.17897100  0.19088900  1
  H  484  1  0.67835900  0.10032100  0.17690400  1
  H  485  1  0.72883600  0.07558200  0.14102800  1
  H  486  1  0.71522500  0.10405700  0.13216400  1
  H  487  1  0.69207200  0.07175500  0.18575200  1
  H  494  1  0.65003300  0.19114000  0.11428600  1
  H  495  1  0.65147700  0.14999100  0.15509500  1
  H  496  1  0.69157300  0.15072600  0.11323000  1
  H  497  1  0.70608600  0.17296600  0.05787500  1
  H  508  1  0.71782200  0.23884200  0.02774200  1
  H  509  1  0.54544700  0.19580400  0.18279900  1
  H  510  1  0.72162500  0.04558200  0.15736800  1
  H  528  1  0.33711100  0.79192600  0.05098000  1
  H  529  1  0.35011600  0.80842200  0.07611800  1
  H  530  1  0.31078500  0.84031700  0.03267500  1
  H  531  1  0.42629700  0.86045700  0.17795700  1
  H  532  1  0.42853500  0.81611100  0.14049300  1
  H  533  1  0.45719500  0.80659400  0.15354500  1
  H  534  1  0.45487100  0.85092700  0.19091000  1
  H  535  1  0.35156000  0.92956300  0.17691100  1
  H  536  1  0.30108000  0.95430200  0.14104000  1
  H  537  1  0.31468100  0.92582100  0.13218000  1
  H  538  1  0.33785700  0.95813300  0.18575400  1
  H  545  1  0.37988400  0.83874400  0.11429400  1
  H  546  1  0.37843600  0.87989200  0.15510300  1
  H  547  1  0.33834400  0.87915700  0.11323600  1
  H  548  1  0.32383500  0.85692200  0.05787600  1
  H  559  1  0.31210300  0.79104100  0.02773500  1
  H  560  1  0.48446800  0.83408700  0.18285600  1
  H  561  1  0.30830600  0.98430200  0.15737700  1
  H  579  1  0.33711900  0.23795000  0.90047100  1
  H  580  1  0.35013000  0.22145600  0.87533300  1
  H  581  1  0.31074800  0.18957000  0.91873600  1
  H  582  1  0.42630200  0.16943000  0.77348800  1
  H  583  1  0.42851200  0.21379900  0.81092800  1
  H  584  1  0.45717400  0.22331600  0.79788100  1
  H  585  1  0.45487800  0.17895900  0.76054400  1
  H  586  1  0.35153800  0.10032600  0.77451600  1
  H  587  1  0.30107400  0.07558800  0.81040900  1
  H  588  1  0.31468000  0.10407000  0.81926200  1
  H  589  1  0.33783200  0.07175900  0.76567900  1
  H  596  1  0.37987700  0.19114400  0.83713700  1
  H  597  1  0.37842600  0.15000100  0.79632400  1
  H  598  1  0.33833400  0.15073300  0.83819200  1
  H  599  1  0.32380400  0.17296600  0.89353500  1
  H  610  1  0.31207900  0.23883700  0.92367900  1
  H  611  1  0.48445700  0.19580800  0.76859000  1
  H  612  1  0.30828100  0.04558500  0.79406300  1
  H  630  1  0.93936900  0.79207600  0.29850000  1
  H  631  1  0.91424200  0.80856600  0.31153400  1
  H  632  1  0.95741700  0.84038600  0.27184400  1
  H  633  1  0.81220700  0.86029900  0.38754600  1
  H  634  1  0.84982500  0.81608500  0.38973300  1
  H  635  1  0.83683500  0.80651700  0.41840500  1
  H  636  1  0.79932200  0.85071900  0.41613000  1
  H  637  1  0.81337800  0.92969000  0.31258000  1
  H  638  1  0.84945800  0.95414300  0.26211100  1
  H  639  1  0.85820100  0.92568900  0.27584400  1
  H  640  1  0.80465400  0.95823200  0.29874700  1
  H  647  1  0.87592100  0.83877900  0.34113300  1
  H  648  1  0.83507500  0.87989000  0.33964900  1
  H  649  1  0.87699100  0.87920500  0.29960800  1
  H  650  1  0.93222800  0.85698500  0.28492700  1
  H  661  1  0.96247600  0.79111900  0.27341200  1
  H  662  1  0.80758700  0.83397400  0.44572400  1
  H  663  1  0.83318500  0.98420900  0.26915600  1
  H  681  1  0.09054200  0.23780200  0.29850400  1
  H  682  1  0.11566100  0.22131500  0.31155400  1
  H  683  1  0.07252800  0.18949600  0.27181800  1
  H  684  1  0.21769700  0.16956900  0.38757100  1
  H  685  1  0.18014000  0.21383900  0.38971800  1
  H  686  1  0.19312400  0.22340000  0.41839500  1
  H  687  1  0.23057900  0.17914100  0.41615900  1
  H  688  1  0.21654800  0.10020100  0.31259100  1
  H  689  1  0.18046700  0.07574800  0.26212100  1
  H  690  1  0.17172200  0.10420000  0.27585500  1
  H  691  1  0.22527200  0.07166000  0.29875500  1
  H  698  1  0.15400600  0.19111500  0.34113900  1
  H  699  1  0.19485400  0.15000800  0.33965600  1
  H  700  1  0.15293300  0.15068500  0.29961700  1
  H  701  1  0.09771100  0.17289900  0.28491700  1
  H  712  1  0.06745800  0.23875800  0.27339700  1
  H  713  1  0.22238000  0.19592200  0.44573300  1
  H  714  1  0.19673700  0.04568200  0.26917000  1
  H  732  1  0.09053600  0.79210000  0.65292900  1
  H  733  1  0.11565600  0.80858800  0.63987900  1
  H  734  1  0.07253000  0.84040300  0.67962400  1
  H  735  1  0.21771400  0.86030500  0.56388400  1
  H  736  1  0.18010600  0.81608100  0.56171000  1
  H  737  1  0.19309000  0.80651400  0.53303300  1
  H  738  1  0.23059300  0.85072600  0.53529800  1
  H  739  1  0.21656500  0.92968300  0.63888400  1
  H  740  1  0.18043400  0.95416700  0.68930500  1
  H  741  1  0.17170200  0.92570800  0.67557300  1
  H  742  1  0.22528200  0.95822900  0.65271300  1
  H  749  1  0.15400200  0.83879000  0.61029800  1
  H  750  1  0.19485300  0.87989500  0.61178600  1
  H  751  1  0.15293300  0.87921600  0.65182500  1
  H  752  1  0.09771000  0.85700000  0.66652600  1
  H  763  1  0.06745700  0.79114200  0.67804000  1
  H  764  1  0.22233600  0.83397200  0.50570900  1
  H  765  1  0.19673000  0.98421700  0.68231100  1
  H  783  1  0.93935800  0.23781400  0.65293400  1
  H  784  1  0.91423200  0.22132400  0.63989700  1
  H  785  1  0.95739700  0.18950500  0.67960100  1
  H  786  1  0.81220100  0.16957900  0.56388300  1
  H  787  1  0.84979800  0.21381100  0.56170000  1
  H  788  1  0.83681200  0.22336900  0.53302200  1
  H  789  1  0.79931700  0.17915000  0.53529300  1
  H  790  1  0.81336500  0.10020000  0.63885000  1
  H  791  1  0.84944600  0.07574700  0.68931900  1
  H  792  1  0.85818800  0.10420200  0.67558800  1
  H  793  1  0.80464200  0.07165600  0.65268200  1
  H  800  1  0.87590700  0.19111400  0.61030100  1
  H  801  1  0.83506100  0.15000200  0.61178200  1
  H  802  1  0.87697700  0.15068600  0.65182500  1
  H  803  1  0.93220900  0.17290700  0.66651500  1
  H  814  1  0.96245400  0.23876900  0.67803500  1
  H  815  1  0.80754800  0.19591000  0.50570100  1
  H  816  1  0.83317400  0.04568100  0.68227900  1
  H  834  1  0.69239900  0.94078400  0.19745200  1
  H  835  1  0.67947300  0.91588200  0.18053700  1
  H  836  1  0.71916600  0.95962400  0.14950200  1
  H  837  1  0.61349100  0.80728800  0.13968700  1
  H  838  1  0.59484100  0.85649100  0.16433500  1
  H  839  1  0.56983400  0.84010800  0.17801800  1
  H  840  1  0.58854200  0.79101100  0.15331300  1
  H  841  1  0.67815200  0.81548200  0.05951000  1
  H  842  1  0.72927600  0.85041300  0.03472300  1
  H  843  1  0.71567900  0.85969400  0.06307900  1
  H  844  1  0.69184600  0.80621900  0.03107400  1
  H  851  1  0.64974500  0.87850600  0.14966400  1
  H  852  1  0.65133000  0.83768600  0.10852800  1
  H  853  1  0.69169500  0.87928900  0.10966100  1
  H  854  1  0.70619300  0.93466700  0.13247800  1
  H  865  1  0.71744700  0.96393900  0.19880700  1
  H  866  1  0.56524400  0.79071500  0.17814800  1
  H  867  1  0.72196200  0.83388500  0.00480300  1
  H  885  1  0.69239200  0.08911800  0.75396100  1
  H  886  1  0.67948400  0.11402900  0.77087800  1
  H  887  1  0.71913300  0.07024800  0.80191500  1
  H  888  1  0.61346700  0.22259400  0.81176300  1
  H  889  1  0.59485400  0.17340100  0.78706700  1
  H  890  1  0.56984800  0.18978300  0.77338200  1
  H  891  1  0.58852000  0.23886900  0.79813300  1
  H  892  1  0.67816100  0.21442000  0.89190200  1
  H  893  1  0.72926500  0.17947300  0.91671000  1
  H  894  1  0.71566500  0.17018900  0.88835600  1
  H  895  1  0.69185900  0.22368800  0.92033700  1
  H  902  1  0.64974400  0.15138700  0.80175800  1
  H  903  1  0.65132900  0.19220400  0.84289600  1
  H  904  1  0.69169700  0.15060300  0.84175900  1
  H  905  1  0.70617800  0.09521400  0.81893900  1
  H  916  1  0.71742700  0.06594100  0.75260900  1
  H  917  1  0.56525400  0.23916400  0.77325800  1
  H  918  1  0.72194600  0.19600400  0.94662500  1
  H  936  1  0.33752000  0.08912000  0.19746800  1
  H  937  1  0.35042500  0.11403000  0.18054900  1
  H  938  1  0.31078600  0.07023700  0.14951300  1
  H  939  1  0.41643300  0.22259200  0.13967700  1
  H  940  1  0.43507300  0.17339500  0.16434300  1
  H  941  1  0.46007700  0.18977900  0.17802900  1
  H  942  1  0.44137900  0.23887000  0.15330500  1
  H  943  1  0.35175900  0.21442000  0.05952500  1
  H  944  1  0.30065300  0.17948000  0.03471300  1
  H  945  1  0.31424200  0.17019600  0.06307000  1
  H  946  1  0.33806900  0.22368400  0.03108800  1
  H  953  1  0.38017100  0.15137800  0.14966400  1
  H  954  1  0.37858800  0.19219600  0.10852800  1
  H  955  1  0.33821700  0.15059700  0.10966400  1
  H  956  1  0.32373900  0.09520400  0.13248600  1
  H  967  1  0.31249400  0.06593500  0.19882300  1
  H  968  1  0.46467100  0.23917100  0.17815100  1
  H  969  1  0.30798200  0.19600900  0.00480100  1
  H  987  1  0.33752100  0.94078500  0.75397500  1
  H  988  1  0.35043600  0.91587500  0.77088900  1
  H  989  1  0.31075500  0.95962900  0.80192500  1
  H  990  1  0.41643100  0.80729300  0.81175300  1
  H  991  1  0.43507100  0.85649400  0.78709100  1
  H  992  1  0.46007500  0.84011200  0.77340700  1
  H  993  1  0.44138000  0.79101800  0.79812500  1
  H  994  1  0.35175300  0.81547500  0.89191400  1
  H  995  1  0.30064000  0.85041800  0.91671000  1
  H  996  1  0.31423500  0.85969500  0.88835100  1
  H  997  1  0.33806200  0.80621500  0.92035000  1
  H  1004  1  0.38016800  0.87850600  0.80176600  1
  H  1005  1  0.37858300  0.83768600  0.84290200  1
  H  1006  1  0.33821400  0.87928600  0.84176600  1
  H  1007  1  0.32371500  0.93466500  0.81894800  1
  H  1018  1  0.31246600  0.96393900  0.75262100  1
  H  1019  1  0.46467300  0.79072100  0.77328200  1
  H  1020  1  0.30794800  0.83388400  0.94662800  1
  H  1038  1  0.79163900  0.69263300  0.05087100  1
  H  1039  1  0.80803700  0.67950700  0.07601100  1
  H  1040  1  0.84015000  0.71887200  0.03275700  1
  H  1041  1  0.86005300  0.60327500  0.17804800  1
  H  1042  1  0.81574100  0.60079300  0.14056300  1
  H  1043  1  0.80631700  0.57213100  0.15368000  1
  H  1044  1  0.85061500  0.57470200  0.19106100  1
  H  1045  1  0.92914800  0.67798700  0.17686200  1
  H  1046  1  0.95381100  0.72841000  0.14085400  1
  H  1047  1  0.92535400  0.71473300  0.13202500  1
  H  1048  1  0.95769300  0.69176400  0.18567100  1
  H  1055  1  0.83829100  0.64956500  0.11429100  1
  H  1056  1  0.87945300  0.65100300  0.15509100  1
  H  1057  1  0.87872700  0.69108300  0.11321200  1
  H  1058  1  0.85665700  0.70569900  0.05796200  1
  H  1069  1  0.79088100  0.71770900  0.02770200  1
  H  1070  1  0.83395400  0.54502600  0.18297800  1
  H  1071  1  0.98381600  0.72134000  0.15726100  1
  H  1089  1  0.23826700  0.69263400  0.90057800  1
  H  1090  1  0.22187300  0.67948800  0.87544500  1
  H  1091  1  0.18976000  0.71891400  0.91864400  1
  H  1092  1  0.16984000  0.60327200  0.77339400  1
  H  1093  1  0.21420600  0.60082200  0.81082100  1
  H  1094  1  0.22361800  0.57215300  0.79771100  1
  H  1095  1  0.17926400  0.57469300  0.76038600  1
  H  1096  1  0.10076600  0.67798800  0.77457500  1
  H  1097  1  0.07611400  0.72842700  0.81056800  1
  H  1098  1  0.10456900  0.71474900  0.81939900  1
  H  1099  1  0.07222500  0.69176600  0.76576300  1
  H  1106  1  0.19163100  0.64957300  0.83713000  1
  H  1107  1  0.15047100  0.65101600  0.79633200  1
  H  1108  1  0.15119200  0.69108700  0.83821800  1
  H  1109  1  0.17325700  0.70572200  0.89344800  1
  H  1120  1  0.23902200  0.71773400  0.92371700  1
  H  1121  1  0.19595600  0.54503300  0.76840600  1
  H  1122  1  0.04610700  0.72135100  0.79416600  1
  H  1140  1  0.79165100  0.33726100  0.90058400  1
  H  1141  1  0.80804400  0.35040500  0.87545100  1
  H  1142  1  0.84015500  0.31097800  0.91864900  1
  H  1143  1  0.86005000  0.42661200  0.77338500  1
  H  1144  1  0.81573200  0.42909100  0.81086300  1
  H  1145  1  0.80631500  0.45775700  0.79775200  1
  H  1146  1  0.85061800  0.45518900  0.76037700  1
  H  1147  1  0.92913500  0.35188300  0.77456400  1
  H  1148  1  0.95381600  0.30148600  0.81060100  1
  H  1149  1  0.92535400  0.31516000  0.81942100  1
  H  1150  1  0.95768200  0.33811100  0.76576000  1
  H  1157  1  0.83829000  0.38032500  0.83714100  1
  H  1158  1  0.87944800  0.37888200  0.79634200  1
  H  1159  1  0.87872400  0.33880600  0.83822300  1
  H  1160  1  0.85665700  0.32416800  0.89345200  1
  H  1171  1  0.79089100  0.31216400  0.92372400  1
  H  1172  1  0.83395300  0.48486200  0.76845200  1
  H  1173  1  0.98380900  0.30850900  0.79417600  1
  H  1191  1  0.23828100  0.33724900  0.05086700  1
  H  1192  1  0.22189200  0.35038100  0.07601100  1
  H  1193  1  0.18976100  0.31101300  0.03277200  1
  H  1194  1  0.16985800  0.42661400  0.17805200  1
  H  1195  1  0.21419300  0.42909400  0.14059400  1
  H  1196  1  0.22360600  0.45776000  0.15371000  1
  H  1197  1  0.17928400  0.45519200  0.19106500  1
  H  1198  1  0.10078000  0.35189700  0.17686700  1
  H  1199  1  0.07611700  0.30147800  0.14085200  1
  H  1200  1  0.10457600  0.31515200  0.13202900  1
  H  1201  1  0.07223400  0.33812100  0.18567400  1
  H  1208  1  0.19163900  0.38032400  0.11430500  1
  H  1209  1  0.15047700  0.37888300  0.15510200  1
  H  1210  1  0.15120200  0.33880600  0.11322100  1
  H  1211  1  0.17326400  0.32419100  0.05797800  1
  H  1222  1  0.23902900  0.31217400  0.02770200  1
  H  1223  1  0.19596100  0.48486700  0.18302000  1
  H  1224  1  0.04611300  0.30854400  0.15726100  1
  H  1242  1  0.43936500  0.69218700  0.25288000  1
  H  1243  1  0.41424900  0.67911100  0.26935400  1
  H  1244  1  0.45733200  0.71887700  0.30120300  1
  H  1245  1  0.31219500  0.60308900  0.32110800  1
  H  1246  1  0.34974900  0.60091900  0.27683700  1
  H  1247  1  0.33676000  0.57223900  0.26728900  1
  H  1248  1  0.29930900  0.57450000  0.31154800  1
  H  1249  1  0.31337000  0.67808400  0.39049500  1
  H  1250  1  0.34949600  0.72854600  0.41489900  1
  H  1251  1  0.35820500  0.71480100  0.38643800  1
  H  1252  1  0.30467900  0.69192800  0.41904200  1
  H  1259  1  0.37588300  0.64951200  0.29954900  1
  H  1260  1  0.33504000  0.65099300  0.34066200  1
  H  1261  1  0.37695700  0.69103400  0.33997700  1
  H  1262  1  0.43215200  0.70575400  0.31778500  1
  H  1273  1  0.46242700  0.71731500  0.25194400  1
  H  1274  1  0.30750800  0.54491800  0.29478400  1
  H  1275  1  0.33323700  0.72154300  0.44498100  1
  H  1293  1  0.59056200  0.69219100  0.69856200  1
  H  1294  1  0.61568400  0.67913100  0.68208600  1
  H  1295  1  0.57256200  0.71885500  0.65023600  1
  H  1296  1  0.71773800  0.60310900  0.63034800  1
  H  1297  1  0.68012600  0.60090600  0.67456800  1
  H  1298  1  0.69311400  0.57222600  0.68411900  1
  H  1299  1  0.73061900  0.57452000  0.63991100  1
  H  1300  1  0.71654600  0.67808300  0.56093900  1
  H  1301  1  0.68041900  0.72853800  0.53651900  1
  H  1302  1  0.67170100  0.71479000  0.56497400  1
  H  1303  1  0.72524600  0.69193000  0.53239500  1
  H  1310  1  0.65402500  0.64951700  0.65188000  1
  H  1311  1  0.69486500  0.65099100  0.61076100  1
  H  1312  1  0.65295200  0.69103700  0.61145000  1
  H  1313  1  0.59774500  0.70574600  0.63365200  1
  H  1324  1  0.56747900  0.71730800  0.69949700  1
  H  1325  1  0.72236200  0.54492200  0.65664800  1
  H  1326  1  0.69667800  0.72152400  0.50644200  1
  H  1344  1  0.59057400  0.33769000  0.25286400  1
  H  1345  1  0.61569900  0.35074700  0.26933600  1
  H  1346  1  0.57256500  0.31104500  0.30119600  1
  H  1347  1  0.71774600  0.42677700  0.32109600  1
  H  1348  1  0.68015900  0.42898200  0.27685300  1
  H  1349  1  0.69315200  0.45766100  0.26730800  1
  H  1350  1  0.73063800  0.45536700  0.31153800  1
  H  1351  1  0.71655600  0.35181000  0.39048900  1
  H  1352  1  0.68043300  0.30135400  0.41490700  1
  H  1353  1  0.67172100  0.31509200  0.38644600  1
  H  1354  1  0.72524800  0.33797300  0.41903900  1
  H  1361  1  0.65404100  0.38037000  0.29954200  1
  H  1362  1  0.69488000  0.37889500  0.34066200  1
  H  1363  1  0.65296500  0.33885100  0.33997500  1
  H  1364  1  0.59775500  0.32415000  0.31777600  1
  H  1375  1  0.56748000  0.31258500  0.25193200  1
  H  1376  1  0.72242000  0.48496600  0.29478600  1
  H  1377  1  0.69668500  0.30838400  0.44498500  1
  H  1395  1  0.43935900  0.33771200  0.69855400  1
  H  1396  1  0.41423400  0.35077500  0.68208300  1
  H  1397  1  0.45732700  0.31102300  0.65023100  1
  H  1398  1  0.31217200  0.42679500  0.63033500  1
  H  1399  1  0.34974700  0.42897500  0.67459000  1
  H  1400  1  0.33675900  0.45765600  0.68413900  1
  H  1401  1  0.29928900  0.45538500  0.63989600  1
  H  1402  1  0.31336000  0.35180700  0.56093500  1
  H  1403  1  0.34949100  0.30134900  0.53653000  1
  H  1404  1  0.35819600  0.31509300  0.56499300  1
  H  1405  1  0.30467200  0.33796700  0.53238700  1
  H  1412  1  0.37587000  0.38037800  0.65188700  1
  H  1413  1  0.33502800  0.37889900  0.61077000  1
  H  1414  1  0.37694500  0.33885700  0.61145700  1
  H  1415  1  0.43214000  0.32413400  0.63365200  1
  H  1426  1  0.46241900  0.31257500  0.69948900  1
  H  1427  1  0.30749500  0.48496800  0.65665600  1
  H  1428  1  0.33323300  0.30835000  0.50644800  1
  H  1446  1  0.29356600  0.69258300  0.54999500  1
  H  1447  1  0.31057700  0.67978600  0.57490300  1
  H  1448  1  0.34139800  0.71942600  0.53096000  1
  H  1449  1  0.35166600  0.61374300  0.68324000  1
  H  1450  1  0.32661600  0.59546500  0.63409800  1
  H  1451  1  0.31286700  0.57047800  0.65045100  1
  H  1452  1  0.33797700  0.58881100  0.69948600  1
  H  1453  1  0.43162700  0.67852800  0.67523700  1
  H  1454  1  0.45647300  0.72969900  0.64042400  1
  H  1455  1  0.42809900  0.71616300  0.63111700  1
  H  1456  1  0.46008500  0.69216200  0.68452700  1
  H  1463  1  0.34153000  0.65019400  0.61213200  1
  H  1464  1  0.38264600  0.65177900  0.65297000  1
  H  1465  1  0.38148900  0.69218800  0.61140700  1
  H  1466  1  0.35851600  0.70658300  0.55591900  1
  H  1477  1  0.29208900  0.71756500  0.52675800  1
  H  1478  1  0.31298800  0.56571300  0.69982800  1
  H  1479  1  0.48639500  0.72221400  0.65686100  1
  H  1497  1  0.73634000  0.69258700  0.40144100  1
  H  1498  1  0.71933000  0.67977300  0.37654400  1
  H  1499  1  0.68851200  0.71945300  0.42045300  1
  H  1500  1  0.67827700  0.61376400  0.26818200  1
  H  1501  1  0.70326200  0.59543400  0.31733900  1
  H  1502  1  0.71701000  0.57044700  0.30098300  1
  H  1503  1  0.69196500  0.58883400  0.25193300  1
  H  1504  1  0.59827100  0.67850500  0.27621100  1
  H  1505  1  0.57344300  0.72970300  0.31099900  1
  H  1506  1  0.60181400  0.71616500  0.32031100  1
  H  1507  1  0.56981800  0.69214300  0.26691900  1
  H  1514  1  0.68838000  0.65018700  0.33930200  1
  H  1515  1  0.64726200  0.65177200  0.29846500  1
  H  1516  1  0.64841900  0.69217800  0.34003100  1
  H  1517  1  0.67139300  0.70659200  0.39550300  1
  H  1528  1  0.73781800  0.71758600  0.42465700  1
  H  1529  1  0.71690900  0.56569600  0.25159500  1
  H  1530  1  0.54351600  0.72221300  0.29457200  1
  H  1548  1  0.29357700  0.33730600  0.40144400  1
  H  1549  1  0.31059000  0.35011700  0.37654400  1
  H  1550  1  0.34140100  0.31042600  0.42044900  1
  H  1551  1  0.35166700  0.41613800  0.26818800  1
  H  1552  1  0.32663200  0.43442500  0.31733600  1
  H  1553  1  0.31288000  0.45941200  0.30098200  1
  H  1554  1  0.33797500  0.44106900  0.25194300  1
  H  1555  1  0.43162500  0.35133900  0.27618900  1
  H  1556  1  0.45648700  0.30018900  0.31102600  1
  H  1557  1  0.42810800  0.31372200  0.32032600  1
  H  1558  1  0.46008600  0.33771100  0.26690500  1
  H  1565  1  0.34153700  0.37969100  0.33929900  1
  H  1566  1  0.38265100  0.37810000  0.29846000  1
  H  1567  1  0.38149400  0.33769600  0.34002500  1
  H  1568  1  0.35851900  0.32328300  0.39549700  1
  H  1579  1  0.29209600  0.31230600  0.42465700  1
  H  1580  1  0.31299400  0.46417400  0.25160400  1
  H  1581  1  0.48639900  0.30762900  0.29457500  1
  H  1599  1  0.73634500  0.33730300  0.55000100  1
  H  1600  1  0.71933300  0.35010300  0.57490500  1
  H  1601  1  0.68851500  0.31045600  0.53096600  1
  H  1602  1  0.67825200  0.41614400  0.68323900  1
  H  1603  1  0.70327700  0.43444000  0.63409100  1
  H  1604  1  0.71703000  0.45942600  0.65044600  1
  H  1605  1  0.69194600  0.44107400  0.69948600  1
  H  1606  1  0.59828000  0.35136900  0.67523400  1
  H  1607  1  0.57343200  0.30019700  0.64042300  1
  H  1608  1  0.60180700  0.31372900  0.63111700  1
  H  1609  1  0.56982100  0.33773700  0.68452400  1
  H  1616  1  0.68837600  0.37970000  0.61212800  1
  H  1617  1  0.64725900  0.37811700  0.65296500  1
  H  1618  1  0.64841800  0.33770600  0.61140500  1
  H  1619  1  0.67139500  0.32330300  0.55592200  1
  H  1630  1  0.73782200  0.31231100  0.52677300  1
  H  1631  1  0.71690700  0.46419200  0.69983000  1
  H  1632  1  0.54351000  0.30768000  0.65685900  1
  H  1639  1  0.78561200  0.98323000  0.70514700  1
  H  1640  1  0.81912000  0.01566800  0.67120200  1
  H  1641  1  0.78110500  0.04080200  0.70669300  1
  H  1651  1  0.24429900  0.04666600  0.70515000  1
  H  1652  1  0.21078700  0.01423200  0.67120200  1
  H  1653  1  0.24879500  0.98909200  0.70669600  1
  H  1663  1  0.78561700  0.04666000  0.24628700  1
  H  1664  1  0.81912800  0.01422000  0.28022900  1
  H  1665  1  0.78111800  0.98908600  0.24473300  1
  H  1675  1  0.24429900  0.98323300  0.24628700  1
  H  1676  1  0.21079200  0.01567100  0.28023300  1
  H  1677  1  0.24879900  0.04080600  0.24473700  1
  H  1687  1  0.98410200  0.74453800  0.74613300  1
  H  1688  1  0.01613300  0.71043500  0.77988200  1
  H  1689  1  0.04171600  0.74582700  0.74208600  1
  H  1699  1  0.04581700  0.74453600  0.20529400  1
  H  1700  1  0.01379100  0.71043100  0.17154200  1
  H  1701  1  0.98820300  0.74581900  0.20934100  1
  H  1711  1  0.04580700  0.28535700  0.74614000  1
  H  1712  1  0.01378900  0.31946900  0.77989200  1
  H  1713  1  0.98819200  0.28408800  0.74209200  1
  H  1723  1  0.98410900  0.28535500  0.20529100  1
  H  1724  1  0.01613900  0.31945900  0.17154200  1
  H  1725  1  0.04172300  0.28406500  0.20933700  1
  H  1735  1  0.74446500  0.78489000  0.94337100  1
  H  1736  1  0.71048900  0.81916600  0.97498700  1
  H  1737  1  0.74590400  0.78172000  0.00104000  1
  H  1747  1  0.74445200  0.24500500  0.00806200  1
  H  1748  1  0.71049100  0.21072400  0.97643400  1
  H  1749  1  0.74591800  0.24816300  0.95039200  1
  H  1759  1  0.28545200  0.78489100  0.00806000  1
  H  1760  1  0.31942800  0.81916300  0.97644100  1
  H  1761  1  0.28400600  0.78172400  0.95039200  1
  H  1771  1  0.28544800  0.24500400  0.94336900  1
  H  1772  1  0.31941800  0.21072700  0.97499100  1
  H  1773  1  0.28399400  0.24816700  0.00103700  1
  H  1783  1  0.98176300  0.78503700  0.24646000  1
  H  1784  1  0.01379900  0.81917500  0.28017200  1
  H  1785  1  0.03940300  0.78160600  0.24455000  1
  H  1795  1  0.04816200  0.24484400  0.24644900  1
  H  1796  1  0.01612900  0.21070800  0.28016300  1
  H  1797  1  0.99052400  0.24827700  0.24454200  1
  H  1807  1  0.04815600  0.78505100  0.70498100  1
  H  1808  1  0.01612600  0.81918700  0.67126300  1
  H  1809  1  0.99051800  0.78161600  0.70687700  1
  H  1819  1  0.98174800  0.24485600  0.70498000  1
  H  1820  1  0.01378600  0.21071900  0.67126900  1
  H  1821  1  0.03938700  0.24828700  0.70689200  1
  H  1831  1  0.74428300  0.98323500  0.20515400  1
  H  1832  1  0.71043100  0.01566100  0.17153800  1
  H  1833  1  0.74601200  0.04081700  0.20945300  1
  H  1843  1  0.74427000  0.04665300  0.74627200  1
  H  1844  1  0.71042500  0.01422500  0.77989200  1
  H  1845  1  0.74601200  0.98907000  0.74198200  1
  H  1855  1  0.28564400  0.04665500  0.20516100  1
  H  1856  1  0.31948900  0.01422000  0.17154600  1
  H  1857  1  0.28390200  0.98907200  0.20946000  1
  H  1867  1  0.28563500  0.98323800  0.74627500  1
  H  1868  1  0.31948400  0.01566500  0.77989300  1
  H  1869  1  0.28390000  0.04082100  0.74198100  1
  H  1879  1  0.78476200  0.74434700  0.00806600  1
  H  1880  1  0.81916500  0.71050000  0.97644900  1
  H  1881  1  0.78181200  0.74600900  0.95039300  1
  H  1891  1  0.24513700  0.74436900  0.94336400  1
  H  1892  1  0.21074600  0.71050400  0.97497600  1
  H  1893  1  0.24809700  0.74601200  0.00103700  1
  H  1903  1  0.78477700  0.28552100  0.94336700  1
  H  1904  1  0.81916800  0.31938700  0.97497800  1
  H  1905  1  0.78181500  0.28388300  0.00104100  1
  H  1915  1  0.24512100  0.28551500  0.00806700  1
  H  1916  1  0.21074400  0.31939500  0.97645600  1
  H  1917  1  0.24808800  0.28388300  0.95039300  1
  H  1927  1  0.48171400  0.74429500  0.24590900  1
  H  1928  1  0.51375100  0.71050500  0.27997000  1
  H  1929  1  0.53935100  0.74616200  0.24243500  1
  H  1939  1  0.54820000  0.74429700  0.70552300  1
  H  1940  1  0.51615700  0.71051200  0.67146200  1
  H  1941  1  0.49056100  0.74617700  0.70899100  1
  H  1951  1  0.54820200  0.28559600  0.24590800  1
  H  1952  1  0.51616700  0.31938700  0.27997000  1
  H  1953  1  0.49056300  0.28372700  0.24243900  1
  H  1963  1  0.48170800  0.28559900  0.70552100  1
  H  1964  1  0.51374700  0.31938700  0.67146000  1
  H  1965  1  0.53934600  0.28372300  0.70899000  1
  H  1975  1  0.24372800  0.78485500  0.44400300  1
  H  1976  1  0.21042500  0.81906500  0.47638100  1
  H  1977  1  0.24668300  0.78184700  0.50161100  1
  H  1987  1  0.24372600  0.24504500  0.50743600  1
  H  1988  1  0.21041700  0.21083100  0.47506400  1
  H  1989  1  0.24667400  0.24804300  0.44982500  1
  H  1999  1  0.78618900  0.78485700  0.50743100  1
  H  2000  1  0.81949300  0.81906600  0.47505300  1
  H  2001  1  0.78323600  0.78184900  0.44982100  1
  H  2011  1  0.78618500  0.24503700  0.44400200  1
  H  2012  1  0.81949300  0.21082100  0.47637000  1
  H  2013  1  0.78324000  0.24803400  0.50161300  1
  H  2023  1  0.48409700  0.78470700  0.74671800  1
  H  2024  1  0.51605900  0.81906200  0.78028400  1
  H  2025  1  0.54174300  0.78196700  0.74422900  1
  H  2035  1  0.54581100  0.24518900  0.74671400  1
  H  2036  1  0.51385000  0.21083300  0.78028000  1
  H  2037  1  0.48816600  0.24792500  0.74422100  1
  H  2047  1  0.54581900  0.78469900  0.20471500  1
  H  2048  1  0.51386100  0.81905800  0.17115100  1
  H  2049  1  0.48817400  0.78196400  0.20720300  1
  H  2059  1  0.48409500  0.24518500  0.20471900  1
  H  2060  1  0.51605700  0.21082700  0.17115700  1
  H  2061  1  0.54174000  0.24792100  0.20721400  1
  H  2071  1  0.28576300  0.74446000  0.50745400  1
  H  2072  1  0.31917900  0.71043200  0.47500700  1
  H  2073  1  0.28120800  0.74597200  0.44988200  1
  H  2083  1  0.74415200  0.74447100  0.44397500  1
  H  2084  1  0.71073100  0.71044200  0.47641600  1
  H  2085  1  0.74870500  0.74597900  0.50154700  1
  H  2095  1  0.28575800  0.28542400  0.44397700  1
  H  2096  1  0.31917800  0.31945800  0.47641600  1
  H  2097  1  0.28120000  0.28392800  0.50154800  1
  H  2107  1  0.74415600  0.28542500  0.50746100  1
  H  2108  1  0.71073800  0.31945200  0.47501200  1
  H  2109  1  0.74871000  0.28390900  0.44988900  1
  H  2119  1  0.78513800  0.48319000  0.20466100  1
  H  2120  1  0.81915500  0.51558500  0.17117700  1
  H  2121  1  0.78187900  0.54079800  0.20738700  1
  H  2131  1  0.24478900  0.54669900  0.20466000  1
  H  2132  1  0.21076400  0.51430600  0.17117900  1
  H  2133  1  0.24803700  0.48909100  0.20739000  1
  H  2143  1  0.78513400  0.54669800  0.74677400  1
  H  2144  1  0.81915000  0.51430100  0.78026000  1
  H  2145  1  0.78187900  0.48909200  0.74404300  1
  H  2155  1  0.24477700  0.48319800  0.74677600  1
  H  2156  1  0.21075900  0.51559100  0.78026100  1
  H  2157  1  0.24802900  0.54080500  0.74404700  1
  H  2167  1  0.74383600  0.48320500  0.70569500  1
  H  2168  1  0.71044900  0.51558600  0.67156700  1
  H  2169  1  0.74675800  0.54081300  0.70873700  1
  H  2179  1  0.74383800  0.54668300  0.24573500  1
  H  2180  1  0.71045300  0.51430200  0.27986700  1
  H  2181  1  0.74676400  0.48907400  0.24270000  1
  H  2191  1  0.28607800  0.54668800  0.70570000  1
  H  2192  1  0.31946500  0.51430400  0.67157600  1
  H  2193  1  0.28315200  0.48908000  0.70874400  1
  H  2203  1  0.28608400  0.48320200  0.24573500  1
  H  2204  1  0.31947300  0.51558100  0.27986400  1
  H  2205  1  0.28316000  0.54081100  0.24269800  1
  H  2226  1  0.58760000  0.73476200  0.44740700  1
  H  2227  1  0.60462500  0.70987100  0.43460300  1
  H  2228  1  0.63541300  0.75380200  0.47428000  1
  H  2229  1  0.64572800  0.60151100  0.36863700  1
  H  2230  1  0.62074100  0.65064500  0.35024900  1
  H  2231  1  0.60702600  0.63426600  0.32525700  1
  H  2232  1  0.63207200  0.58524100  0.34370300  1
  H  2233  1  0.72567400  0.60953800  0.43337300  1
  H  2234  1  0.75053900  0.64432900  0.48455200  1
  H  2235  1  0.72216500  0.65364900  0.47102000  1
  H  2236  1  0.75412900  0.60023600  0.44700200  1
  H  2243  1  0.63558900  0.67263800  0.40503300  1
  H  2244  1  0.67671000  0.63180800  0.40662900  1
  H  2245  1  0.67553900  0.67337300  0.44703600  1
  H  2246  1  0.65254500  0.72885700  0.46143100  1
  H  2257  1  0.58610400  0.75798000  0.47239700  1
  H  2258  1  0.60715500  0.58487300  0.32054000  1
  H  2259  1  0.78045400  0.62787200  0.47708000  1
  H  2277  1  0.03049400  0.88333000  0.44742300  1
  H  2278  1  0.01346900  0.90822960  0.43463600  1
  H  2279  1  0.98267460  0.86425700  0.47426000  1
  H  2280  1  0.97233660  0.01656000  0.36863000  1
  H  2281  1  0.99736261  0.96743260  0.35028000  1
  H  2282  1  0.01108500  0.98380860  0.32529000  1
  H  2283  1  0.98599960  0.03282700  0.34369900  1
  H  2284  1  0.89242100  0.00855500  0.43338900  1
  H  2285  1  0.86752900  0.97374860  0.48454300  1
  H  2286  1  0.89590000  0.96442160  0.47101300  1
  H  2287  1  0.86396700  0.01786300  0.44701800  1
  H  2294  1  0.98249660  0.94544260  0.40505000  1
  H  2295  1  0.94137260  0.98626960  0.40664200  1
  H  2296  1  0.94254560  0.94470960  0.44705100  1
  H  2297  1  0.96554260  0.88921100  0.46142800  1
  H  2308  1  0.03198400  0.86008600  0.47240000  1
  H  2309  1  0.01095800  0.03318800  0.32056900  1
  H  2310  1  0.83762200  0.99020759  0.47706500  1
  H  2328  1  0.58759200  0.88331800  0.09217800  1
  H  2329  1  0.60461700  0.90821760  0.10496500  1
  H  2330  1  0.63541200  0.86423900  0.06534600  1
  H  2331  1  0.64572900  0.01655400  0.17095500  1
  H  2332  1  0.62073900  0.96742160  0.18933900  1
  H  2333  1  0.60701900  0.98379860  0.21432700  1
  H  2334  1  0.63206700  0.03282400  0.19588600  1
  H  2335  1  0.72566400  0.00854100  0.10621800  1
  H  2336  1  0.75055200  0.97374060  0.05505900  1
  H  2337  1  0.72217800  0.96441860  0.06858200  1
  H  2338  1  0.75412200  0.01784600  0.09259600  1
  H  2345  1  0.63558900  0.94542660  0.13455700  1
  H  2346  1  0.67671300  0.98625560  0.13296400  1
  H  2347  1  0.67554100  0.94469360  0.09255600  1
  H  2348  1  0.65254500  0.88919500  0.07817700  1
  H  2359  1  0.58610100  0.86007100  0.06720700  1
  H  2360  1  0.60714400  0.03319200  0.21904500  1
  H  2361  1  0.78045900  0.99019859  0.06254800  1
  H  2379  1  0.03048600  0.73476100  0.09219100  1
  H  2380  1  0.01346500  0.70986000  0.10498300  1
  H  2381  1  0.98267160  0.75380500  0.06532300  1
  H  2382  1  0.97235160  0.60151000  0.17096300  1
  H  2383  1  0.99734961  0.65064000  0.18934100  1
  H  2384  1  0.01106700  0.63426300  0.21433200  1
  H  2385  1  0.98600760  0.58524000  0.19589700  1
  H  2386  1  0.89242400  0.60952100  0.10621000  1
  H  2387  1  0.86755000  0.64432200  0.05504200  1
  H  2388  1  0.89592500  0.65364000  0.06857100  1
  H  2389  1  0.86396900  0.60022000  0.09258500  1
  H  2396  1  0.98249860  0.67263300  0.13455900  1
  H  2397  1  0.94137960  0.63180000  0.13296100  1
  H  2398  1  0.94255260  0.67336200  0.09255200  1
  H  2399  1  0.96554260  0.72885000  0.07816100  1
  H  2410  1  0.03197800  0.75797900  0.06719400  1
  H  2411  1  0.01093200  0.58487200  0.21905500  1
  H  2412  1  0.83763700  0.62786000  0.06251100  1
  H  2430  1  0.73521500  0.48711800  0.54792500  1
  H  2431  1  0.71029100  0.47425200  0.56485900  1
  H  2432  1  0.75435000  0.51355700  0.59594000  1
  H  2433  1  0.60197900  0.40796300  0.60623500  1
  H  2434  1  0.65099400  0.38948300  0.58108100  1
  H  2435  1  0.63453400  0.36449200  0.56747000  1
  H  2436  1  0.58562800  0.38302600  0.59268000  1
  H  2437  1  0.60998100  0.47252700  0.68588700  1
  H  2438  1  0.64466700  0.52367200  0.71097200  1
  H  2439  1  0.65408400  0.51020700  0.68259800  1
  H  2440  1  0.60058000  0.48609200  0.71434200  1
  H  2447  1  0.67311400  0.44434800  0.59586100  1
  H  2448  1  0.63232800  0.44589100  0.63702900  1
  H  2449  1  0.67385200  0.48633400  0.63582900  1
  H  2450  1  0.72937100  0.50064700  0.61298100  1
  H  2461  1  0.75853300  0.51206600  0.54662400  1
  H  2462  1  0.58514800  0.35984900  0.56775900  1
  H  2463  1  0.62808000  0.51614200  0.74082200  1
  H  2481  1  0.88285800  0.48710500  0.99165207  1
  H  2482  1  0.90777160  0.47422000  0.97471810  1
  H  2483  1  0.86376200  0.51358700  0.94364610  1
  H  2484  1  0.01612200  0.40798500  0.93338310  1
  H  2485  1  0.96709460  0.38945900  0.95847710  1
  H  2486  1  0.98355760  0.36447000  0.97209210  1
  H  2487  1  0.03247800  0.38305100  0.94693810  1
  H  2488  1  0.00810300  0.47252100  0.85369900  1
  H  2489  1  0.97341960  0.52367000  0.82861900  1
  H  2490  1  0.96400060  0.51020200  0.85699000  1
  H  2491  1  0.01750400  0.48608800  0.82524700  1
  H  2498  1  0.94497360  0.44434000  0.94372510  1
  H  2499  1  0.98576260  0.44588700  0.90256010  1
  H  2500  1  0.94423160  0.48632600  0.90375610  1
  H  2501  1  0.88873100  0.50065800  0.92660410  1
  H  2512  1  0.85957000  0.51208000  0.99295607  1
  H  2513  1  0.03295400  0.35984000  0.97182010  1
  H  2514  1  0.99000261  0.51614200  0.79877000  1
  H  2532  1  0.88285200  0.13095900  0.54794200  1
  H  2533  1  0.90776860  0.14383900  0.56487500  1
  H  2534  1  0.86375900  0.10447700  0.59594800  1
  H  2535  1  0.01610700  0.21010400  0.60623900  1
  H  2536  1  0.96708960  0.22858400  0.58109200  1
  H  2537  1  0.98354860  0.25357400  0.56747500  1
  H  2538  1  0.03245900  0.23503900  0.59268000  1
  H  2539  1  0.00812200  0.14551000  0.68587700  1
  H  2540  1  0.97339160  0.09440500  0.71098600  1
  H  2541  1  0.96398160  0.10787100  0.68260900  1
  H  2542  1  0.01751500  0.13194900  0.71433500  1
  H  2549  1  0.94497060  0.17372200  0.59586900  1
  H  2550  1  0.98576160  0.17217200  0.63703200  1
  H  2551  1  0.94423260  0.13173300  0.63583500  1
  H  2552  1  0.88873000  0.11740200  0.61298900  1
  H  2563  1  0.85956000  0.10599000  0.54663800  1
  H  2564  1  0.03293500  0.25821600  0.56776200  1
  H  2565  1  0.98999760  0.10188000  0.74082100  1
  H  2583  1  0.73522500  0.13095000  0.99166107  1
  H  2584  1  0.71030200  0.14382000  0.97472810  1
  H  2585  1  0.75435100  0.10450500  0.94364610  1
  H  2586  1  0.60198200  0.21009700  0.93336110  1
  H  2587  1  0.65099900  0.22859300  0.95849710  1
  H  2588  1  0.63453700  0.25358000  0.97211410  1
  H  2589  1  0.58562700  0.23503000  0.94692010  1
  H  2590  1  0.60998600  0.14554200  0.85370100  1
  H  2591  1  0.64466800  0.09439100  0.82862100  1
  H  2592  1  0.65408600  0.10785700  0.85699400  1
  H  2593  1  0.60058600  0.13197600  0.82524600  1
  H  2600  1  0.67312200  0.17372400  0.94372510  1
  H  2601  1  0.63233400  0.17217900  0.90255910  1
  H  2602  1  0.67385900  0.13173600  0.90375810  1
  H  2603  1  0.72937400  0.11741800  0.92660710  1
  H  2614  1  0.75853300  0.10599200  0.99296007  1
  H  2615  1  0.58514300  0.25822400  0.97181610  1
  H  2616  1  0.62808200  0.10191100  0.79877300  1
  H  2634  1  0.48688800  0.58602800  0.69454900  1
  H  2635  1  0.47386600  0.60252300  0.66941700  1
  H  2636  1  0.51325400  0.63441100  0.71281500  1
  H  2637  1  0.39769200  0.65455400  0.56757300  1
  H  2638  1  0.39548200  0.61018300  0.60500900  1
  H  2639  1  0.36682100  0.60066400  0.59195800  1
  H  2640  1  0.36911700  0.64502500  0.55462300  1
  H  2641  1  0.47245600  0.72365200  0.56860200  1
  H  2642  1  0.52292600  0.74839000  0.60449000  1
  H  2643  1  0.50932000  0.71990800  0.61334400  1
  H  2644  1  0.48616300  0.75222100  0.55976400  1
  H  2651  1  0.44411800  0.63283500  0.63122000  1
  H  2652  1  0.44557000  0.67397800  0.59040600  1
  H  2653  1  0.48566100  0.67324500  0.63227700  1
  H  2654  1  0.50018600  0.65101400  0.68762100  1
  H  2665  1  0.51191700  0.58514100  0.71776300  1
  H  2666  1  0.33953700  0.62817500  0.56266100  1
  H  2667  1  0.51572000  0.77839200  0.58814400  1
  H  2685  1  0.48688300  0.03204400  0.84505600  1
  H  2686  1  0.47387800  0.01554600  0.87019400  1
  H  2687  1  0.51322200  0.98365560  0.82675600  1
  H  2688  1  0.39769600  0.96352260  0.97202510  1
  H  2689  1  0.39547000  0.00786700  0.93455710  1
  H  2690  1  0.36681100  0.01738900  0.94760710  1
  H  2691  1  0.36912300  0.97305660  0.98497010  1
  H  2692  1  0.47244300  0.89440700  0.97098510  1
  H  2693  1  0.52292000  0.86966800  0.93510910  1
  H  2694  1  0.50930900  0.89814300  0.92624510  1
  H  2695  1  0.48615600  0.86584100  0.97983310  1
  H  2702  1  0.44411700  0.98522560  0.90836710  1
  H  2703  1  0.44556100  0.94407660  0.94917610  1
  H  2704  1  0.48565700  0.94481160  0.90731110  1
  H  2705  1  0.50017000  0.96705160  0.85195600  1
  H  2716  1  0.51190600  0.03292800  0.82182300  1
  H  2717  1  0.33953100  0.98988960  0.97688010  1
  H  2718  1  0.51570900  0.83966800  0.95144910  1
  H  2736  1  0.13119500  0.58601200  0.84506100  1
  H  2737  1  0.14420000  0.60250800  0.87019900  1
  H  2738  1  0.10486900  0.63440300  0.82675600  1
  H  2739  1  0.22038100  0.65454300  0.97203810  1
  H  2740  1  0.22261900  0.61019700  0.93457410  1
  H  2741  1  0.25127900  0.60068000  0.94762610  1
  H  2742  1  0.24895500  0.64501300  0.98499110  1
  H  2743  1  0.14564400  0.72364900  0.97099210  1
  H  2744  1  0.09516400  0.74838800  0.93512110  1
  H  2745  1  0.10876500  0.71990700  0.92626110  1
  H  2746  1  0.13194100  0.75221900  0.97983510  1
  H  2753  1  0.17396800  0.63283000  0.90837510  1
  H  2754  1  0.17252000  0.67397800  0.94918410  1
  H  2755  1  0.13242800  0.67324300  0.90731710  1
  H  2756  1  0.11791900  0.65100800  0.85195700  1
  H  2767  1  0.10618700  0.58512700  0.82181600  1
  H  2768  1  0.27855200  0.62817300  0.97693710  1
  H  2769  1  0.10239000  0.77838800  0.95145810  1
  H  2787  1  0.13120300  0.03203600  0.69455200  1
  H  2788  1  0.14421400  0.01554200  0.66941400  1
  H  2789  1  0.10483200  0.98365560  0.71281700  1
  H  2790  1  0.22038600  0.96351560  0.56756900  1
  H  2791  1  0.22259600  0.00788500  0.60500900  1
  H  2792  1  0.25125800  0.01740200  0.59196200  1
  H  2793  1  0.24896200  0.97304460  0.55462500  1
  H  2794  1  0.14562200  0.89441200  0.56859700  1
  H  2795  1  0.09515800  0.86967400  0.60449000  1
  H  2796  1  0.10876400  0.89815600  0.61334300  1
  H  2797  1  0.13191600  0.86584500  0.55976000  1
  H  2804  1  0.17396100  0.98522960  0.63121800  1
  H  2805  1  0.17251000  0.94408660  0.59040500  1
  H  2806  1  0.13241800  0.94481860  0.63227300  1
  H  2807  1  0.11788800  0.96705160  0.68761600  1
  H  2818  1  0.10616300  0.03292300  0.71776000  1
  H  2819  1  0.27854100  0.98989360  0.56267100  1
  H  2820  1  0.10236500  0.83967100  0.58814400  1
  H  2838  1  0.73345300  0.58616200  0.09258100  1
  H  2839  1  0.70832600  0.60265200  0.10561500  1
  H  2840  1  0.75150100  0.63447200  0.06592500  1
  H  2841  1  0.60629100  0.65438500  0.18162700  1
  H  2842  1  0.64390900  0.61017100  0.18381400  1
  H  2843  1  0.63091900  0.60060300  0.21248600  1
  H  2844  1  0.59340600  0.64480500  0.21021100  1
  H  2845  1  0.60746200  0.72377600  0.10666100  1
  H  2846  1  0.64354200  0.74822900  0.05619200  1
  H  2847  1  0.65228500  0.71977500  0.06992500  1
  H  2848  1  0.59873800  0.75231800  0.09282800  1
  H  2855  1  0.67000500  0.63286500  0.13521400  1
  H  2856  1  0.62915900  0.67397600  0.13373000  1
  H  2857  1  0.67107500  0.67329100  0.09368900  1
  H  2858  1  0.72631200  0.65107100  0.07900800  1
  H  2869  1  0.75656000  0.58520500  0.06749300  1
  H  2870  1  0.60167100  0.62806000  0.23980500  1
  H  2871  1  0.62726900  0.77829500  0.06323700  1
  H  2889  1  0.88462600  0.03188800  0.09258500  1
  H  2890  1  0.90974460  0.01540100  0.10563500  1
  H  2891  1  0.86661200  0.98358160  0.06589900  1
  H  2892  1  0.01178100  0.96365460  0.18165200  1
  H  2893  1  0.97422360  0.00792500  0.18379900  1
  H  2894  1  0.98720760  0.01748600  0.21247600  1
  H  2895  1  0.02466300  0.97322660  0.21024000  1
  H  2896  1  0.01063200  0.89428700  0.10667200  1
  H  2897  1  0.97455060  0.86983400  0.05620200  1
  H  2898  1  0.96580560  0.89828600  0.06993600  1
  H  2899  1  0.01935600  0.86574600  0.09283600  1
  H  2906  1  0.94808960  0.98520060  0.13522000  1
  H  2907  1  0.98893760  0.94409360  0.13373700  1
  H  2908  1  0.94701660  0.94477060  0.09369800  1
  H  2909  1  0.89179500  0.96698460  0.07899800  1
  H  2920  1  0.86154200  0.03284400  0.06747800  1
  H  2921  1  0.01646400  0.99000759  0.23981400  1
  H  2922  1  0.99082061  0.83976800  0.06325100  1
  H  2940  1  0.88462000  0.58618600  0.44701000  1
  H  2941  1  0.90973960  0.60267400  0.43396000  1
  H  2942  1  0.86661400  0.63448900  0.47370500  1
  H  2943  1  0.01179800  0.65439100  0.35796500  1
  H  2944  1  0.97418960  0.61016700  0.35579100  1
  H  2945  1  0.98717360  0.60060000  0.32711400  1
  H  2946  1  0.02467700  0.64481200  0.32937900  1
  H  2947  1  0.01064900  0.72376900  0.43296500  1
  H  2948  1  0.97451760  0.74825300  0.48338600  1
  H  2949  1  0.96578560  0.71979400  0.46965400  1
  H  2950  1  0.01936600  0.75231500  0.44679400  1
  H  2957  1  0.94808560  0.63287600  0.40437900  1
  H  2958  1  0.98893660  0.67398100  0.40586700  1
  H  2959  1  0.94701660  0.67330200  0.44590600  1
  H  2960  1  0.89179400  0.65108600  0.46060700  1
  H  2971  1  0.86154100  0.58522800  0.47212100  1
  H  2972  1  0.01642000  0.62805800  0.29979000  1
  H  2973  1  0.99081361  0.77830300  0.47639200  1
  H  2991  1  0.73344200  0.03190000  0.44701500  1
  H  2992  1  0.70831600  0.01541000  0.43397800  1
  H  2993  1  0.75148100  0.98359060  0.47368200  1
  H  2994  1  0.60628500  0.96366460  0.35796400  1
  H  2995  1  0.64388200  0.00789700  0.35578100  1
  H  2996  1  0.63089600  0.01745500  0.32710300  1
  H  2997  1  0.59340100  0.97323560  0.32937400  1
  H  2998  1  0.60744900  0.89428600  0.43293100  1
  H  2999  1  0.64353000  0.86983300  0.48340000  1
  H  3000  1  0.65227200  0.89828800  0.46966900  1
  H  3001  1  0.59872600  0.86574200  0.44676300  1
  H  3008  1  0.66999100  0.98519960  0.40438200  1
  H  3009  1  0.62914500  0.94408760  0.40586300  1
  H  3010  1  0.67106100  0.94477160  0.44590600  1
  H  3011  1  0.72629300  0.96699260  0.46059600  1
  H  3022  1  0.75653800  0.03285500  0.47211600  1
  H  3023  1  0.60163200  0.98999560  0.29978200  1
  H  3024  1  0.62725800  0.83976700  0.47636000  1
  H  3042  1  0.48648300  0.73487000  0.99153307  1
  H  3043  1  0.47355700  0.70996800  0.97461810  1
  H  3044  1  0.51325000  0.75371000  0.94358310  1
  H  3045  1  0.40757500  0.60137400  0.93376810  1
  H  3046  1  0.38892500  0.65057700  0.95841610  1
  H  3047  1  0.36391800  0.63419400  0.97209910  1
  H  3048  1  0.38262600  0.58509700  0.94739410  1
  H  3049  1  0.47223600  0.60956800  0.85359100  1
  H  3050  1  0.52336000  0.64449900  0.82880400  1
  H  3051  1  0.50976300  0.65378000  0.85716000  1
  H  3052  1  0.48593000  0.60030500  0.82515500  1
  H  3059  1  0.44382900  0.67259200  0.94374510  1
  H  3060  1  0.44541400  0.63177200  0.90260910  1
  H  3061  1  0.48577900  0.67337500  0.90374210  1
  H  3062  1  0.50027700  0.72875300  0.92655910  1
  H  3073  1  0.51153100  0.75802500  0.99288807  1
  H  3074  1  0.35932800  0.58480100  0.97222910  1
  H  3075  1  0.51604600  0.62797100  0.79888400  1
  H  3093  1  0.48647600  0.88320400  0.54804200  1
  H  3094  1  0.47356800  0.90811460  0.56495900  1
  H  3095  1  0.51321700  0.86433400  0.59599600  1
  H  3096  1  0.40755100  0.01668000  0.60584400  1
  H  3097  1  0.38893800  0.96748660  0.58114800  1
  H  3098  1  0.36393200  0.98386860  0.56746300  1
  H  3099  1  0.38260400  0.03295500  0.59221400  1
  H  3100  1  0.47224500  0.00850600  0.68598300  1
  H  3101  1  0.52334900  0.97355860  0.71079100  1
  H  3102  1  0.50974900  0.96427460  0.68243700  1
  H  3103  1  0.48594300  0.01777400  0.71441800  1
  H  3110  1  0.44382800  0.94547260  0.59583900  1
  H  3111  1  0.44541300  0.98628960  0.63697700  1
  H  3112  1  0.48578100  0.94468860  0.63584000  1
  H  3113  1  0.50026200  0.88930000  0.61302000  1
  H  3124  1  0.51151100  0.86002700  0.54669000  1
  H  3125  1  0.35933800  0.03325000  0.56733900  1
  H  3126  1  0.51603000  0.99008959  0.74070600  1
  H  3144  1  0.13160400  0.88320600  0.99154907  1
  H  3145  1  0.14450900  0.90811560  0.97463010  1
  H  3146  1  0.10487000  0.86432300  0.94359410  1
  H  3147  1  0.21051700  0.01667800  0.93375810  1
  H  3148  1  0.22915700  0.96748060  0.95842410  1
  H  3149  1  0.25416100  0.98386460  0.97211010  1
  H  3150  1  0.23546300  0.03295600  0.94738610  1
  H  3151  1  0.14584300  0.00850600  0.85360600  1
  H  3152  1  0.09473700  0.97356560  0.82879400  1
  H  3153  1  0.10832600  0.96428160  0.85715100  1
  H  3154  1  0.13215300  0.01777000  0.82516900  1
  H  3161  1  0.17425500  0.94546360  0.94374510  1
  H  3162  1  0.17267200  0.98628160  0.90260910  1
  H  3163  1  0.13230100  0.94468260  0.90374510  1
  H  3164  1  0.11782300  0.88929000  0.92656710  1
  H  3175  1  0.10657800  0.86002100  0.99290407  1
  H  3176  1  0.25875500  0.03325700  0.97223210  1
  H  3177  1  0.10206600  0.99009459  0.79888200  1
  H  3195  1  0.13160500  0.73487100  0.54805600  1
  H  3196  1  0.14452000  0.70996100  0.56497000  1
  H  3197  1  0.10483900  0.75371500  0.59600600  1
  H  3198  1  0.21051500  0.60137900  0.60583400  1
  H  3199  1  0.22915500  0.65058000  0.58117200  1
  H  3200  1  0.25415900  0.63419800  0.56748800  1
  H  3201  1  0.23546400  0.58510400  0.59220600  1
  H  3202  1  0.14583700  0.60956100  0.68599500  1
  H  3203  1  0.09472400  0.64450400  0.71079100  1
  H  3204  1  0.10831900  0.65378100  0.68243200  1
  H  3205  1  0.13214600  0.60030100  0.71443100  1
  H  3212  1  0.17425200  0.67259200  0.59584700  1
  H  3213  1  0.17266700  0.63177200  0.63698300  1
  H  3214  1  0.13229800  0.67337200  0.63584700  1
  H  3215  1  0.11779900  0.72875100  0.61302900  1
  H  3226  1  0.10655000  0.75802500  0.54670200  1
  H  3227  1  0.25875700  0.58480700  0.56736300  1
  H  3228  1  0.10203200  0.62797000  0.74070900  1
  H  3246  1  0.58572300  0.48671900  0.84495200  1
  H  3247  1  0.60212100  0.47359300  0.87009200  1
  H  3248  1  0.63423400  0.51295800  0.82683800  1
  H  3249  1  0.65413700  0.39736100  0.97212910  1
  H  3250  1  0.60982500  0.39487900  0.93464410  1
  H  3251  1  0.60040100  0.36621700  0.94776110  1
  H  3252  1  0.64469900  0.36878800  0.98514210  1
  H  3253  1  0.72323200  0.47207300  0.97094310  1
  H  3254  1  0.74789500  0.52249600  0.93493510  1
  H  3255  1  0.71943800  0.50881900  0.92610610  1
  H  3256  1  0.75177700  0.48585000  0.97975210  1
  H  3263  1  0.63237500  0.44365100  0.90837210  1
  H  3264  1  0.67353700  0.44508900  0.94917210  1
  H  3265  1  0.67281100  0.48516900  0.90729310  1
  H  3266  1  0.65074100  0.49978500  0.85204300  1
  H  3277  1  0.58496500  0.51179500  0.82178300  1
  H  3278  1  0.62803800  0.33911200  0.97705910  1
  H  3279  1  0.77790000  0.51542600  0.95134210  1
  H  3297  1  0.03235100  0.48672000  0.69465900  1
  H  3298  1  0.01595700  0.47357400  0.66952600  1
  H  3299  1  0.98384360  0.51300000  0.71272500  1
  H  3300  1  0.96392360  0.39735800  0.56747500  1
  H  3301  1  0.00829000  0.39490800  0.60490200  1
  H  3302  1  0.01770200  0.36623900  0.59179200  1
  H  3303  1  0.97334760  0.36877900  0.55446700  1
  H  3304  1  0.89485000  0.47207400  0.56865600  1
  H  3305  1  0.87019800  0.52251300  0.60464900  1
  H  3306  1  0.89865300  0.50883500  0.61348000  1
  H  3307  1  0.86630900  0.48585200  0.55984400  1
  H  3314  1  0.98571460  0.44365900  0.63121100  1
  H  3315  1  0.94455460  0.44510200  0.59041300  1
  H  3316  1  0.94527560  0.48517300  0.63229900  1
  H  3317  1  0.96734060  0.49980800  0.68752900  1
  H  3328  1  0.03310600  0.51182000  0.71779800  1
  H  3329  1  0.99003961  0.33911900  0.56248700  1
  H  3330  1  0.84019100  0.51543700  0.58824700  1
  H  3348  1  0.58573500  0.13134700  0.69466500  1
  H  3349  1  0.60212800  0.14449100  0.66953200  1
  H  3350  1  0.63423900  0.10506400  0.71273000  1
  H  3351  1  0.65413400  0.22069800  0.56746600  1
  H  3352  1  0.60981600  0.22317700  0.60494400  1
  H  3353  1  0.60039900  0.25184300  0.59183300  1
  H  3354  1  0.64470200  0.24927500  0.55445800  1
  H  3355  1  0.72321900  0.14596900  0.56864500  1
  H  3356  1  0.74790000  0.09557200  0.60468200  1
  H  3357  1  0.71943800  0.10924600  0.61350200  1
  H  3358  1  0.75176600  0.13219700  0.55984100  1
  H  3365  1  0.63237400  0.17441100  0.63122200  1
  H  3366  1  0.67353200  0.17296800  0.59042300  1
  H  3367  1  0.67280800  0.13289200  0.63230400  1
  H  3368  1  0.65074100  0.11825400  0.68753300  1
  H  3379  1  0.58497500  0.10625000  0.71780500  1
  H  3380  1  0.62803700  0.27894800  0.56253300  1
  H  3381  1  0.77789300  0.10259500  0.58825700  1
  H  3399  1  0.03236500  0.13133500  0.84494800  1
  H  3400  1  0.01597600  0.14446700  0.87009200  1
  H  3401  1  0.98384460  0.10509900  0.82685300  1
  H  3402  1  0.96394160  0.22070000  0.97213310  1
  H  3403  1  0.00827700  0.22318000  0.93467510  1
  H  3404  1  0.01769000  0.25184600  0.94779110  1
  H  3405  1  0.97336760  0.24927800  0.98514610  1
  H  3406  1  0.89486400  0.14598300  0.97094810  1
  H  3407  1  0.87020100  0.09556400  0.93493310  1
  H  3408  1  0.89866000  0.10923800  0.92611010  1
  H  3409  1  0.86631800  0.13220700  0.97975510  1
  H  3416  1  0.98572260  0.17441000  0.90838610  1
  H  3417  1  0.94456060  0.17296900  0.94918310  1
  H  3418  1  0.94528560  0.13289200  0.90730210  1
  H  3419  1  0.96734760  0.11827700  0.85205900  1
  H  3430  1  0.03311300  0.10626000  0.82178300  1
  H  3431  1  0.99004461  0.27895300  0.97710110  1
  H  3432  1  0.84019700  0.10263000  0.95134210  1
  H  3450  1  0.23344900  0.48627300  0.04696100  1
  H  3451  1  0.20833300  0.47319700  0.06343500  1
  H  3452  1  0.25141600  0.51296300  0.09528400  1
  H  3453  1  0.10627900  0.39717500  0.11518900  1
  H  3454  1  0.14383300  0.39500500  0.07091800  1
  H  3455  1  0.13084400  0.36632500  0.06137000  1
  H  3456  1  0.09339300  0.36858600  0.10562900  1
  H  3457  1  0.10745400  0.47217000  0.18457600  1
  H  3458  1  0.14358000  0.52263200  0.20898000  1
  H  3459  1  0.15228900  0.50888700  0.18051900  1
  H  3460  1  0.09876300  0.48601400  0.21312300  1
  H  3467  1  0.16996700  0.44359800  0.09363000  1
  H  3468  1  0.12912400  0.44507900  0.13474300  1
  H  3469  1  0.17104100  0.48512000  0.13405800  1
  H  3470  1  0.22623600  0.49984000  0.11186600  1
  H  3481  1  0.25651100  0.51140100  0.04602500  1
  H  3482  1  0.10159200  0.33900400  0.08886500  1
  H  3483  1  0.12732100  0.51562900  0.23906200  1
  H  3501  1  0.38464600  0.48627700  0.49264300  1
  H  3502  1  0.40976800  0.47321700  0.47616700  1
  H  3503  1  0.36664600  0.51294100  0.44431700  1
  H  3504  1  0.51182200  0.39719500  0.42442900  1
  H  3505  1  0.47421000  0.39499200  0.46864900  1
  H  3506  1  0.48719800  0.36631200  0.47820000  1
  H  3507  1  0.52470300  0.36860600  0.43399200  1
  H  3508  1  0.51063000  0.47216900  0.35502000  1
  H  3509  1  0.47450300  0.52262400  0.33060000  1
  H  3510  1  0.46578500  0.50887600  0.35905500  1
  H  3511  1  0.51933000  0.48601600  0.32647600  1
  H  3518  1  0.44810900  0.44360300  0.44596100  1
  H  3519  1  0.48894900  0.44507700  0.40484200  1
  H  3520  1  0.44703600  0.48512300  0.40553100  1
  H  3521  1  0.39182900  0.49983200  0.42773300  1
  H  3532  1  0.36156300  0.51139400  0.49357800  1
  H  3533  1  0.51644600  0.33900800  0.45072900  1
  H  3534  1  0.49076200  0.51561000  0.30052300  1
  H  3552  1  0.38465800  0.13177600  0.04694500  1
  H  3553  1  0.40978300  0.14483300  0.06341700  1
  H  3554  1  0.36664900  0.10513100  0.09527700  1
  H  3555  1  0.51183000  0.22086300  0.11517700  1
  H  3556  1  0.47424300  0.22306800  0.07093400  1
  H  3557  1  0.48723600  0.25174700  0.06138900  1
  H  3558  1  0.52472200  0.24945300  0.10561900  1
  H  3559  1  0.51064000  0.14589600  0.18457000  1
  H  3560  1  0.47451700  0.09544000  0.20898800  1
  H  3561  1  0.46580500  0.10917800  0.18052700  1
  H  3562  1  0.51933200  0.13205900  0.21312000  1
  H  3569  1  0.44812500  0.17445600  0.09362300  1
  H  3570  1  0.48896400  0.17298100  0.13474300  1
  H  3571  1  0.44704900  0.13293700  0.13405600  1
  H  3572  1  0.39183900  0.11823600  0.11185700  1
  H  3583  1  0.36156400  0.10667100  0.04601300  1
  H  3584  1  0.51650400  0.27905200  0.08886700  1
  H  3585  1  0.49076900  0.10247000  0.23906600  1
  H  3603  1  0.23344300  0.13179800  0.49263500  1
  H  3604  1  0.20831800  0.14486100  0.47616400  1
  H  3605  1  0.25141100  0.10510900  0.44431200  1
  H  3606  1  0.10625600  0.22088100  0.42441600  1
  H  3607  1  0.14383100  0.22306100  0.46867100  1
  H  3608  1  0.13084300  0.25174200  0.47822000  1
  H  3609  1  0.09337300  0.24947100  0.43397700  1
  H  3610  1  0.10744400  0.14589300  0.35501600  1
  H  3611  1  0.14357500  0.09543500  0.33061100  1
  H  3612  1  0.15228000  0.10917900  0.35907400  1
  H  3613  1  0.09875600  0.13205300  0.32646800  1
  H  3620  1  0.16995400  0.17446400  0.44596800  1
  H  3621  1  0.12911200  0.17298500  0.40485100  1
  H  3622  1  0.17102900  0.13294300  0.40553800  1
  H  3623  1  0.22622400  0.11822000  0.42773300  1
  H  3634  1  0.25650300  0.10666100  0.49357000  1
  H  3635  1  0.10157900  0.27905400  0.45073700  1
  H  3636  1  0.12731700  0.10243600  0.30052900  1
  H  3654  1  0.08765000  0.48666900  0.34407600  1
  H  3655  1  0.10466100  0.47387200  0.36898400  1
  H  3656  1  0.13548200  0.51351200  0.32504100  1
  H  3657  1  0.14575000  0.40782900  0.47732100  1
  H  3658  1  0.12070000  0.38955100  0.42817900  1
  H  3659  1  0.10695100  0.36456400  0.44453200  1
  H  3660  1  0.13206100  0.38289700  0.49356700  1
  H  3661  1  0.22571100  0.47261400  0.46931800  1
  H  3662  1  0.25055700  0.52378500  0.43450500  1
  H  3663  1  0.22218300  0.51024900  0.42519800  1
  H  3664  1  0.25416900  0.48624800  0.47860800  1
  H  3671  1  0.13561400  0.44428000  0.40621300  1
  H  3672  1  0.17673000  0.44586500  0.44705100  1
  H  3673  1  0.17557300  0.48627400  0.40548800  1
  H  3674  1  0.15260000  0.50066900  0.35000000  1
  H  3685  1  0.08617300  0.51165100  0.32083900  1
  H  3686  1  0.10707200  0.35979900  0.49390900  1
  H  3687  1  0.28047900  0.51630000  0.45094200  1
  H  3705  1  0.53042400  0.48667300  0.19552200  1
  H  3706  1  0.51341400  0.47385900  0.17062500  1
  H  3707  1  0.48259600  0.51353900  0.21453400  1
  H  3708  1  0.47236100  0.40785000  0.06226300  1
  H  3709  1  0.49734600  0.38952000  0.11142000  1
  H  3710  1  0.51109400  0.36453300  0.09506400  1
  H  3711  1  0.48604900  0.38292000  0.04601400  1
  H  3712  1  0.39235500  0.47259100  0.07029200  1
  H  3713  1  0.36752700  0.52378900  0.10508000  1
  H  3714  1  0.39589800  0.51025100  0.11439200  1
  H  3715  1  0.36390200  0.48622900  0.06100000  1
  H  3722  1  0.48246400  0.44427300  0.13338300  1
  H  3723  1  0.44134600  0.44585800  0.09254600  1
  H  3724  1  0.44250300  0.48626400  0.13411200  1
  H  3725  1  0.46547700  0.50067800  0.18958400  1
  H  3736  1  0.53190200  0.51167200  0.21873800  1
  H  3737  1  0.51099300  0.35978200  0.04567600  1
  H  3738  1  0.33760000  0.51629900  0.08865300  1
  H  3756  1  0.08766100  0.13139200  0.19552500  1
  H  3757  1  0.10467400  0.14420300  0.17062500  1
  H  3758  1  0.13548500  0.10451200  0.21453000  1
  H  3759  1  0.14575100  0.21022400  0.06226900  1
  H  3760  1  0.12071600  0.22851100  0.11141700  1
  H  3761  1  0.10696400  0.25349800  0.09506300  1
  H  3762  1  0.13205900  0.23515500  0.04602400  1
  H  3763  1  0.22570900  0.14542500  0.07027000  1
  H  3764  1  0.25057100  0.09427500  0.10510700  1
  H  3765  1  0.22219200  0.10780800  0.11440700  1
  H  3766  1  0.25417000  0.13179700  0.06098600  1
  H  3773  1  0.13562100  0.17377700  0.13338000  1
  H  3774  1  0.17673500  0.17218600  0.09254100  1
  H  3775  1  0.17557800  0.13178200  0.13410600  1
  H  3776  1  0.15260300  0.11736900  0.18957800  1
  H  3787  1  0.08618000  0.10639200  0.21873800  1
  H  3788  1  0.10707800  0.25826000  0.04568500  1
  H  3789  1  0.28048300  0.10171500  0.08865600  1
  H  3807  1  0.53042900  0.13138900  0.34408200  1
  H  3808  1  0.51341700  0.14418900  0.36898600  1
  H  3809  1  0.48259900  0.10454200  0.32504700  1
  H  3810  1  0.47233600  0.21023000  0.47732000  1
  H  3811  1  0.49736100  0.22852600  0.42817200  1
  H  3812  1  0.51111400  0.25351200  0.44452700  1
  H  3813  1  0.48603000  0.23516000  0.49356700  1
  H  3814  1  0.39236400  0.14545500  0.46931500  1
  H  3815  1  0.36751600  0.09428300  0.43450400  1
  H  3816  1  0.39589100  0.10781500  0.42519800  1
  H  3817  1  0.36390500  0.13182300  0.47860500  1
  H  3824  1  0.48246000  0.17378600  0.40620900  1
  H  3825  1  0.44134300  0.17220300  0.44704600  1
  H  3826  1  0.44250200  0.13179200  0.40548600  1
  H  3827  1  0.46547900  0.11738900  0.35000300  1
  H  3838  1  0.53190600  0.10639700  0.32085400  1
  H  3839  1  0.51099100  0.25827800  0.49391100  1
  H  3840  1  0.33759400  0.10176600  0.45094000  1
  H  3847  1  0.57969600  0.77731600  0.49922800  1
  H  3848  1  0.61320400  0.80975400  0.46528300  1
  H  3849  1  0.57518900  0.83488800  0.50077400  1
  H  3859  1  0.03838300  0.84075200  0.49923100  1
  H  3860  1  0.00487100  0.80831800  0.46528300  1
  H  3861  1  0.04287900  0.78317800  0.50077700  1
  H  3871  1  0.57970100  0.84074600  0.04036800  1
  H  3872  1  0.61321200  0.80830600  0.07431000  1
  H  3873  1  0.57520200  0.78317200  0.03881400  1
  H  3883  1  0.03838300  0.77731900  0.04036800  1
  H  3884  1  0.00487600  0.80975700  0.07431400  1
  H  3885  1  0.04288300  0.83489200  0.03881800  1
  H  3895  1  0.77818600  0.53862400  0.54021400  1
  H  3896  1  0.81021700  0.50452100  0.57396300  1
  H  3897  1  0.83580000  0.53991300  0.53616700  1
  H  3907  1  0.83990100  0.53862200  0.99937507  1
  H  3908  1  0.80787500  0.50451700  0.96562310  1
  H  3909  1  0.78228700  0.53990500  0.00342200  1
  H  3919  1  0.83989100  0.07944300  0.54022100  1
  H  3920  1  0.80787300  0.11355500  0.57397300  1
  H  3921  1  0.78227600  0.07817400  0.53617300  1
  H  3931  1  0.77819300  0.07944100  0.99937207  1
  H  3932  1  0.81022300  0.11354500  0.96562310  1
  H  3933  1  0.83580700  0.07815100  0.00341800  1
  H  3943  1  0.53854900  0.57897600  0.73745200  1
  H  3944  1  0.50457300  0.61325200  0.76906800  1
  H  3945  1  0.53998800  0.57580600  0.79512100  1
  H  3955  1  0.53853600  0.03909100  0.80214300  1
  H  3956  1  0.50457500  0.00481000  0.77051500  1
  H  3957  1  0.54000200  0.04224900  0.74447300  1
  H  3967  1  0.07953600  0.57897700  0.80214100  1
  H  3968  1  0.11351200  0.61324900  0.77052200  1
  H  3969  1  0.07809000  0.57581000  0.74447300  1
  H  3979  1  0.07953200  0.03909000  0.73745000  1
  H  3980  1  0.11350200  0.00481300  0.76907200  1
  H  3981  1  0.07807800  0.04225300  0.79511800  1
  H  3991  1  0.77584700  0.57912300  0.04054100  1
  H  3992  1  0.80788300  0.61326100  0.07425300  1
  H  3993  1  0.83348700  0.57569200  0.03863100  1
  H  4003  1  0.84224600  0.03893000  0.04053000  1
  H  4004  1  0.81021300  0.00479400  0.07424400  1
  H  4005  1  0.78460800  0.04236300  0.03862300  1
  H  4015  1  0.84224000  0.57913700  0.49906200  1
  H  4016  1  0.81021000  0.61327300  0.46534400  1
  H  4017  1  0.78460200  0.57570200  0.50095800  1
  H  4027  1  0.77583200  0.03894200  0.49906100  1
  H  4028  1  0.80787000  0.00480500  0.46535000  1
  H  4029  1  0.83347100  0.04237300  0.50097300  1
  H  4039  1  0.53836700  0.77732100  0.99923507  1
  H  4040  1  0.50451500  0.80974700  0.96561910  1
  H  4041  1  0.54009600  0.83490300  0.00353400  1
  H  4051  1  0.53835400  0.84073900  0.54035300  1
  H  4052  1  0.50450900  0.80831100  0.57397300  1
  H  4053  1  0.54009600  0.78315600  0.53606300  1
  H  4063  1  0.07972800  0.84074100  0.99924207  1
  H  4064  1  0.11357300  0.80830600  0.96562710  1
  H  4065  1  0.07798600  0.78315800  0.00354100  1
  H  4075  1  0.07971900  0.77732400  0.54035600  1
  H  4076  1  0.11356800  0.80975100  0.57397400  1
  H  4077  1  0.07798400  0.83490700  0.53606200  1
  H  4087  1  0.57884600  0.53843300  0.80214700  1
  H  4088  1  0.61324900  0.50458600  0.77053000  1
  H  4089  1  0.57589600  0.54009500  0.74447400  1
  H  4099  1  0.03922100  0.53845500  0.73744500  1
  H  4100  1  0.00483000  0.50459000  0.76905700  1
  H  4101  1  0.04218100  0.54009800  0.79511800  1
  H  4111  1  0.57886100  0.07960700  0.73744800  1
  H  4112  1  0.61325200  0.11347300  0.76905900  1
  H  4113  1  0.57589900  0.07796900  0.79512200  1
  H  4123  1  0.03920500  0.07960100  0.80214800  1
  H  4124  1  0.00482800  0.11348100  0.77053700  1
  H  4125  1  0.04217200  0.07796900  0.74447400  1
  H  4135  1  0.27579800  0.53838100  0.03999000  1
  H  4136  1  0.30783500  0.50459100  0.07405100  1
  H  4137  1  0.33343500  0.54024800  0.03651600  1
  H  4147  1  0.34228400  0.53838300  0.49960400  1
  H  4148  1  0.31024100  0.50459800  0.46554300  1
  H  4149  1  0.28464500  0.54026300  0.50307200  1
  H  4159  1  0.34228600  0.07968200  0.03998900  1
  H  4160  1  0.31025100  0.11347300  0.07405100  1
  H  4161  1  0.28464700  0.07781300  0.03652000  1
  H  4171  1  0.27579200  0.07968500  0.49960200  1
  H  4172  1  0.30783100  0.11347300  0.46554100  1
  H  4173  1  0.33343000  0.07780900  0.50307100  1
  H  4183  1  0.03781200  0.57894100  0.23808400  1
  H  4184  1  0.00450900  0.61315100  0.27046200  1
  H  4185  1  0.04076700  0.57593300  0.29569200  1
  H  4195  1  0.03781000  0.03913100  0.30151700  1
  H  4196  1  0.00450100  0.00491700  0.26914500  1
  H  4197  1  0.04075800  0.04212900  0.24390600  1
  H  4207  1  0.58027300  0.57894300  0.30151200  1
  H  4208  1  0.61357700  0.61315200  0.26913400  1
  H  4209  1  0.57732000  0.57593500  0.24390200  1
  H  4219  1  0.58026900  0.03912300  0.23808300  1
  H  4220  1  0.61357700  0.00490700  0.27045100  1
  H  4221  1  0.57732400  0.04212000  0.29569400  1
  H  4231  1  0.27818100  0.57879300  0.54079900  1
  H  4232  1  0.31014300  0.61314800  0.57436500  1
  H  4233  1  0.33582700  0.57605300  0.53831000  1
  H  4243  1  0.33989500  0.03927500  0.54079500  1
  H  4244  1  0.30793400  0.00491900  0.57436100  1
  H  4245  1  0.28225000  0.04201100  0.53830200  1
  H  4255  1  0.33990300  0.57878500  0.99879607  1
  H  4256  1  0.30794500  0.61314400  0.96523210  1
  H  4257  1  0.28225800  0.57605000  0.00128400  1
  H  4267  1  0.27817900  0.03927100  0.99880007  1
  H  4268  1  0.31014100  0.00491300  0.96523810  1
  H  4269  1  0.33582400  0.04200700  0.00129500  1
  H  4279  1  0.07984700  0.53854600  0.30153500  1
  H  4280  1  0.11326300  0.50451800  0.26908800  1
  H  4281  1  0.07529200  0.54005800  0.24396300  1
  H  4291  1  0.53823600  0.53855700  0.23805600  1
  H  4292  1  0.50481500  0.50452800  0.27049700  1
  H  4293  1  0.54278900  0.54006500  0.29562800  1
  H  4303  1  0.07984200  0.07951000  0.23805800  1
  H  4304  1  0.11326200  0.11354400  0.27049700  1
  H  4305  1  0.07528400  0.07801400  0.29562900  1
  H  4315  1  0.53824000  0.07951100  0.30154200  1
  H  4316  1  0.50482200  0.11353800  0.26909300  1
  H  4317  1  0.54279400  0.07799500  0.24397000  1
  H  4327  1  0.57922200  0.27727600  0.99874207  1
  H  4328  1  0.61323900  0.30967100  0.96525810  1
  H  4329  1  0.57596300  0.33488400  0.00146800  1
  H  4339  1  0.03887300  0.34078500  0.99874107  1
  H  4340  1  0.00484800  0.30839200  0.96526010  1
  H  4341  1  0.04212100  0.28317700  0.00147100  1
  H  4351  1  0.57921800  0.34078400  0.54085500  1
  H  4352  1  0.61323400  0.30838700  0.57434100  1
  H  4353  1  0.57596300  0.28317800  0.53812400  1
  H  4363  1  0.03886100  0.27728400  0.54085700  1
  H  4364  1  0.00484300  0.30967700  0.57434200  1
  H  4365  1  0.04211300  0.33489100  0.53812800  1
  H  4375  1  0.53792000  0.27729100  0.49977600  1
  H  4376  1  0.50453300  0.30967200  0.46564800  1
  H  4377  1  0.54084200  0.33489900  0.50281800  1
  H  4387  1  0.53792200  0.34076900  0.03981600  1
  H  4388  1  0.50453700  0.30838800  0.07394800  1
  H  4389  1  0.54084800  0.28316000  0.03678100  1
  H  4399  1  0.08016200  0.34077400  0.49978100  1
  H  4400  1  0.11354900  0.30839000  0.46565700  1
  H  4401  1  0.07723600  0.28316600  0.50282500  1
  H  4411  1  0.08016800  0.27728800  0.03981600  1
  H  4412  1  0.11355700  0.30966700  0.07394500  1
  H  4413  1  0.07724400  0.33489700  0.03677900  1
  C  1  1  0.84049700  0.83352700  0.56761400  1
  C  2  1  0.83610900  0.92302400  0.65267600  1
  C  3  1  0.92709200  0.83825700  0.65697000  1
  C  4  1  0.84481800  0.93601200  0.66413200  1
  C  5  1  0.81577000  0.95277400  0.66787700  1
  C  6  1  0.80723500  0.93973100  0.65627200  1
  C  7  1  0.81725800  0.92505900  0.64870900  1
  C  8  1  0.82930500  0.84280600  0.55478900  1
  C  9  1  0.82129500  0.83317100  0.54004500  1
  C  10  1  0.82425200  0.81407700  0.53781600  1
  C  11  1  0.83559700  0.80497200  0.55070500  1
  C  12  1  0.84366300  0.81454700  0.56540500  1
  C  13  1  0.93649300  0.82264200  0.65034900  1
  C  14  1  0.95317500  0.81709600  0.65845000  1
  C  15  1  0.96083200  0.82704600  0.67329200  1
  C  16  1  0.95118200  0.84253500  0.67995500  1
  C  17  1  0.93447600  0.84804900  0.67197200  1
  C  29  1  0.88422900  0.85740600  0.63393500  1
  C  30  1  0.87670200  0.84931600  0.61799000  1
  C  31  1  0.86106300  0.85704800  0.60949800  1
  C  32  1  0.85293200  0.87294900  0.61705400  1
  C  33  1  0.86038800  0.88117400  0.63296200  1
  C  34  1  0.87602800  0.87335100  0.64135900  1
  C  39  1  0.91216300  0.84415200  0.64894800  1
  C  40  1  0.89874300  0.85026900  0.64172600  1
  C  41  1  0.84512100  0.90899800  0.64609500  1
  C  42  1  0.85269100  0.89580500  0.63991800  1
  C  43  1  0.85403200  0.84942900  0.59486300  1
  C  44  1  0.84755000  0.84213900  0.58165900  1
  C  45  1  0.97821700  0.82321000  0.68007200  1
  C  46  1  0.81575300  0.80396300  0.52406200  1
  C  47  1  0.80521600  0.96647300  0.67590900  1
  C  48  1  0.83474700  0.95074100  0.67161500  1
  C  52  1  0.18941200  0.19637400  0.56762100  1
  C  53  1  0.19381600  0.10689200  0.65269700  1
  C  54  1  0.10282200  0.19165300  0.65697700  1
  C  55  1  0.18510100  0.09388700  0.66413100  1
  C  56  1  0.21415600  0.07713300  0.66788100  1
  C  57  1  0.22269200  0.09019000  0.65629200  1
  C  58  1  0.21266900  0.10486700  0.64873900  1
  C  59  1  0.20062300  0.18709700  0.55481100  1
  C  60  1  0.20862200  0.19672700  0.54005800  1
  C  61  1  0.20565800  0.21581800  0.53782200  1
  C  62  1  0.19430700  0.22492500  0.55070400  1
  C  63  1  0.18623000  0.21535000  0.56539800  1
  C  64  1  0.09341900  0.20726600  0.65035100  1
  C  65  1  0.07673300  0.21280800  0.65844300  1
  C  66  1  0.06908300  0.20287400  0.67329800  1
  C  67  1  0.07872000  0.18737100  0.67994700  1
  C  68  1  0.09542600  0.18185300  0.67196700  1
  C  80  1  0.14568700  0.17250200  0.63394900  1
  C  81  1  0.15321400  0.18059100  0.61800400  1
  C  82  1  0.16885500  0.17286100  0.60951300  1
  C  83  1  0.17698600  0.15696100  0.61707200  1
  C  84  1  0.16952900  0.14873700  0.63297800  1
  C  85  1  0.15388800  0.15655900  0.64137400  1
  C  90  1  0.11775100  0.18575700  0.64895900  1
  C  91  1  0.13117300  0.17964000  0.64173800  1
  C  92  1  0.18479900  0.12091500  0.64611600  1
  C  93  1  0.17722800  0.13410600  0.63993500  1
  C  94  1  0.17588300  0.18047900  0.59487600  1
  C  95  1  0.18236300  0.18776500  0.58167100  1
  C  96  1  0.05169400  0.20670200  0.68007200  1
  C  97  1  0.21417600  0.22593200  0.52408000  1
  C  98  1  0.22470700  0.06342100  0.67589200  1
  C  99  1  0.19517600  0.07916000  0.67161400  1
  C  103  1  0.84049500  0.19636700  0.38381300  1
  C  104  1  0.83610400  0.10687700  0.29874300  1
  C  105  1  0.92709000  0.19164700  0.29446100  1
  C  106  1  0.84481500  0.09387300  0.28730700  1
  C  107  1  0.81576200  0.07712000  0.28355800  1
  C  108  1  0.80722800  0.09017400  0.29515100  1
  C  109  1  0.81725000  0.10485100  0.30270500  1
  C  110  1  0.82930200  0.18708800  0.39663700  1
  C  111  1  0.82129600  0.19672100  0.41138500  1
  C  112  1  0.82424600  0.21581600  0.41360800  1
  C  113  1  0.83558900  0.22492300  0.40071900  1
  C  114  1  0.84366500  0.21534600  0.38602500  1
  C  115  1  0.93649500  0.20725500  0.30109300  1
  C  116  1  0.95317100  0.21281200  0.29298700  1
  C  117  1  0.96082700  0.20287000  0.27813800  1
  C  118  1  0.95118500  0.18737300  0.27148000  1
  C  119  1  0.93448500  0.18184800  0.27947000  1
  C  131  1  0.88423300  0.17248600  0.31749600  1
  C  132  1  0.87670500  0.18057500  0.33344300  1
  C  133  1  0.86106600  0.17284400  0.34193400  1
  C  134  1  0.85293500  0.15694300  0.33437500  1
  C  135  1  0.86039100  0.14871900  0.31846800  1
  C  136  1  0.87603100  0.15654200  0.31007100  1
  C  141  1  0.91216400  0.18574500  0.30248400  1
  C  142  1  0.89874500  0.17962500  0.30970600  1
  C  143  1  0.84512000  0.12090000  0.30532700  1
  C  144  1  0.85269100  0.13409000  0.31150800  1
  C  145  1  0.85403300  0.18046400  0.35656700  1
  C  146  1  0.84755000  0.18775400  0.36977000  1
  C  147  1  0.97821900  0.20669300  0.27137100  1
  C  148  1  0.81574200  0.22592900  0.42736000  1
  C  149  1  0.80521100  0.06340700  0.27554800  1
  C  150  1  0.83474100  0.07915000  0.27982100  1
  C  154  1  0.18942300  0.83352300  0.38381700  1
  C  155  1  0.19381300  0.92301300  0.29874500  1
  C  156  1  0.10283800  0.83824100  0.29445000  1
  C  157  1  0.18510300  0.93600400  0.28729400  1
  C  158  1  0.21414800  0.95277500  0.28356000  1
  C  159  1  0.22268500  0.93972400  0.29515600  1
  C  160  1  0.21266400  0.92505000  0.30271600  1
  C  161  1  0.20061800  0.84280300  0.39663900  1
  C  162  1  0.20861500  0.83317200  0.41139300  1
  C  163  1  0.20566200  0.81407700  0.41361900  1
  C  164  1  0.19431600  0.80497000  0.40073200  1
  C  165  1  0.18624900  0.81454600  0.38603200  1
  C  166  1  0.09343500  0.82262900  0.30107400  1
  C  167  1  0.07674700  0.81708800  0.29298000  1
  C  168  1  0.06909100  0.82703700  0.27813700  1
  C  169  1  0.07873900  0.84252800  0.27147600  1
  C  170  1  0.09544700  0.84804000  0.27945600  1
  C  182  1  0.14569400  0.85739700  0.31749200  1
  C  183  1  0.15322100  0.84930800  0.33343900  1
  C  184  1  0.16885800  0.85704100  0.34193200  1
  C  185  1  0.17698900  0.87294200  0.33437500  1
  C  186  1  0.16953300  0.88116600  0.31846700  1
  C  187  1  0.15389400  0.87334200  0.31006800  1
  C  192  1  0.11776300  0.84413800  0.30247500  1
  C  193  1  0.13118200  0.85025700  0.30970000  1
  C  194  1  0.18480000  0.90898800  0.30532900  1
  C  195  1  0.17723200  0.89579700  0.31151000  1
  C  196  1  0.17588800  0.84942400  0.35656700  1
  C  197  1  0.18236900  0.84213600  0.36977200  1
  C  198  1  0.05170600  0.82320000  0.27135700  1
  C  199  1  0.21416400  0.80396200  0.42737200  1
  C  200  1  0.22470000  0.96647600  0.27553000  1
  C  201  1  0.19517500  0.95073000  0.27980900  1
  C  205  1  0.83394600  0.60688600  0.80091900  1
  C  206  1  0.92348300  0.69210500  0.79643700  1
  C  207  1  0.83870300  0.69614900  0.88741700  1
  C  208  1  0.93651100  0.70345100  0.80523100  1
  C  209  1  0.95327000  0.70738800  0.77620200  1
  C  210  1  0.94018700  0.69589000  0.76758200  1
  C  211  1  0.92549700  0.68828800  0.77755100  1
  C  212  1  0.84317000  0.59403000  0.78971700  1
  C  213  1  0.83348900  0.57928100  0.78177400  1
  C  214  1  0.81440300  0.57708200  0.78480400  1
  C  215  1  0.80535400  0.59000100  0.79615800  1
  C  216  1  0.81498000  0.60469600  0.80417400  1
  C  217  1  0.82307500  0.68948200  0.89676400  1
  C  218  1  0.81746800  0.69754900  0.91344000  1
  C  219  1  0.82737800  0.71238700  0.92115200  1
  C  220  1  0.84290200  0.71907200  0.91157500  1
  C  221  1  0.84846600  0.71113600  0.89486300  1
  C  233  1  0.85791000  0.67320700  0.84453700  1
  C  234  1  0.84982700  0.65725900  0.83701200  1
  C  235  1  0.85754700  0.64878100  0.82136100  1
  C  236  1  0.87343300  0.65635600  0.81321500  1
  C  237  1  0.88165400  0.67226800  0.82066900  1
  C  238  1  0.87383900  0.68065100  0.83632200  1
  C  243  1  0.84464000  0.68817000  0.87248500  1
  C  244  1  0.85077600  0.68097900  0.85905800  1
  C  245  1  0.90945700  0.68546700  0.80541300  1
  C  246  1  0.89627300  0.67924700  0.81296500  1
  C  247  1  0.84992400  0.63414200  0.81434500  1
  C  248  1  0.84260400  0.62093500  0.80790800  1
  C  249  1  0.82346700  0.71914800  0.93852300  1
  C  250  1  0.80424200  0.56334300  0.77633800  1
  C  251  1  0.96701800  0.71542700  0.76571400  1
  C  252  1  0.95124700  0.71098800  0.79520700  1
  C  256  1  0.19598200  0.60688900  0.15051400  1
  C  257  1  0.10642600  0.69208500  0.15498000  1
  C  258  1  0.19121100  0.69614000  0.06400600  1
  C  259  1  0.09341200  0.70345200  0.14619000  1
  C  260  1  0.07664800  0.70738800  0.17521500  1
  C  261  1  0.08971500  0.69586900  0.18383200  1
  C  262  1  0.10440000  0.68825700  0.17386200  1
  C  263  1  0.18675800  0.59402600  0.16170800  1
  C  264  1  0.19644000  0.57927600  0.16964800  1
  C  265  1  0.21553000  0.57709200  0.16663500  1
  C  266  1  0.22458200  0.59002200  0.15529500  1
  C  267  1  0.21495600  0.60471800  0.14728500  1
  C  268  1  0.20685000  0.68948500  0.05466800  1
  C  269  1  0.21245200  0.69754700  0.03798700  1
  C  270  1  0.20254200  0.71238500  0.03027600  1
  C  271  1  0.18701900  0.71907200  0.03985600  1
  C  272  1  0.18144800  0.71112900  0.05656100  1
  C  284  1  0.17200800  0.67320000  0.10688800  1
  C  285  1  0.18009400  0.65725400  0.11441400  1
  C  286  1  0.17237200  0.64877400  0.13006300  1
  C  287  1  0.15648500  0.65634800  0.13820800  1
  C  288  1  0.14826400  0.67225800  0.13075400  1
  C  289  1  0.15607700  0.68064200  0.11510100  1
  C  294  1  0.18527800  0.68816300  0.07893900  1
  C  295  1  0.17914200  0.68097400  0.09236800  1
  C  296  1  0.12045500  0.68545100  0.14600700  1
  C  297  1  0.13364200  0.67923600  0.13845800  1
  C  298  1  0.17999800  0.63413800  0.13708100  1
  C  299  1  0.18732200  0.62093300  0.14352100  1
  C  300  1  0.20645000  0.71914600  0.01290500  1
  C  301  1  0.22569200  0.56333900  0.17508100  1
  C  302  1  0.06291500  0.71545100  0.18570300  1
  C  303  1  0.07867200  0.71098600  0.15620800  1
  C  307  1  0.19597100  0.42301000  0.80092400  1
  C  308  1  0.10642700  0.33779800  0.79644900  1
  C  309  1  0.19120800  0.33374300  0.88742300  1
  C  310  1  0.09341000  0.32643700  0.80524200  1
  C  311  1  0.07664500  0.32250100  0.77621800  1
  C  312  1  0.08971400  0.33401600  0.76760000  1
  C  313  1  0.10440100  0.34162400  0.77756800  1
  C  314  1  0.18674800  0.43586300  0.78972200  1
  C  315  1  0.19642700  0.45061300  0.78177900  1
  C  316  1  0.21551300  0.45281200  0.78480600  1
  C  317  1  0.22456400  0.43989300  0.79616100  1
  C  318  1  0.21494100  0.42519200  0.80417000  1
  C  319  1  0.20684500  0.34039700  0.89676400  1
  C  320  1  0.21244500  0.33233600  0.91344700  1
  C  321  1  0.20251700  0.31751300  0.92116500  1
  C  322  1  0.18699000  0.31083200  0.91159000  1
  C  323  1  0.18142400  0.31877600  0.89488400  1
  C  335  1  0.17200900  0.35668600  0.84454100  1
  C  336  1  0.18009400  0.37263300  0.83701600  1
  C  337  1  0.17237200  0.38111300  0.82136700  1
  C  338  1  0.15648400  0.37354100  0.81322200  1
  C  339  1  0.14826200  0.35763000  0.82067600  1
  C  340  1  0.15607800  0.34924400  0.83632700  1
  C  345  1  0.18527900  0.34172200  0.87248900  1
  C  346  1  0.17914500  0.34891200  0.85906100  1
  C  347  1  0.12045500  0.34443500  0.80542300  1
  C  348  1  0.13364200  0.35065300  0.81297200  1
  C  349  1  0.17999500  0.39575200  0.81435200  1
  C  350  1  0.18731500  0.40895900  0.80791500  1
  C  351  1  0.20644100  0.31073200  0.93852700  1
  C  352  1  0.22567400  0.46655100  0.77634000  1
  C  353  1  0.06290800  0.31444100  0.76573000  1
  C  354  1  0.07867000  0.31890400  0.79522300  1
  C  358  1  0.83394900  0.42300700  0.15051300  1
  C  359  1  0.92349200  0.33779500  0.15498800  1
  C  360  1  0.83870900  0.33375000  0.06400900  1
  C  361  1  0.93651700  0.32644600  0.14619400  1
  C  362  1  0.95327600  0.32250600  0.17522300  1
  C  363  1  0.94019700  0.33400800  0.18384100  1
  C  364  1  0.92551200  0.34161900  0.17387100  1
  C  365  1  0.84317300  0.43586600  0.16170900  1
  C  366  1  0.83349000  0.45061500  0.16965300  1
  C  367  1  0.81440100  0.45280300  0.16663500  1
  C  368  1  0.80535300  0.43988400  0.15528000  1
  C  369  1  0.81497900  0.42518900  0.14726700  1
  C  370  1  0.82308400  0.34041800  0.05465900  1
  C  371  1  0.81747300  0.33234900  0.03798600  1
  C  372  1  0.82738200  0.31750800  0.03027600  1
  C  373  1  0.84290700  0.31082400  0.03985400  1
  C  374  1  0.84847300  0.31876200  0.05656300  1
  C  386  1  0.85791700  0.35669200  0.10688900  1
  C  387  1  0.84983300  0.37264100  0.11441200  1
  C  388  1  0.85755700  0.38111900  0.13006200  1
  C  389  1  0.87344200  0.37354500  0.13820800  1
  C  390  1  0.88166200  0.35763400  0.13075400  1
  C  391  1  0.87384700  0.34924900  0.11510300  1
  C  396  1  0.84464500  0.34172700  0.07894100  1
  C  397  1  0.85078200  0.34891800  0.09236900  1
  C  398  1  0.90946600  0.34443500  0.14601300  1
  C  399  1  0.89628100  0.35065300  0.13846100  1
  C  400  1  0.84993100  0.39575700  0.13708000  1
  C  401  1  0.84260900  0.40896100  0.14352000  1
  C  402  1  0.82346900  0.31074300  0.01290800  1
  C  403  1  0.80424100  0.46654800  0.17509500  1
  C  404  1  0.96702100  0.31445900  0.18571100  1
  C  405  1  0.95125200  0.31890700  0.15621600  1
  C  409  1  0.60526800  0.83906000  0.79330400  1
  C  410  1  0.69165500  0.83424900  0.88215100  1
  C  411  1  0.69564300  0.92493300  0.79760800  1
  C  412  1  0.70303400  0.84327300  0.89499600  1
  C  413  1  0.70713500  0.81452600  0.91220600  1
  C  414  1  0.69559900  0.80567500  0.89930900  1
  C  415  1  0.68790400  0.81538800  0.88449300  1
  C  416  1  0.59616200  0.82332000  0.80004600  1
  C  417  1  0.57935100  0.81765500  0.79229500  1
  C  418  1  0.57127700  0.82759500  0.77767200  1
  C  419  1  0.58061500  0.84322500  0.77089400  1
  C  420  1  0.59743400  0.84887100  0.77854500  1
  C  421  1  0.68927900  0.93444800  0.78195200  1
  C  422  1  0.69742900  0.95119800  0.77667700  1
  C  423  1  0.71207500  0.95882100  0.78694000  1
  C  424  1  0.71847800  0.94906700  0.80247600  1
  C  425  1  0.71044000  0.93229800  0.80772200  1
  C  437  1  0.67272700  0.88170900  0.81614300  1
  C  438  1  0.65693800  0.87398400  0.80792100  1
  C  439  1  0.64858000  0.85820900  0.81554200  1
  C  440  1  0.65608700  0.85020300  0.83154000  1
  C  441  1  0.67183700  0.85784500  0.83991000  1
  C  442  1  0.68011200  0.87358000  0.83214700  1
  C  447  1  0.68759200  0.90990000  0.80322800  1
  C  448  1  0.68040000  0.89636500  0.80913600  1
  C  449  1  0.68496600  0.84296800  0.86797400  1
  C  450  1  0.67874600  0.85030000  0.85466100  1
  C  451  1  0.63391100  0.85116000  0.80794500  1
  C  452  1  0.62034800  0.84503400  0.80099300  1
  C  453  1  0.71888700  0.97625700  0.78336100  1
  C  454  1  0.55380900  0.82359500  0.77120700  1
  C  455  1  0.71529600  0.80426200  0.92606200  1
  C  456  1  0.71064800  0.83351300  0.90987200  1
  C  460  1  0.60527000  0.19083800  0.15812200  1
  C  461  1  0.69166000  0.19564800  0.06928600  1
  C  462  1  0.69563400  0.10495200  0.15382100  1
  C  463  1  0.70302000  0.18662000  0.05642400  1
  C  464  1  0.70712200  0.21537400  0.03922600  1
  C  465  1  0.69560200  0.22422600  0.05213400  1
  C  466  1  0.68791600  0.21451100  0.06695300  1
  C  467  1  0.59615400  0.20656600  0.15136500  1
  C  468  1  0.57935800  0.21225200  0.15913600  1
  C  469  1  0.57128500  0.20231700  0.17376400  1
  C  470  1  0.58062300  0.18668600  0.18054000  1
  C  471  1  0.59744900  0.18104500  0.17290000  1
  C  472  1  0.68925800  0.09543000  0.16946800  1
  C  473  1  0.69740400  0.07867800  0.17474100  1
  C  474  1  0.71207300  0.07106900  0.16450300  1
  C  475  1  0.71846600  0.08081500  0.14895700  1
  C  476  1  0.71043200  0.09758600  0.14370900  1
  C  488  1  0.67271900  0.14817400  0.13527900  1
  C  489  1  0.65692800  0.15590000  0.14349900  1
  C  490  1  0.64857400  0.17167600  0.13587900  1
  C  491  1  0.65608200  0.17968300  0.11988300  1
  C  492  1  0.67183200  0.17204200  0.11151600  1
  C  493  1  0.68010700  0.15630500  0.11927900  1
  C  498  1  0.68758300  0.11998400  0.14819700  1
  C  499  1  0.68039000  0.13351800  0.14228700  1
  C  500  1  0.68496900  0.18692300  0.08345800  1
  C  501  1  0.67874500  0.17958800  0.09676600  1
  C  502  1  0.63390400  0.17872600  0.14347600  1
  C  503  1  0.62034500  0.18485600  0.15042900  1
  C  504  1  0.71888200  0.05362900  0.16807200  1
  C  505  1  0.55380700  0.20630400  0.18020700  1
  C  506  1  0.71526300  0.22564000  0.02535800  1
  C  507  1  0.71063400  0.19638600  0.04155100  1
  C  511  1  0.42465300  0.83906200  0.15812900  1
  C  512  1  0.33825600  0.83423500  0.06929000  1
  C  513  1  0.33427700  0.92492700  0.15383500  1
  C  514  1  0.32689800  0.84326400  0.05642800  1
  C  515  1  0.32279200  0.81451200  0.03922800  1
  C  516  1  0.33431500  0.80566000  0.05213500  1
  C  517  1  0.34200100  0.81537200  0.06695500  1
  C  518  1  0.43376900  0.82332900  0.15138000  1
  C  519  1  0.45057000  0.81765500  0.15914300  1
  C  520  1  0.45864400  0.82759800  0.17376600  1
  C  521  1  0.44930200  0.84322700  0.18054200  1
  C  522  1  0.43247400  0.84886200  0.17290100  1
  C  523  1  0.34065900  0.93445200  0.16947600  1
  C  524  1  0.33250200  0.95119500  0.17476300  1
  C  525  1  0.31784000  0.95881100  0.16451800  1
  C  526  1  0.31143800  0.94905900  0.14897900  1
  C  527  1  0.31947700  0.93229400  0.14372400  1
  C  539  1  0.35719500  0.88170900  0.13528400  1
  C  540  1  0.37298500  0.87398300  0.14350900  1
  C  541  1  0.38133900  0.85820500  0.13589000  1
  C  542  1  0.37383300  0.85019900  0.11989100  1
  C  543  1  0.35808400  0.85784200  0.11152100  1
  C  544  1  0.34980800  0.87357800  0.11928400  1
  C  549  1  0.34233100  0.90989800  0.14820500  1
  C  550  1  0.34952200  0.89636500  0.14229400  1
  C  551  1  0.34494900  0.84296100  0.08346300  1
  C  552  1  0.35117200  0.85029400  0.09677200  1
  C  553  1  0.39601000  0.85115800  0.14348500  1
  C  554  1  0.40957200  0.84503400  0.15043800  1
  C  555  1  0.31104000  0.97625300  0.16808300  1
  C  556  1  0.47611200  0.82359400  0.18022800  1
  C  557  1  0.31465200  0.80424700  0.02535800  1
  C  558  1  0.31927900  0.83349800  0.04155800  1
  C  562  1  0.42464400  0.19083200  0.79330500  1
  C  563  1  0.33824900  0.19564700  0.88214400  1
  C  564  1  0.33426100  0.10496600  0.79759700  1
  C  565  1  0.32687100  0.18662300  0.89499000  1
  C  566  1  0.32278500  0.21536700  0.91220800  1
  C  567  1  0.33431300  0.22421900  0.89930600  1
  C  568  1  0.34200600  0.21450600  0.88448900  1
  C  569  1  0.43375100  0.20657400  0.80004800  1
  C  570  1  0.45054700  0.21225600  0.79228100  1
  C  571  1  0.45863000  0.20230400  0.77766900  1
  C  572  1  0.44929400  0.18667300  0.77089200  1
  C  573  1  0.43247500  0.18102700  0.77854100  1
  C  574  1  0.34063200  0.09544600  0.78194500  1
  C  575  1  0.33248600  0.07869000  0.77667700  1
  C  576  1  0.31783800  0.07107000  0.78693700  1
  C  577  1  0.31143700  0.08082500  0.80247300  1
  C  578  1  0.31946100  0.09760400  0.80770900  1
  C  590  1  0.35718500  0.14818400  0.81614000  1
  C  591  1  0.37297500  0.15590800  0.80792000  1
  C  592  1  0.38133100  0.17168400  0.81554000  1
  C  593  1  0.37382600  0.17968900  0.83153900  1
  C  594  1  0.35807500  0.17204600  0.83990800  1
  C  595  1  0.34980000  0.15631200  0.83214300  1
  C  600  1  0.34231800  0.11999500  0.80322100  1
  C  601  1  0.34951300  0.13352800  0.80913100  1
  C  602  1  0.34494200  0.18692500  0.86796900  1
  C  603  1  0.35116500  0.17959300  0.85465800  1
  C  604  1  0.39600200  0.17873300  0.80794500  1
  C  605  1  0.40956500  0.18485800  0.80099400  1
  C  606  1  0.31102800  0.05363300  0.78336100  1
  C  607  1  0.47610100  0.20630500  0.77120900  1
  C  608  1  0.31462500  0.22563300  0.92606400  1
  C  609  1  0.31925400  0.19638600  0.90986300  1
  C  613  1  0.83209300  0.83896500  0.38586000  1
  C  614  1  0.92094900  0.83433800  0.29951300  1
  C  615  1  0.83648700  0.92492500  0.29537700  1
  C  616  1  0.93373400  0.84334900  0.28805500  1
  C  617  1  0.95099100  0.81462400  0.28401500  1
  C  618  1  0.93816000  0.80579300  0.29563700  1
  C  619  1  0.92334800  0.81550100  0.30334000  1
  C  620  1  0.83889800  0.82324500  0.39496000  1
  C  621  1  0.83117200  0.81754000  0.41177200  1
  C  622  1  0.81652000  0.82742600  0.41986400  1
  C  623  1  0.80968800  0.84303800  0.41053300  1
  C  624  1  0.81728700  0.84870300  0.39369600  1
  C  625  1  0.82085200  0.93451500  0.30167900  1
  C  626  1  0.81563900  0.95124500  0.29344800  1
  C  627  1  0.82594800  0.95878100  0.27879000  1
  C  628  1  0.84148200  0.94896600  0.27247300  1
  C  629  1  0.84665400  0.93220400  0.28057200  1
  C  641  1  0.85491700  0.88173200  0.31843400  1
  C  642  1  0.84668200  0.87399400  0.33421200  1
  C  643  1  0.85430600  0.85822000  0.34257300  1
  C  644  1  0.87032000  0.85023200  0.33508200  1
  C  645  1  0.87869900  0.85788900  0.31934600  1
  C  646  1  0.87093300  0.87361900  0.31106500  1
  C  651  1  0.84204800  0.90990900  0.30350100  1
  C  652  1  0.84791600  0.89638300  0.31074400  1
  C  653  1  0.90677600  0.84304800  0.30621500  1
  C  654  1  0.89345900  0.85036100  0.31244300  1
  C  655  1  0.84670300  0.85115100  0.35723300  1
  C  656  1  0.83976500  0.84498600  0.37078600  1
  C  657  1  0.82245000  0.97620900  0.27191600  1
  C  658  1  0.81014800  0.82345600  0.43737700  1
  C  659  1  0.96483400  0.80435100  0.27584900  1
  C  660  1  0.94859400  0.83358600  0.28041600  1
  C  664  1  0.19782700  0.19091900  0.38587700  1
  C  665  1  0.10896600  0.19554300  0.29952700  1
  C  666  1  0.19343600  0.10496500  0.29539000  1
  C  667  1  0.09619800  0.18653300  0.28805100  1
  C  668  1  0.07893200  0.21525300  0.28400800  1
  C  669  1  0.09174900  0.22408400  0.29564800  1
  C  670  1  0.10655700  0.21437700  0.30336100  1
  C  671  1  0.19103300  0.20664600  0.39497100  1
  C  672  1  0.19876200  0.21235200  0.41178100  1
  C  673  1  0.21339200  0.20244600  0.41988600  1
  C  674  1  0.22021300  0.18682400  0.41056400  1
  C  675  1  0.21260700  0.18115600  0.39373000  1
  C  676  1  0.20908000  0.09538300  0.30168200  1
  C  677  1  0.21428800  0.07864900  0.29345600  1
  C  678  1  0.20397700  0.07111100  0.27879900  1
  C  679  1  0.18844500  0.08092800  0.27248000  1
  C  680  1  0.18326700  0.09768500  0.28058600  1
  C  692  1  0.17501100  0.14816200  0.31844100  1
  C  693  1  0.18324800  0.15590300  0.33421700  1
  C  694  1  0.17562500  0.17167700  0.34257700  1
  C  695  1  0.15960800  0.17966200  0.33508700  1
  C  696  1  0.15122700  0.17200400  0.31935200  1
  C  697  1  0.15899300  0.15627300  0.31107300  1
  C  702  1  0.18787700  0.11998300  0.30351200  1
  C  703  1  0.18201200  0.13351000  0.31075300  1
  C  704  1  0.12314400  0.18683700  0.30622600  1
  C  705  1  0.13646400  0.17952800  0.31245100  1
  C  706  1  0.18322600  0.17874700  0.35723900  1
  C  707  1  0.19016100  0.18490800  0.37079500  1
  C  708  1  0.20747300  0.05368200  0.27192700  1
  C  709  1  0.21978800  0.20643300  0.43738800  1
  C  710  1  0.06510100  0.22552500  0.27582000  1
  C  711  1  0.08133900  0.19629300  0.28040400  1
  C  715  1  0.19783000  0.83896700  0.56557400  1
  C  716  1  0.10896700  0.83435700  0.65191400  1
  C  717  1  0.19343000  0.92493600  0.65605600  1
  C  718  1  0.09619300  0.84336700  0.66338600  1
  C  719  1  0.07892900  0.81464700  0.66742700  1
  C  720  1  0.09174700  0.80581600  0.65578800  1
  C  721  1  0.10655600  0.81552300  0.64807900  1
  C  722  1  0.19102900  0.82324400  0.55647800  1
  C  723  1  0.19875200  0.81754000  0.53966500  1
  C  724  1  0.21340100  0.82742600  0.53157000  1
  C  725  1  0.22023400  0.84303800  0.54090100  1
  C  726  1  0.21262100  0.84871700  0.55772600  1
  C  727  1  0.20907500  0.93452000  0.64976900  1
  C  728  1  0.21427800  0.95125600  0.65799500  1
  C  729  1  0.20395100  0.95880000  0.67263400  1
  C  730  1  0.18841400  0.94898900  0.67894700  1
  C  731  1  0.18324100  0.93223100  0.67083800  1
  C  743  1  0.17501000  0.88173900  0.63300100  1
  C  744  1  0.18324500  0.87400100  0.61722400  1
  C  745  1  0.17561900  0.85822800  0.60886100  1
  C  746  1  0.15960400  0.85024300  0.61635100  1
  C  747  1  0.15122300  0.85790000  0.63208700  1
  C  748  1  0.15899100  0.87362900  0.64036800  1
  C  753  1  0.18787500  0.90991700  0.64793300  1
  C  754  1  0.18201100  0.89639000  0.64069000  1
  C  755  1  0.12314200  0.84306500  0.64521400  1
  C  756  1  0.13646200  0.85037500  0.63898800  1
  C  757  1  0.18322100  0.85115700  0.59420100  1
  C  758  1  0.19016000  0.84499000  0.58064900  1
  C  759  1  0.20746300  0.97622000  0.67952700  1
  C  760  1  0.21977300  0.82345600  0.51405700  1
  C  761  1  0.06510000  0.80437500  0.67561600  1
  C  762  1  0.08132900  0.83360900  0.67102400  1
  C  766  1  0.83208700  0.19091500  0.56556200  1
  C  767  1  0.92093700  0.19555200  0.65192000  1
  C  768  1  0.83647600  0.10496400  0.65605100  1
  C  769  1  0.93371800  0.18654300  0.66338100  1
  C  770  1  0.95097700  0.21526600  0.66742300  1
  C  771  1  0.93815000  0.22409700  0.65579500  1
  C  772  1  0.92334300  0.21438600  0.64808400  1
  C  773  1  0.83888200  0.20664000  0.55646400  1
  C  774  1  0.83115600  0.21233900  0.53965100  1
  C  775  1  0.81652000  0.20243800  0.53155200  1
  C  776  1  0.80968600  0.18683100  0.54088700  1
  C  777  1  0.81729100  0.18116500  0.55772200  1
  C  778  1  0.82084400  0.09537200  0.64974700  1
  C  779  1  0.81562900  0.07864400  0.65797900  1
  C  780  1  0.82593700  0.07110700  0.67263800  1
  C  781  1  0.84147100  0.08092200  0.67895600  1
  C  782  1  0.84664400  0.09768400  0.67085300  1
  C  794  1  0.85490200  0.14816000  0.63300000  1
  C  795  1  0.84666800  0.15589800  0.61722100  1
  C  796  1  0.85429100  0.17167300  0.60886100  1
  C  797  1  0.87030500  0.17966100  0.61635200  1
  C  798  1  0.87868500  0.17200400  0.63208900  1
  C  799  1  0.87091900  0.15627300  0.64036900  1
  C  804  1  0.84203500  0.11998200  0.64792900  1
  C  805  1  0.84790200  0.13350900  0.64068800  1
  C  806  1  0.90676300  0.18684300  0.64521900  1
  C  807  1  0.89344500  0.17953000  0.63899100  1
  C  808  1  0.84668900  0.17874100  0.59419800  1
  C  809  1  0.83975400  0.18490200  0.58064300  1
  C  810  1  0.82243800  0.05368000  0.67951400  1
  C  811  1  0.81013400  0.20642300  0.51404800  1
  C  812  1  0.96481500  0.22553900  0.67559700  1
  C  813  1  0.94857800  0.19630400  0.67102400  1
  C  817  1  0.60642400  0.83342500  0.15067000  1
  C  818  1  0.69156100  0.92302100  0.15490800  1
  C  819  1  0.69576300  0.83833500  0.06403200  1
  C  820  1  0.70302500  0.93595400  0.14612800  1
  C  821  1  0.70691000  0.95278400  0.17511800  1
  C  822  1  0.69529700  0.93979500  0.18372600  1
  C  823  1  0.68766100  0.92511600  0.17376800  1
  C  824  1  0.59352000  0.84272000  0.16175700  1
  C  825  1  0.57876700  0.83308200  0.16974800  1
  C  826  1  0.57660600  0.81396700  0.16687900  1
  C  827  1  0.58957700  0.80484200  0.15564400  1
  C  828  1  0.60428500  0.81442200  0.14759300  1
  C  829  1  0.68919200  0.82270600  0.05462000  1
  C  830  1  0.69732900  0.81718600  0.03794900  1
  C  831  1  0.71215500  0.82717700  0.03031600  1
  C  832  1  0.71876600  0.84268300  0.03997500  1
  C  833  1  0.71074500  0.84817200  0.05667100  1
  C  845  1  0.67269300  0.85739200  0.10690700  1
  C  846  1  0.65676600  0.84928500  0.11445100  1
  C  847  1  0.64828400  0.85700100  0.13010300  1
  C  848  1  0.65583700  0.87290900  0.13822900  1
  C  849  1  0.67172700  0.88115200  0.13075400  1
  C  850  1  0.68011300  0.87334200  0.11510100  1
  C  855  1  0.68771600  0.84419000  0.07895800  1
  C  856  1  0.68047900  0.85027400  0.09238600  1
  C  857  1  0.68491200  0.90898700  0.14595800  1
  C  858  1  0.67869100  0.89578900  0.13843500  1
  C  859  1  0.63366200  0.84936300  0.13714400  1
  C  860  1  0.62046700  0.84205300  0.14362400  1
  C  861  1  0.71900500  0.82332500  0.01296500  1
  C  862  1  0.56282500  0.80386000  0.17534900  1
  C  863  1  0.71501000  0.96649000  0.18561100  1
  C  864  1  0.71057900  0.95069000  0.15613400  1
  C  868  1  0.60641500  0.19646000  0.80076200  1
  C  869  1  0.69156300  0.10687800  0.79650500  1
  C  870  1  0.69576200  0.19155700  0.88739100  1
  C  871  1  0.70300800  0.09392900  0.80529000  1
  C  872  1  0.70689500  0.07710800  0.77629400  1
  C  873  1  0.69529800  0.09011000  0.76768500  1
  C  874  1  0.68767200  0.10479300  0.77764400  1
  C  875  1  0.59352300  0.18716800  0.78965800  1
  C  876  1  0.57876000  0.19680200  0.78167900  1
  C  877  1  0.57659400  0.21591500  0.78455500  1
  C  878  1  0.58955700  0.22503900  0.79580000  1
  C  879  1  0.60426000  0.21545800  0.80385800  1
  C  880  1  0.68918700  0.20718200  0.89680600  1
  C  881  1  0.69731900  0.21269800  0.91348100  1
  C  882  1  0.71215900  0.20272300  0.92110500  1
  C  883  1  0.71875400  0.18720300  0.91145800  1
  C  884  1  0.71073400  0.18171200  0.89476200  1
  C  896  1  0.67269400  0.17249900  0.84451600  1
  C  897  1  0.65676500  0.18060800  0.83697300  1
  C  898  1  0.64828400  0.17289000  0.82131900  1
  C  899  1  0.65583700  0.15698400  0.81319300  1
  C  900  1  0.67172800  0.14874000  0.82066800  1
  C  901  1  0.68011300  0.15655000  0.83632000  1
  C  906  1  0.68771800  0.18570100  0.87246400  1
  C  907  1  0.68048000  0.17961700  0.85903700  1
  C  908  1  0.68491600  0.12090900  0.80546100  1
  C  909  1  0.67869200  0.13410500  0.81298600  1
  C  910  1  0.63366000  0.18052800  0.81428000  1
  C  911  1  0.62046300  0.18783500  0.80780500  1
  C  912  1  0.71900400  0.20656600  0.93845900  1
  C  913  1  0.56282200  0.22602200  0.77606900  1
  C  914  1  0.71497400  0.06338900  0.76580100  1
  C  915  1  0.71056200  0.07919600  0.79527900  1
  C  919  1  0.42349300  0.19645700  0.15066900  1
  C  920  1  0.33834800  0.10687400  0.15492100  1
  C  921  1  0.33415000  0.19156200  0.06403900  1
  C  922  1  0.32690500  0.09392400  0.14613700  1
  C  923  1  0.32301900  0.07710400  0.17513500  1
  C  924  1  0.33461900  0.09010500  0.18374100  1
  C  925  1  0.34224300  0.10478700  0.17378100  1
  C  926  1  0.43639500  0.18716400  0.16176100  1
  C  927  1  0.45115200  0.19680200  0.16974500  1
  C  928  1  0.45331000  0.21591700  0.16688000  1
  C  929  1  0.44034100  0.22504100  0.15564100  1
  C  930  1  0.42563800  0.21545900  0.14758400  1
  C  931  1  0.34073100  0.20718400  0.05462200  1
  C  932  1  0.33258800  0.21271500  0.03795700  1
  C  933  1  0.31775500  0.20273300  0.03032600  1
  C  934  1  0.31115100  0.18721800  0.03997500  1
  C  935  1  0.31917700  0.18171900  0.05666600  1
  C  947  1  0.35722300  0.17249100  0.10690700  1
  C  948  1  0.37315200  0.18059900  0.11445100  1
  C  949  1  0.38163400  0.17288000  0.13010200  1
  C  950  1  0.37408000  0.15697400  0.13822700  1
  C  951  1  0.35818900  0.14873300  0.13075400  1
  C  952  1  0.34980200  0.15654300  0.11510300  1
  C  957  1  0.34219800  0.18569900  0.07896300  1
  C  958  1  0.34943500  0.17961200  0.09238700  1
  C  959  1  0.34499800  0.12090300  0.14596300  1
  C  960  1  0.35122200  0.13409800  0.13843700  1
  C  961  1  0.39625600  0.18051900  0.13714400  1
  C  962  1  0.40945100  0.18782900  0.14362200  1
  C  963  1  0.31091700  0.20657300  0.01296800  1
  C  964  1  0.46709000  0.22602400  0.17535500  1
  C  965  1  0.31494100  0.06338500  0.18562900  1
  C  966  1  0.31934600  0.07919500  0.15615100  1
  C  970  1  0.42349100  0.83342900  0.80076100  1
  C  971  1  0.33834300  0.92301400  0.79651500  1
  C  972  1  0.33414400  0.83833100  0.88739300  1
  C  973  1  0.32688400  0.93595000  0.80529700  1
  C  974  1  0.32300900  0.95278700  0.77630700  1
  C  975  1  0.33461500  0.93979000  0.76770000  1
  C  976  1  0.34224600  0.92511000  0.77765700  1
  C  977  1  0.43639300  0.84272400  0.78967200  1
  C  978  1  0.45115500  0.83308900  0.78169300  1
  C  979  1  0.45331200  0.81397300  0.78455500  1
  C  980  1  0.44034500  0.80484800  0.79579400  1
  C  981  1  0.42563600  0.81442800  0.80384400  1
  C  982  1  0.34071700  0.82270400  0.89680800  1
  C  983  1  0.33258600  0.81719000  0.91348400  1
  C  984  1  0.31775900  0.82718000  0.92111500  1
  C  985  1  0.31115200  0.84268900  0.91146000  1
  C  986  1  0.31917300  0.84817900  0.89476500  1
  C  998  1  0.35721800  0.85739100  0.84452200  1
  C  999  1  0.37314700  0.84928400  0.83697900  1
  C  1000  1  0.38162900  0.85700100  0.82132700  1
  C  1001  1  0.37407400  0.87290900  0.81320100  1
  C  1002  1  0.35818300  0.88115100  0.82067500  1
  C  1003  1  0.34979800  0.87334000  0.83632600  1
  C  1008  1  0.34219200  0.84418800  0.87246700  1
  C  1009  1  0.34943100  0.85027200  0.85904300  1
  C  1010  1  0.34499500  0.90898300  0.80547000  1
  C  1011  1  0.35121900  0.89578600  0.81299300  1
  C  1012  1  0.39625200  0.84936400  0.81428600  1
  C  1013  1  0.40944700  0.84205600  0.80780800  1
  C  1014  1  0.31090800  0.82332600  0.93846500  1
  C  1015  1  0.46709300  0.80386800  0.77608400  1
  C  1016  1  0.31491400  0.96649400  0.76581500  1
  C  1017  1  0.31932500  0.95068200  0.79528800  1
  C  1021  1  0.83865700  0.60481100  0.15821500  1
  C  1022  1  0.83390200  0.69131100  0.06927700  1
  C  1023  1  0.92449100  0.69520000  0.15373700  1
  C  1024  1  0.84299300  0.70268000  0.05647100  1
  C  1025  1  0.81429200  0.70692300  0.03921600  1
  C  1026  1  0.80537600  0.69539200  0.05207200  1
  C  1027  1  0.81503100  0.68763500  0.06689200  1
  C  1028  1  0.82295200  0.59562800  0.15148700  1
  C  1029  1  0.81733200  0.57882400  0.15928700  1
  C  1030  1  0.82728900  0.57082000  0.17393900  1
  C  1031  1  0.84288500  0.58023300  0.18069500  1
  C  1032  1  0.84846700  0.59706300  0.17302100  1
  C  1033  1  0.93402200  0.68887400  0.16939800  1
  C  1034  1  0.95075200  0.69707000  0.17465900  1
  C  1035  1  0.95834600  0.71171000  0.16437000  1
  C  1036  1  0.94859300  0.71805100  0.14880800  1
  C  1037  1  0.93182900  0.70998700  0.14358800  1
  C  1049  1  0.88127300  0.67223500  0.13526500  1
  C  1050  1  0.87354300  0.65645200  0.14349500  1
  C  1051  1  0.85775900  0.64810100  0.13588300  1
  C  1052  1  0.84975200  0.65561000  0.11988400  1
  C  1053  1  0.85740100  0.67135400  0.11150900  1
  C  1054  1  0.87314400  0.67962200  0.11926500  1
  C  1059  1  0.90946700  0.68711900  0.14814300  1
  C  1060  1  0.89593200  0.67990700  0.14226100  1
  C  1061  1  0.84257200  0.68455000  0.08345000  1
  C  1062  1  0.84986500  0.67827900  0.09676100  1
  C  1063  1  0.85070800  0.63343700  0.14349300  1
  C  1064  1  0.84459800  0.61988200  0.15047700  1
  C  1065  1  0.97575500  0.71858100  0.16795100  1
  C  1066  1  0.82340000  0.55331700  0.18038700  1
  C  1067  1  0.80408400  0.71512800  0.02534400  1
  C  1068  1  0.83328500  0.71037300  0.04160100  1
  C  1072  1  0.19125600  0.60481700  0.79320800  1
  C  1073  1  0.19600800  0.69130400  0.88216200  1
  C  1074  1  0.10542700  0.69520600  0.79769600  1
  C  1075  1  0.18691700  0.70269200  0.89495100  1
  C  1076  1  0.21561100  0.70693400  0.91221600  1
  C  1077  1  0.22452700  0.69538500  0.89937700  1
  C  1078  1  0.21487400  0.68761700  0.88456100  1
  C  1079  1  0.20696200  0.59563400  0.79992900  1
  C  1080  1  0.21257900  0.57882900  0.79212600  1
  C  1081  1  0.20260200  0.57081500  0.77749500  1
  C  1082  1  0.18699700  0.58022100  0.77075000  1
  C  1083  1  0.18141800  0.59705000  0.77843100  1
  C  1084  1  0.09590300  0.68888600  0.78202900  1
  C  1085  1  0.07916700  0.69707700  0.77677300  1
  C  1086  1  0.07157600  0.71172200  0.78705800  1
  C  1087  1  0.08133200  0.71806800  0.80261600  1
  C  1088  1  0.09809100  0.70999800  0.80784200  1
  C  1100  1  0.14864800  0.67224300  0.81616200  1
  C  1101  1  0.15638100  0.65646400  0.80792800  1
  C  1102  1  0.17216500  0.64811400  0.81553800  1
  C  1103  1  0.18017100  0.65561900  0.83153900  1
  C  1104  1  0.17251900  0.67136000  0.83991700  1
  C  1105  1  0.15677600  0.67962800  0.83216400  1
  C  1110  1  0.12045200  0.68712800  0.80328700  1
  C  1111  1  0.13398800  0.67991500  0.80916800  1
  C  1112  1  0.18734400  0.68454700  0.86798200  1
  C  1113  1  0.18005300  0.67828000  0.85466900  1
  C  1114  1  0.17921500  0.63344900  0.80792700  1
  C  1115  1  0.18532100  0.61989200  0.80094400  1
  C  1116  1  0.05416700  0.71859100  0.78347700  1
  C  1117  1  0.20650600  0.55332200  0.77102500  1
  C  1118  1  0.22581700  0.71516500  0.92607400  1
  C  1119  1  0.19662000  0.71038500  0.90982600  1
  C  1123  1  0.83865200  0.42507700  0.79321700  1
  C  1124  1  0.83390600  0.33858400  0.88216300  1
  C  1125  1  0.92449000  0.33468700  0.79770500  1
  C  1126  1  0.84300000  0.32719800  0.89495600  1
  C  1127  1  0.81430500  0.32295500  0.91222000  1
  C  1128  1  0.80538800  0.33450300  0.89937900  1
  C  1129  1  0.81504000  0.34226800  0.88456100  1
  C  1130  1  0.82294900  0.43426000  0.79994400  1
  C  1131  1  0.81733000  0.45106500  0.79214400  1
  C  1132  1  0.82728800  0.45906900  0.77749300  1
  C  1133  1  0.84288200  0.44965400  0.77073500  1
  C  1134  1  0.84847400  0.43283300  0.77842400  1
  C  1135  1  0.93401700  0.34100800  0.78204000  1
  C  1136  1  0.95075400  0.33281900  0.77678600  1
  C  1137  1  0.95835200  0.31818800  0.78708700  1
  C  1138  1  0.94860000  0.31184600  0.80264900  1
  C  1139  1  0.93184100  0.31991800  0.80787100  1
  C  1151  1  0.88126800  0.35765100  0.81616900  1
  C  1152  1  0.87353800  0.37343400  0.80793800  1
  C  1153  1  0.85775600  0.38178600  0.81555000  1
  C  1154  1  0.84975000  0.37428000  0.83154900  1
  C  1155  1  0.85739900  0.35853700  0.83992500  1
  C  1156  1  0.87314000  0.35026700  0.83216900  1
  C  1161  1  0.90946300  0.34276800  0.80329400  1
  C  1162  1  0.89592700  0.34997900  0.80917300  1
  C  1163  1  0.84257200  0.34534500  0.86798700  1
  C  1164  1  0.84986400  0.35161300  0.85467600  1
  C  1165  1  0.85070400  0.39645100  0.80793900  1
  C  1166  1  0.84459500  0.41000400  0.80095600  1
  C  1167  1  0.97575100  0.31129800  0.78349100  1
  C  1168  1  0.82339700  0.47657200  0.77104400  1
  C  1169  1  0.80409800  0.31472700  0.92607900  1
  C  1170  1  0.83329600  0.31950500  0.90982900  1
  C  1174  1  0.19125900  0.42508400  0.15822400  1
  C  1175  1  0.19602300  0.33858100  0.06928400  1
  C  1176  1  0.10543700  0.33468800  0.15374000  1
  C  1177  1  0.18692500  0.32721000  0.05648200  1
  C  1178  1  0.21562000  0.32296100  0.03922000  1
  C  1179  1  0.22454200  0.33449400  0.05207100  1
  C  1180  1  0.21489000  0.34226200  0.06688700  1
  C  1181  1  0.20696800  0.43426500  0.15150600  1
  C  1182  1  0.21258300  0.45107100  0.15930800  1
  C  1183  1  0.20260800  0.45908200  0.17394300  1
  C  1184  1  0.18701500  0.44966400  0.18070000  1
  C  1185  1  0.18143600  0.43283600  0.17301800  1
  C  1186  1  0.09590400  0.34101500  0.16939800  1
  C  1187  1  0.07917400  0.33281700  0.17466000  1
  C  1188  1  0.07158100  0.31817700  0.16437000  1
  C  1189  1  0.08133400  0.31183700  0.14880600  1
  C  1190  1  0.09809700  0.31990500  0.14358700  1
  C  1202  1  0.14865800  0.35765100  0.13527300  1
  C  1203  1  0.15638800  0.37343400  0.14350600  1
  C  1204  1  0.17217200  0.38178500  0.13589500  1
  C  1205  1  0.18017900  0.37427800  0.11989600  1
  C  1206  1  0.17252900  0.35853500  0.11151800  1
  C  1207  1  0.15678700  0.35026600  0.11927300  1
  C  1212  1  0.12046200  0.34276800  0.14814900  1
  C  1213  1  0.13399800  0.34997900  0.14226800  1
  C  1214  1  0.18735800  0.34534300  0.08346000  1
  C  1215  1  0.18006500  0.35161200  0.09677000  1
  C  1216  1  0.17922100  0.39645100  0.14350600  1
  C  1217  1  0.18532600  0.41000700  0.15048800  1
  C  1218  1  0.05417400  0.31130400  0.16795100  1
  C  1219  1  0.20651300  0.47657700  0.18040800  1
  C  1220  1  0.22582400  0.31474900  0.02534900  1
  C  1221  1  0.19662900  0.31951300  0.04161000  1
  C  1225  1  0.33206000  0.60477500  0.29975300  1
  C  1226  1  0.42092100  0.69113900  0.29513200  1
  C  1227  1  0.33649000  0.69526800  0.38570900  1
  C  1228  1  0.43367300  0.70262700  0.30414900  1
  C  1229  1  0.45095300  0.70668000  0.27544100  1
  C  1230  1  0.43814900  0.69503500  0.26659900  1
  C  1231  1  0.42334300  0.68730900  0.27629700  1
  C  1232  1  0.33885000  0.59567500  0.28402800  1
  C  1233  1  0.33113200  0.57885300  0.27834200  1
  C  1234  1  0.31649300  0.57076200  0.28824400  1
  C  1235  1  0.30966500  0.58009700  0.30385500  1
  C  1236  1  0.31728100  0.59692600  0.30952000  1
  C  1237  1  0.32085100  0.68898700  0.39530600  1
  C  1238  1  0.31566300  0.69721900  0.41204300  1
  C  1239  1  0.32599600  0.71186500  0.41957000  1
  C  1240  1  0.34151300  0.71818500  0.40973300  1
  C  1241  1  0.34667500  0.71006500  0.39297700  1
  C  1253  1  0.35488200  0.67220900  0.34250300  1
  C  1254  1  0.34664500  0.65643200  0.33476500  1
  C  1255  1  0.35426800  0.64807200  0.31899000  1
  C  1256  1  0.37028100  0.65556300  0.31100200  1
  C  1257  1  0.37866200  0.67129900  0.31865800  1
  C  1258  1  0.37089800  0.67957800  0.33439000  1
  C  1263  1  0.34202900  0.68714100  0.37068700  1
  C  1264  1  0.34788500  0.67989700  0.35715600  1
  C  1265  1  0.40674300  0.68443100  0.30382900  1
  C  1266  1  0.39342300  0.67820000  0.31113400  1
  C  1267  1  0.34666700  0.63341100  0.31192100  1
  C  1268  1  0.33972900  0.61985500  0.30576200  1
  C  1269  1  0.32249800  0.71876000  0.43699300  1
  C  1270  1  0.31009700  0.55325900  0.28426700  1
  C  1271  1  0.46478000  0.71488400  0.26517800  1
  C  1272  1  0.44854200  0.71027300  0.29440200  1
  C  1276  1  0.69785400  0.60478700  0.65168800  1
  C  1277  1  0.60899800  0.69115100  0.65630700  1
  C  1278  1  0.69342400  0.69526500  0.56571700  1
  C  1279  1  0.59622800  0.70261800  0.64728800  1
  C  1280  1  0.57896200  0.70667900  0.67600300  1
  C  1281  1  0.59177800  0.69504700  0.68484500  1
  C  1282  1  0.60658800  0.68733000  0.67514300  1
  C  1283  1  0.69104000  0.59567000  0.66739100  1
  C  1284  1  0.69877500  0.57886300  0.67309700  1
  C  1285  1  0.71342500  0.57077600  0.66320800  1
  C  1286  1  0.72026000  0.58011800  0.64760200  1
  C  1287  1  0.71265600  0.59695300  0.64194200  1
  C  1288  1  0.70905600  0.68897500  0.55611700  1
  C  1289  1  0.71424200  0.69720200  0.53937600  1
  C  1290  1  0.70393100  0.71186700  0.53185700  1
  C  1291  1  0.68839900  0.71817200  0.54168500  1
  C  1292  1  0.68323800  0.71005900  0.55844400  1
  C  1304  1  0.67502400  0.67221000  0.60892100  1
  C  1305  1  0.68325900  0.65643100  0.61665800  1
  C  1306  1  0.67563700  0.64807100  0.63243400  1
  C  1307  1  0.65962600  0.65556500  0.64042600  1
  C  1308  1  0.65124600  0.67130200  0.63276800  1
  C  1309  1  0.65901100  0.67958100  0.61703600  1
  C  1314  1  0.68788000  0.68714000  0.58073900  1
  C  1315  1  0.68202100  0.67989700  0.59426800  1
  C  1316  1  0.62317200  0.68444100  0.64760500  1
  C  1317  1  0.63648800  0.67820700  0.64029500  1
  C  1318  1  0.68323900  0.63341300  0.63950400  1
  C  1319  1  0.69018000  0.61985900  0.64566800  1
  C  1320  1  0.70741900  0.71875600  0.51443300  1
  C  1321  1  0.71980100  0.55326500  0.66717000  1
  C  1322  1  0.56512200  0.71486000  0.68626700  1
  C  1323  1  0.58136600  0.71026700  0.65703900  1
  C  1327  1  0.69786400  0.42511000  0.29975400  1
  C  1328  1  0.60901100  0.33873500  0.29511900  1
  C  1329  1  0.69344100  0.33462100  0.38570500  1
  C  1330  1  0.59624000  0.32727100  0.30413900  1
  C  1331  1  0.57897000  0.32321000  0.27542400  1
  C  1332  1  0.59178600  0.33484100  0.26658200  1
  C  1333  1  0.60659700  0.34255800  0.27628100  1
  C  1334  1  0.69106600  0.43422100  0.28403900  1
  C  1335  1  0.69879600  0.45103300  0.27834600  1
  C  1336  1  0.71343700  0.45912300  0.28825000  1
  C  1337  1  0.72026500  0.44978100  0.30385800  1
  C  1338  1  0.71265700  0.43294600  0.30951200  1
  C  1339  1  0.70906900  0.34091600  0.39531000  1
  C  1340  1  0.71426600  0.33267800  0.41204200  1
  C  1341  1  0.70394600  0.31802400  0.41956600  1
  C  1342  1  0.68842400  0.31170600  0.40973300  1
  C  1343  1  0.68325600  0.31982600  0.39297800  1
  C  1355  1  0.67503800  0.35767900  0.34250200  1
  C  1356  1  0.68327500  0.37345400  0.33476300  1
  C  1357  1  0.67565400  0.38181300  0.31898600  1
  C  1358  1  0.65964200  0.37432100  0.31099600  1
  C  1359  1  0.65126100  0.35858500  0.31865400  1
  C  1360  1  0.65902300  0.35030700  0.33438700  1
  C  1365  1  0.68789300  0.34274700  0.37068500  1
  C  1366  1  0.68203500  0.34999100  0.35715600  1
  C  1367  1  0.62318500  0.34544600  0.30381800  1
  C  1368  1  0.63650200  0.35168100  0.31112700  1
  C  1369  1  0.68325500  0.39647400  0.31191700  1
  C  1370  1  0.69019400  0.41003000  0.30576000  1
  C  1371  1  0.70742700  0.31114200  0.43699500  1
  C  1372  1  0.71983100  0.47662600  0.28427100  1
  C  1373  1  0.56512700  0.31503100  0.26516300  1
  C  1374  1  0.58137800  0.31962000  0.29438800  1
  C  1378  1  0.33205000  0.42511600  0.65168100  1
  C  1379  1  0.42090400  0.33874300  0.65630600  1
  C  1380  1  0.33647600  0.33462000  0.56572600  1
  C  1381  1  0.43365900  0.32726000  0.64728800  1
  C  1382  1  0.45094800  0.32321700  0.67599500  1
  C  1383  1  0.43813700  0.33485400  0.68483700  1
  C  1384  1  0.42332900  0.34257700  0.67513900  1
  C  1385  1  0.33884700  0.43422000  0.66740100  1
  C  1386  1  0.33111100  0.45102700  0.67310500  1
  C  1387  1  0.31647900  0.45912300  0.66319600  1
  C  1388  1  0.30964600  0.44978700  0.64758700  1
  C  1389  1  0.31726200  0.43295900  0.64192100  1
  C  1390  1  0.32084300  0.34090600  0.55612200  1
  C  1391  1  0.31566200  0.33268100  0.53938000  1
  C  1392  1  0.32599200  0.31803200  0.53185500  1
  C  1393  1  0.34151000  0.31171400  0.54169300  1
  C  1394  1  0.34666700  0.31982900  0.55845300  1
  C  1406  1  0.35487000  0.35768200  0.60893000  1
  C  1407  1  0.34663500  0.37346000  0.61666800  1
  C  1408  1  0.35425700  0.38181900  0.63244400  1
  C  1409  1  0.37027100  0.37432800  0.64043200  1
  C  1410  1  0.37865000  0.35859200  0.63277500  1
  C  1411  1  0.37088700  0.35031300  0.61704300  1
  C  1416  1  0.34201700  0.34275000  0.58074600  1
  C  1417  1  0.34787300  0.34999400  0.59427600  1
  C  1418  1  0.40672900  0.34545600  0.64760800  1
  C  1419  1  0.39341000  0.35168800  0.64030100  1
  C  1420  1  0.34665600  0.39648000  0.63951100  1
  C  1421  1  0.33971800  0.41003600  0.64567100  1
  C  1422  1  0.32249500  0.31113600  0.51443500  1
  C  1423  1  0.31008400  0.47662800  0.66717300  1
  C  1424  1  0.46477700  0.31501800  0.68625800  1
  C  1425  1  0.44852300  0.31960900  0.65703600  1
  C  1429  1  0.34049700  0.60685000  0.65713500  1
  C  1430  1  0.33615100  0.69193300  0.56766900  1
  C  1431  1  0.42711300  0.69620700  0.65243500  1
  C  1432  1  0.34487200  0.70337000  0.55467400  1
  C  1433  1  0.31582800  0.70713000  0.53790700  1
  C  1434  1  0.30728400  0.69553500  0.55095400  1
  C  1435  1  0.31729700  0.68797600  0.56563300  1
  C  1436  1  0.32928100  0.59405500  0.64784300  1
  C  1437  1  0.32125900  0.57930900  0.65746200  1
  C  1438  1  0.32421900  0.57705300  0.67655200  1
  C  1439  1  0.33558400  0.58991300  0.68567100  1
  C  1440  1  0.34368100  0.60460600  0.67610900  1
  C  1441  1  0.43653100  0.68958000  0.66803800  1
  C  1442  1  0.45320900  0.69769000  0.67358300  1
  C  1443  1  0.46085500  0.71253600  0.66363400  1
  C  1444  1  0.45120400  0.71918600  0.64813800  1
  C  1445  1  0.43449200  0.71120800  0.64263700  1
  C  1457  1  0.38425600  0.67316700  0.63328700  1
  C  1458  1  0.37672600  0.65722200  0.64137600  1
  C  1459  1  0.36108500  0.64873500  0.63364100  1
  C  1460  1  0.35295800  0.65629300  0.61773900  1
  C  1461  1  0.36041900  0.67219800  0.60951600  1
  C  1462  1  0.37605900  0.68059400  0.61734100  1
  C  1467  1  0.41218900  0.68818000  0.64654300  1
  C  1468  1  0.39877000  0.68095500  0.64042700  1
  C  1469  1  0.34515900  0.68534300  0.58169300  1
  C  1470  1  0.35272500  0.67915900  0.59488400  1
  C  1471  1  0.35405000  0.63410100  0.64125600  1
  C  1472  1  0.34756100  0.62089800  0.64853600  1
  C  1473  1  0.47824700  0.71931000  0.66744500  1
  C  1474  1  0.31567900  0.56331600  0.68665300  1
  C  1475  1  0.30528500  0.71514300  0.52419000  1
  C  1476  1  0.33480400  0.71086600  0.53994900  1
  C  1480  1  0.68942300  0.60685300  0.29429200  1
  C  1481  1  0.69375500  0.69192300  0.38376900  1
  C  1482  1  0.60279000  0.69619400  0.29900600  1
  C  1483  1  0.68503500  0.70337700  0.39675200  1
  C  1484  1  0.71407800  0.70714200  0.41352100  1
  C  1485  1  0.72262100  0.69553200  0.40048700  1
  C  1486  1  0.71260700  0.68796100  0.38581200  1
  C  1487  1  0.70062500  0.59404800  0.30358600  1
  C  1488  1  0.70864400  0.57929900  0.29396700  1
  C  1489  1  0.70570200  0.57705800  0.27487100  1
  C  1490  1  0.69435300  0.58993200  0.26574900  1
  C  1491  1  0.68626400  0.60462600  0.27531300  1
  C  1492  1  0.59337900  0.68957000  0.28339800  1
  C  1493  1  0.57669700  0.69767500  0.27785700  1
  C  1494  1  0.56905500  0.71252900  0.28779900  1
  C  1495  1  0.57871000  0.71918600  0.30328800  1
  C  1496  1  0.59541800  0.71120100  0.30879700  1
  C  1508  1  0.64565100  0.67315700  0.31815100  1
  C  1509  1  0.65318300  0.65721400  0.31006100  1
  C  1510  1  0.66882300  0.64872600  0.31779600  1
  C  1511  1  0.67695200  0.65628600  0.33369700  1
  C  1512  1  0.66948900  0.67219000  0.34192100  1
  C  1513  1  0.65384800  0.68058400  0.33409600  1
  C  1518  1  0.61771700  0.68816800  0.30489700  1
  C  1519  1  0.63113800  0.68094500  0.31101100  1
  C  1520  1  0.68474900  0.68533400  0.36974400  1
  C  1521  1  0.67718400  0.67914900  0.35655200  1
  C  1522  1  0.67586100  0.63409500  0.31017700  1
  C  1523  1  0.68235300  0.62089500  0.30289400  1
  C  1524  1  0.55166300  0.71930300  0.28398700  1
  C  1525  1  0.71422000  0.56330600  0.26477200  1
  C  1526  1  0.72462000  0.71517600  0.42722500  1
  C  1527  1  0.69510200  0.71088100  0.41147200  1
  C  1531  1  0.34050300  0.42303200  0.29429500  1
  C  1532  1  0.33616000  0.33795700  0.38376700  1
  C  1533  1  0.42712400  0.33367600  0.29900600  1
  C  1534  1  0.34487900  0.32650700  0.39675200  1
  C  1535  1  0.31583800  0.32274800  0.41352200  1
  C  1536  1  0.30729500  0.33435600  0.40048600  1
  C  1537  1  0.31731000  0.34192200  0.38580900  1
  C  1538  1  0.32928700  0.43582600  0.30358700  1
  C  1539  1  0.32126700  0.45057700  0.29396900  1
  C  1540  1  0.32422400  0.45283100  0.27487900  1
  C  1541  1  0.33558600  0.43996800  0.26575900  1
  C  1542  1  0.34367400  0.42527100  0.27532000  1
  C  1543  1  0.43653800  0.34029800  0.28339900  1
  C  1544  1  0.45322100  0.33219600  0.27786200  1
  C  1545  1  0.46087200  0.31735800  0.28782100  1
  C  1546  1  0.45122100  0.31070400  0.30331400  1
  C  1547  1  0.43451300  0.31869100  0.30881900  1
  C  1559  1  0.38426200  0.35671500  0.31814400  1
  C  1560  1  0.37673000  0.37265900  0.31005400  1
  C  1561  1  0.36109100  0.38114800  0.31778900  1
  C  1562  1  0.35296500  0.37359100  0.33369300  1
  C  1563  1  0.36042600  0.35768600  0.34191700  1
  C  1564  1  0.37606500  0.34929000  0.33409100  1
  C  1569  1  0.41219500  0.34170100  0.30489300  1
  C  1570  1  0.39877500  0.34892600  0.31100600  1
  C  1571  1  0.34516700  0.34454500  0.36974100  1
  C  1572  1  0.35273200  0.35072800  0.35654800  1
  C  1573  1  0.35405800  0.39578200  0.31017400  1
  C  1574  1  0.34756800  0.40898600  0.30289300  1
  C  1575  1  0.47825400  0.31056600  0.28399500  1
  C  1576  1  0.31568700  0.46656900  0.26478000  1
  C  1577  1  0.30529400  0.31471400  0.42722700  1
  C  1578  1  0.33481400  0.31901300  0.41147900  1
  C  1582  1  0.68941500  0.42304200  0.65713200  1
  C  1583  1  0.69375800  0.33795800  0.56766900  1
  C  1584  1  0.60279000  0.33369100  0.65243100  1
  C  1585  1  0.68503800  0.32651800  0.55467500  1
  C  1586  1  0.71408400  0.32275500  0.53791200  1
  C  1587  1  0.72262700  0.33435300  0.55095600  1
  C  1588  1  0.71261000  0.34192100  0.56562900  1
  C  1589  1  0.70062300  0.43584200  0.64783900  1
  C  1590  1  0.70864700  0.45058800  0.65745800  1
  C  1591  1  0.70570000  0.45283400  0.67655200  1
  C  1592  1  0.69433600  0.43997300  0.68567100  1
  C  1593  1  0.68624300  0.42527900  0.67610900  1
  C  1594  1  0.59337200  0.34032300  0.66803100  1
  C  1595  1  0.57669700  0.33221100  0.67357800  1
  C  1596  1  0.56905000  0.31736200  0.66363100  1
  C  1597  1  0.57869900  0.31071200  0.64813500  1
  C  1598  1  0.59541000  0.31869300  0.64263200  1
  C  1610  1  0.64565000  0.35673000  0.63328300  1
  C  1611  1  0.65317900  0.37267400  0.64136900  1
  C  1612  1  0.66881900  0.38116200  0.63363400  1
  C  1613  1  0.67694700  0.37360200  0.61773300  1
  C  1614  1  0.66948600  0.35769600  0.60951200  1
  C  1615  1  0.65384600  0.34930200  0.61733700  1
  C  1620  1  0.61771700  0.34171700  0.64653900  1
  C  1621  1  0.63113700  0.34894100  0.64042300  1
  C  1622  1  0.68474800  0.34454900  0.58169200  1
  C  1623  1  0.67718200  0.35073500  0.59488200  1
  C  1624  1  0.67585500  0.39579600  0.64125100  1
  C  1625  1  0.68234700  0.40899800  0.64853200  1
  C  1626  1  0.55165900  0.31058700  0.66744500  1
  C  1627  1  0.71423300  0.46657800  0.68665000  1
  C  1628  1  0.72462700  0.31473400  0.52419900  1
  C  1629  1  0.69510700  0.31902000  0.53995400  1
  C  1633  1  0.80122600  0.03084000  0.68834700  1
  C  1634  1  0.78705900  0.02917800  0.70150100  1
  C  1635  1  0.78126600  0.01173000  0.70787800  1
  C  1636  1  0.78959300  0.99588400  0.70048500  1
  C  1637  1  0.80340600  0.99712200  0.68689300  1
  C  1638  1  0.80920700  0.01466100  0.68112700  1
  C  1645  1  0.22867800  0.99905900  0.68834800  1
  C  1646  1  0.24285200  0.00071900  0.70149400  1
  C  1647  1  0.24864100  0.01816500  0.70787900  1
  C  1648  1  0.24031900  0.03401200  0.70048500  1
  C  1649  1  0.22650600  0.03277700  0.68689200  1
  C  1650  1  0.22070600  0.01524000  0.68112200  1
  C  1657  1  0.80123600  0.99904800  0.26308000  1
  C  1658  1  0.78707000  0.00071100  0.24992600  1
  C  1659  1  0.78127500  0.01816000  0.24355100  1
  C  1660  1  0.78960100  0.03400600  0.25094600  1
  C  1661  1  0.80341200  0.03276600  0.26454000  1
  C  1662  1  0.80921500  0.01522900  0.27030300  1
  C  1669  1  0.22868300  0.03084200  0.26308600  1
  C  1670  1  0.24285600  0.02918100  0.24994000  1
  C  1671  1  0.24864500  0.01173300  0.24355600  1
  C  1672  1  0.24032100  0.99588600  0.25095200  1
  C  1673  1  0.22651000  0.99712500  0.26454500  1
  C  1674  1  0.22071100  0.01466200  0.27031300  1
  C  1681  1  0.03151100  0.72751600  0.76210900  1
  C  1682  1  0.03002000  0.74068100  0.74793900  1
  C  1683  1  0.01265000  0.74714100  0.74201200  1
  C  1684  1  0.99670100  0.73981600  0.75021200  1
  C  1685  1  0.99777100  0.72621200  0.76403300  1
  C  1686  1  0.01523900  0.72036500  0.76996400  1
  C  1693  1  0.99841200  0.72750800  0.18931900  1
  C  1694  1  0.99990000  0.74066400  0.20349700  1
  C  1695  1  0.01727000  0.74713200  0.20941600  1
  C  1696  1  0.03321900  0.73980800  0.20121800  1
  C  1697  1  0.03215200  0.72620600  0.18739700  1
  C  1698  1  0.01468400  0.72035300  0.18146900  1
  C  1705  1  0.99840600  0.30239500  0.76211400  1
  C  1706  1  0.99989200  0.28923100  0.74794400  1
  C  1707  1  0.01725800  0.28276500  0.74201800  1
  C  1708  1  0.03320900  0.29008500  0.75021900  1
  C  1709  1  0.03214500  0.30368800  0.76404000  1
  C  1710  1  0.01467900  0.30954000  0.76997100  1
  C  1717  1  0.03151700  0.30237900  0.18931600  1
  C  1718  1  0.03002700  0.28922200  0.20349400  1
  C  1719  1  0.01265600  0.28275400  0.20941400  1
  C  1720  1  0.99670900  0.29008200  0.20121500  1
  C  1721  1  0.99777600  0.30368400  0.18739500  1
  C  1722  1  0.01524500  0.30953500  0.18146800  1
  C  1729  1  0.72759000  0.80159400  0.99056600  1
  C  1730  1  0.74073200  0.78739200  0.98926500  1
  C  1731  1  0.74714400  0.78120300  0.97197300  1
  C  1732  1  0.73978100  0.78916700  0.95591800  1
  C  1733  1  0.72619200  0.80302000  0.95681000  1
  C  1734  1  0.72040200  0.80921900  0.97420500  1
  C  1741  1  0.72759700  0.22829200  0.96086100  1
  C  1742  1  0.74073100  0.24250200  0.96216500  1
  C  1743  1  0.74714400  0.24868600  0.97945900  1
  C  1744  1  0.73977100  0.24072800  0.99551300  1
  C  1745  1  0.72618300  0.22687400  0.99461700  1
  C  1746  1  0.72039700  0.22067600  0.97722000  1
  C  1753  1  0.30232300  0.80159400  0.96086400  1
  C  1754  1  0.28917800  0.78739600  0.96216600  1
  C  1755  1  0.28276600  0.78120600  0.97945800  1
  C  1756  1  0.29013300  0.78916900  0.99551300  1
  C  1757  1  0.30372500  0.80301900  0.99462000  1
  C  1758  1  0.30951200  0.80921900  0.97722400  1
  C  1765  1  0.30231400  0.22829700  0.99056700  1
  C  1766  1  0.28917900  0.24250500  0.98926400  1
  C  1767  1  0.28276200  0.24868800  0.97197100  1
  C  1768  1  0.29013200  0.24072900  0.95591600  1
  C  1769  1  0.30372200  0.22687600  0.95681000  1
  C  1770  1  0.30951100  0.22068000  0.97420700  1
  C  1777  1  0.02917200  0.80154000  0.26294300  1
  C  1778  1  0.02769800  0.78733900  0.24981200  1
  C  1779  1  0.01032400  0.78122300  0.24354500  1
  C  1780  1  0.99436900  0.78926100  0.25103700  1
  C  1781  1  0.99543400  0.80310700  0.26461600  1
  C  1782  1  0.01290000  0.80923300  0.27026300  1
  C  1789  1  0.00075600  0.22834300  0.26293600  1
  C  1790  1  0.00222900  0.24255300  0.24981400  1
  C  1791  1  0.01960300  0.24866200  0.24353900  1
  C  1792  1  0.03555800  0.24062500  0.25103100  1
  C  1793  1  0.03449500  0.22678000  0.26461100  1
  C  1794  1  0.01702800  0.22065600  0.27026100  1
  C  1801  1  0.00075300  0.80155100  0.68848700  1
  C  1802  1  0.00222300  0.78734900  0.70161600  1
  C  1803  1  0.01959700  0.78123500  0.70788700  1
  C  1804  1  0.03555300  0.78927200  0.70040000  1
  C  1805  1  0.03449000  0.80311900  0.68682000  1
  C  1806  1  0.01702600  0.80924600  0.68117000  1
  C  1813  1  0.02915700  0.22835300  0.68849800  1
  C  1814  1  0.02768300  0.24256300  0.70161900  1
  C  1815  1  0.01030900  0.24867300  0.70789300  1
  C  1816  1  0.99435300  0.24063600  0.70040000  1
  C  1817  1  0.99541800  0.22679000  0.68682200  1
  C  1818  1  0.01288500  0.22066600  0.68117100  1
  C  1825  1  0.72763000  0.03084100  0.18937400  1
  C  1826  1  0.74078100  0.02918800  0.20354400  1
  C  1827  1  0.74710300  0.01174100  0.20939900  1
  C  1828  1  0.73966000  0.99588900  0.20112700  1
  C  1829  1  0.72606800  0.99712100  0.18731400  1
  C  1830  1  0.72035500  0.01465600  0.18145300  1
  C  1837  1  0.72762700  0.99904600  0.76205900  1
  C  1838  1  0.74077000  0.00069900  0.74788100  1
  C  1839  1  0.74709500  0.01814600  0.74203000  1
  C  1840  1  0.73964700  0.03399900  0.75029700  1
  C  1841  1  0.72605500  0.03276600  0.76411000  1
  C  1842  1  0.72034300  0.01523100  0.76997100  1
  C  1849  1  0.30228700  0.99904300  0.18938000  1
  C  1850  1  0.28913600  0.00070000  0.20355000  1
  C  1851  1  0.28281600  0.01814900  0.20940400  1
  C  1852  1  0.29026300  0.03399900  0.20113400  1
  C  1853  1  0.30385600  0.03276500  0.18732100  1
  C  1854  1  0.30956400  0.01522800  0.18145900  1
  C  1861  1  0.30228300  0.03084400  0.76206100  1
  C  1862  1  0.28913700  0.02919100  0.74788500  1
  C  1863  1  0.28281300  0.01174300  0.74203100  1
  C  1864  1  0.29026000  0.99589200  0.75029800  1
  C  1865  1  0.30385200  0.99712300  0.76411300  1
  C  1866  1  0.30956600  0.01465900  0.76997200  1
  C  1873  1  0.80165000  0.72765700  0.96087000  1
  C  1874  1  0.78744100  0.74079300  0.96216800  1
  C  1875  1  0.78118500  0.74713600  0.97946100  1
  C  1876  1  0.78908900  0.73971300  0.99551900  1
  C  1877  1  0.80294900  0.72613000  0.99462700  1
  C  1878  1  0.80921400  0.72040800  0.97723200  1
  C  1885  1  0.22826300  0.72765900  0.99055600  1
  C  1886  1  0.24247700  0.74078800  0.98926000  1
  C  1887  1  0.24872100  0.74714700  0.97196800  1
  C  1888  1  0.24081700  0.73972500  0.95591100  1
  C  1889  1  0.22696000  0.72613900  0.95680000  1
  C  1890  1  0.22070300  0.72040800  0.97419400  1
  C  1897  1  0.80165100  0.30223300  0.99056000  1
  C  1898  1  0.78744500  0.28909600  0.98926400  1
  C  1899  1  0.78119300  0.28274400  0.97197200  1
  C  1900  1  0.78910100  0.29016300  0.95591400  1
  C  1901  1  0.80295800  0.30374800  0.95680300  1
  C  1902  1  0.80921800  0.30947700  0.97419700  1
  C  1909  1  0.22825700  0.30223800  0.96087500  1
  C  1910  1  0.24246800  0.28910500  0.96217000  1
  C  1911  1  0.24870900  0.28274300  0.97946100  1
  C  1912  1  0.24080300  0.29016200  0.99552000  1
  C  1913  1  0.22695100  0.30375100  0.99463100  1
  C  1914  1  0.22069800  0.30948800  0.97723800  1
  C  1921  1  0.52912200  0.72774800  0.26234900  1
  C  1922  1  0.52764700  0.74089800  0.24816600  1
  C  1923  1  0.51027300  0.74718900  0.24207500  1
  C  1924  1  0.49431900  0.73970200  0.25011600  1
  C  1925  1  0.49538400  0.72609800  0.26393700  1
  C  1926  1  0.51285000  0.72042700  0.27004300  1
  C  1933  1  0.50078900  0.72775900  0.68908000  1
  C  1934  1  0.50226500  0.74090100  0.70327100  1
  C  1935  1  0.51964100  0.74719500  0.70935600  1
  C  1936  1  0.53559400  0.73970300  0.70131900  1
  C  1937  1  0.53452700  0.72609800  0.68749900  1
  C  1938  1  0.51706000  0.72042800  0.68139400  1
  C  1945  1  0.50079500  0.30214200  0.26235100  1
  C  1946  1  0.50226700  0.28899100  0.24816900  1
  C  1947  1  0.51964100  0.28270000  0.24207800  1
  C  1948  1  0.53559600  0.29018800  0.25011600  1
  C  1949  1  0.53453200  0.30379400  0.26393700  1
  C  1950  1  0.51706600  0.30946200  0.27004400  1
  C  1957  1  0.52911700  0.30214100  0.68908000  1
  C  1958  1  0.52764300  0.28900000  0.70326900  1
  C  1959  1  0.51026700  0.28270300  0.70935500  1
  C  1960  1  0.49431400  0.29019400  0.70131700  1
  C  1961  1  0.49537900  0.30379900  0.68749700  1
  C  1962  1  0.51284600  0.30947000  0.68139400  1
  C  1969  1  0.22801600  0.80163700  0.49158300  1
  C  1970  1  0.24117800  0.78747400  0.48996700  1
  C  1971  1  0.24715100  0.78125300  0.47252500  1
  C  1972  1  0.23935200  0.78915000  0.45665500  1
  C  1973  1  0.22572700  0.80293500  0.45786300  1
  C  1974  1  0.22036400  0.80916400  0.47538300  1
  C  1981  1  0.22800700  0.22825700  0.45986100  1
  C  1982  1  0.24116300  0.24242800  0.46147100  1
  C  1983  1  0.24714400  0.24864400  0.47891200  1
  C  1984  1  0.23934400  0.24075100  0.49478400  1
  C  1985  1  0.22571800  0.22696700  0.49358100  1
  C  1986  1  0.22035000  0.22074000  0.47606100  1
  C  1993  1  0.80190400  0.80163800  0.45985100  1
  C  1994  1  0.78874000  0.78747600  0.46146500  1
  C  1995  1  0.78276600  0.78125400  0.47890800  1
  C  1996  1  0.79056500  0.78915200  0.49477800  1
  C  1997  1  0.80419100  0.80293600  0.49357100  1
  C  1998  1  0.80955400  0.80916500  0.47605100  1
  C  2005  1  0.80190500  0.22824700  0.49157600  1
  C  2006  1  0.78875100  0.24241900  0.48996700  1
  C  2007  1  0.78276900  0.24863600  0.47252600  1
  C  2008  1  0.79056700  0.24074300  0.45665200  1
  C  2009  1  0.80419200  0.22695800  0.45785600  1
  C  2010  1  0.80956100  0.22072900  0.47537500  1
  C  2017  1  0.53146900  0.80169600  0.76282000  1
  C  2018  1  0.53002800  0.78753300  0.74964400  1
  C  2019  1  0.51266500  0.78123700  0.74352500  1
  C  2020  1  0.49669300  0.78906000  0.75119900  1
  C  2021  1  0.49772800  0.80285200  0.76483500  1
  C  2022  1  0.51517900  0.80915500  0.77034100  1
  C  2029  1  0.49844000  0.22819700  0.76281400  1
  C  2030  1  0.49988200  0.24237000  0.74964600  1
  C  2031  1  0.51724400  0.24866000  0.74352200  1
  C  2032  1  0.53321700  0.24083900  0.75119900  1
  C  2033  1  0.53218200  0.22704700  0.76483500  1
  C  2034  1  0.51473100  0.22074700  0.77034300  1
  C  2041  1  0.49844900  0.80169400  0.18861400  1
  C  2042  1  0.49989000  0.78752900  0.20178900  1
  C  2043  1  0.51725200  0.78123100  0.20790800  1
  C  2044  1  0.53322400  0.78905300  0.20023400  1
  C  2045  1  0.53219000  0.80284600  0.18659900  1
  C  2046  1  0.51474100  0.80915100  0.18109400  1
  C  2053  1  0.53146700  0.22819300  0.18862100  1
  C  2054  1  0.53002400  0.24236400  0.20178900  1
  C  2055  1  0.51266100  0.24865500  0.20791200  1
  C  2056  1  0.49669000  0.24083400  0.20023500  1
  C  2057  1  0.49772500  0.22704100  0.18659900  1
  C  2058  1  0.51517600  0.22074100  0.18109300  1
  C  2065  1  0.30130400  0.72759900  0.45984000  1
  C  2066  1  0.28715900  0.74077700  0.46150500  1
  C  2067  1  0.28139500  0.74717800  0.47895500  1
  C  2068  1  0.28972500  0.73978600  0.49479800  1
  C  2069  1  0.30350800  0.72616200  0.49355600  1
  C  2070  1  0.30928400  0.72037500  0.47601700  1
  C  2077  1  0.72860900  0.72760600  0.49158600  1
  C  2078  1  0.74276200  0.74077400  0.48992200  1
  C  2079  1  0.74852200  0.74718200  0.47247400  1
  C  2080  1  0.74019300  0.73979100  0.45662900  1
  C  2081  1  0.72640900  0.72617000  0.45786900  1
  C  2082  1  0.72063400  0.72037800  0.47540600  1
  C  2089  1  0.30129900  0.30229700  0.49158700  1
  C  2090  1  0.28715200  0.28912100  0.48992500  1
  C  2091  1  0.28138800  0.28271600  0.47247500  1
  C  2092  1  0.28972000  0.29010400  0.45663000  1
  C  2093  1  0.30350500  0.30372500  0.45787000  1
  C  2094  1  0.30928100  0.30951600  0.47540700  1
  C  2101  1  0.72861400  0.30228400  0.45984600  1
  C  2102  1  0.74276700  0.28911600  0.46151200  1
  C  2103  1  0.74852600  0.28270800  0.47896200  1
  C  2104  1  0.74019600  0.29010400  0.49480500  1
  C  2105  1  0.72641200  0.30372500  0.49356100  1
  C  2106  1  0.72063900  0.30951600  0.47602400  1
  C  2113  1  0.80168600  0.53078000  0.18873200  1
  C  2114  1  0.78754600  0.52915700  0.20192000  1
  C  2115  1  0.78141300  0.51171000  0.20797400  1
  C  2116  1  0.78937100  0.49584400  0.20022800  1
  C  2117  1  0.80312600  0.49706000  0.18657400  1
  C  2118  1  0.80927100  0.51458500  0.18113300  1
  C  2125  1  0.22823100  0.49911000  0.18873500  1
  C  2126  1  0.24237500  0.50073200  0.20191800  1
  C  2127  1  0.24850900  0.51817800  0.20797500  1
  C  2128  1  0.24055600  0.53404500  0.20022700  1
  C  2129  1  0.22680000  0.53283100  0.18657300  1
  C  2130  1  0.22065400  0.51530800  0.18112900  1
  C  2137  1  0.80168400  0.49910700  0.76270000  1
  C  2138  1  0.78754600  0.50073300  0.74951200  1
  C  2139  1  0.78141200  0.51817900  0.74345800  1
  C  2140  1  0.78936700  0.53404400  0.75120600  1
  C  2141  1  0.80312100  0.53282800  0.76486100  1
  C  2142  1  0.80926900  0.51530300  0.77030100  1
  C  2149  1  0.22822400  0.53078600  0.76270300  1
  C  2150  1  0.24236800  0.52916400  0.74952000  1
  C  2151  1  0.24849900  0.51171700  0.74346200  1
  C  2152  1  0.24054600  0.49585100  0.75121000  1
  C  2153  1  0.22679100  0.49706600  0.76486500  1
  C  2154  1  0.22064700  0.51458900  0.77031000  1
  C  2161  1  0.72806200  0.53078600  0.68897400  1
  C  2162  1  0.74124800  0.52917100  0.70311600  1
  C  2163  1  0.74724400  0.51172700  0.70931400  1
  C  2164  1  0.73944400  0.49585800  0.70141600  1
  C  2165  1  0.72578900  0.49706700  0.68766100  1
  C  2166  1  0.72040500  0.51458800  0.68145100  1
  C  2173  1  0.72806700  0.49910300  0.26246100  1
  C  2174  1  0.74124400  0.50071700  0.24831200  1
  C  2175  1  0.74724600  0.51816100  0.24211900  1
  C  2176  1  0.73944300  0.53403000  0.25001300  1
  C  2177  1  0.72578900  0.53282100  0.26376800  1
  C  2178  1  0.72040300  0.51530200  0.26997600  1
  C  2185  1  0.30184900  0.49910700  0.68898100  1
  C  2186  1  0.28866300  0.50072400  0.70312200  1
  C  2187  1  0.28266700  0.51816800  0.70931900  1
  C  2188  1  0.29046900  0.53403500  0.70142100  1
  C  2189  1  0.30412400  0.53282600  0.68766700  1
  C  2190  1  0.30950800  0.51530400  0.68146000  1
  C  2197  1  0.30185900  0.53078200  0.26245800  1
  C  2198  1  0.28868000  0.52916700  0.24831000  1
  C  2199  1  0.28267600  0.51172400  0.24211800  1
  C  2200  1  0.29047900  0.49585400  0.25001300  1
  C  2201  1  0.30413600  0.49706200  0.26376700  1
  C  2202  1  0.30952300  0.51458300  0.26997300  1
  C  2209  1  0.63458100  0.62761300  0.36169500  1
  C  2210  1  0.63019300  0.71711000  0.44675700  1
  C  2211  1  0.72117600  0.63234300  0.45105100  1
  C  2212  1  0.63890200  0.73009800  0.45821300  1
  C  2213  1  0.60985400  0.74686000  0.46195800  1
  C  2214  1  0.60131900  0.73381700  0.45035300  1
  C  2215  1  0.61134200  0.71914500  0.44279000  1
  C  2216  1  0.62338900  0.63689200  0.34887000  1
  C  2217  1  0.61537900  0.62725700  0.33412600  1
  C  2218  1  0.61833600  0.60816300  0.33189700  1
  C  2219  1  0.62968100  0.59905800  0.34478600  1
  C  2220  1  0.63774700  0.60863300  0.35948600  1
  C  2221  1  0.73057700  0.61672800  0.44443000  1
  C  2222  1  0.74725900  0.61118200  0.45253100  1
  C  2223  1  0.75491600  0.62113200  0.46737300  1
  C  2224  1  0.74526600  0.63662100  0.47403600  1
  C  2225  1  0.72856000  0.64213500  0.46605300  1
  C  2237  1  0.67831300  0.65149200  0.42801600  1
  C  2238  1  0.67078600  0.64340200  0.41207100  1
  C  2239  1  0.65514700  0.65113400  0.40357900  1
  C  2240  1  0.64701600  0.66703500  0.41113500  1
  C  2241  1  0.65447200  0.67526000  0.42704300  1
  C  2242  1  0.67011200  0.66743700  0.43544000  1
  C  2247  1  0.70624700  0.63823800  0.44302900  1
  C  2248  1  0.69282700  0.64435500  0.43580700  1
  C  2249  1  0.63920500  0.70308400  0.44017600  1
  C  2250  1  0.64677500  0.68989100  0.43399900  1
  C  2251  1  0.64811600  0.64351500  0.38894400  1
  C  2252  1  0.64163400  0.63622500  0.37574000  1
  C  2253  1  0.77230100  0.61729600  0.47415300  1
  C  2254  1  0.60983700  0.59804900  0.31814300  1
  C  2255  1  0.59930000  0.76055900  0.46999000  1
  C  2256  1  0.62883100  0.74482700  0.46569600  1
  C  2260  1  0.98349560  0.99045959  0.36170200  1
  C  2261  1  0.98789960  0.90097760  0.44677800  1
  C  2262  1  0.89690600  0.98573860  0.45105800  1
  C  2263  1  0.97918460  0.88797300  0.45821200  1
  C  2264  1  0.00824000  0.87121900  0.46196200  1
  C  2265  1  0.01677600  0.88427600  0.45037300  1
  C  2266  1  0.00675300  0.89895300  0.44282000  1
  C  2267  1  0.99470661  0.98118260  0.34889200  1
  C  2268  1  0.00270600  0.99081259  0.33413900  1
  C  2269  1  0.99974161  0.00990400  0.33190300  1
  C  2270  1  0.98839060  0.01901100  0.34478500  1
  C  2271  1  0.98031360  0.00943600  0.35947900  1
  C  2272  1  0.88750300  0.00135200  0.44443200  1
  C  2273  1  0.87081700  0.00689400  0.45252400  1
  C  2274  1  0.86316700  0.99695959  0.46737900  1
  C  2275  1  0.87280400  0.98145660  0.47402800  1
  C  2276  1  0.88951000  0.97593860  0.46604800  1
  C  2288  1  0.93977060  0.96658760  0.42803000  1
  C  2289  1  0.94729760  0.97467660  0.41208500  1
  C  2290  1  0.96293860  0.96694660  0.40359400  1
  C  2291  1  0.97106960  0.95104660  0.41115300  1
  C  2292  1  0.96361260  0.94282260  0.42705900  1
  C  2293  1  0.94797160  0.95064460  0.43545500  1
  C  2298  1  0.91183460  0.97984260  0.44304000  1
  C  2299  1  0.92525660  0.97372560  0.43581900  1
  C  2300  1  0.97888260  0.91500060  0.44019700  1
  C  2301  1  0.97131160  0.92819160  0.43401600  1
  C  2302  1  0.96996660  0.97456460  0.38895700  1
  C  2303  1  0.97644660  0.98185060  0.37575200  1
  C  2304  1  0.84577800  0.00078800  0.47415300  1
  C  2305  1  0.00826000  0.02001800  0.31816100  1
  C  2306  1  0.01879100  0.85750700  0.46997300  1
  C  2307  1  0.98925960  0.87324600  0.46569500  1
  C  2311  1  0.63457900  0.99045259  0.17789400  1
  C  2312  1  0.63018800  0.90096260  0.09282400  1
  C  2313  1  0.72117400  0.98573260  0.08854200  1
  C  2314  1  0.63889900  0.88795900  0.08138800  1
  C  2315  1  0.60984600  0.87120600  0.07763900  1
  C  2316  1  0.60131200  0.88426000  0.08923200  1
  C  2317  1  0.61133400  0.89893700  0.09678600  1
  C  2318  1  0.62338600  0.98117360  0.19071800  1
  C  2319  1  0.61538000  0.99080659  0.20546600  1
  C  2320  1  0.61833000  0.00990200  0.20768900  1
  C  2321  1  0.62967300  0.01900900  0.19480000  1
  C  2322  1  0.63774900  0.00943200  0.18010600  1
  C  2323  1  0.73057900  0.00134100  0.09517400  1
  C  2324  1  0.74725500  0.00689800  0.08706800  1
  C  2325  1  0.75491100  0.99695559  0.07221900  1
  C  2326  1  0.74526900  0.98145860  0.06556100  1
  C  2327  1  0.72856900  0.97593360  0.07355100  1
  C  2339  1  0.67831700  0.96657160  0.11157700  1
  C  2340  1  0.67078900  0.97466060  0.12752400  1
  C  2341  1  0.65515000  0.96692960  0.13601500  1
  C  2342  1  0.64701900  0.95102860  0.12845600  1
  C  2343  1  0.65447500  0.94280460  0.11254900  1
  C  2344  1  0.67011500  0.95062760  0.10415200  1
  C  2349  1  0.70624800  0.97983060  0.09656500  1
  C  2350  1  0.69282900  0.97371060  0.10378700  1
  C  2351  1  0.63920400  0.91498560  0.09940800  1
  C  2352  1  0.64677500  0.92817560  0.10558900  1
  C  2353  1  0.64811700  0.97454960  0.15064800  1
  C  2354  1  0.64163400  0.98183960  0.16385100  1
  C  2355  1  0.77230300  0.00077900  0.06545200  1
  C  2356  1  0.60982600  0.02001500  0.22144100  1
  C  2357  1  0.59929500  0.85749300  0.06962900  1
  C  2358  1  0.62882500  0.87323600  0.07390200  1
  C  2362  1  0.98350660  0.62760900  0.17789800  1
  C  2363  1  0.98789660  0.71709900  0.09282600  1
  C  2364  1  0.89692200  0.63232700  0.08853100  1
  C  2365  1  0.97918660  0.73009000  0.08137500  1
  C  2366  1  0.00823200  0.74686100  0.07764100  1
  C  2367  1  0.01676900  0.73381000  0.08923700  1
  C  2368  1  0.00674800  0.71913600  0.09679700  1
  C  2369  1  0.99470161  0.63688900  0.19072000  1
  C  2370  1  0.00269900  0.62725800  0.20547400  1
  C  2371  1  0.99974561  0.60816300  0.20770000  1
  C  2372  1  0.98839960  0.59905600  0.19481300  1
  C  2373  1  0.98033260  0.60863200  0.18011300  1
  C  2374  1  0.88751900  0.61671500  0.09515500  1
  C  2375  1  0.87083100  0.61117400  0.08706100  1
  C  2376  1  0.86317500  0.62112300  0.07221800  1
  C  2377  1  0.87282300  0.63661400  0.06555700  1
  C  2378  1  0.88953100  0.64212600  0.07353700  1
  C  2390  1  0.93977760  0.65148300  0.11157300  1
  C  2391  1  0.94730460  0.64339400  0.12752000  1
  C  2392  1  0.96294160  0.65112700  0.13601300  1
  C  2393  1  0.97107260  0.66702800  0.12845600  1
  C  2394  1  0.96361660  0.67525200  0.11254800  1
  C  2395  1  0.94797760  0.66742800  0.10414900  1
  C  2400  1  0.91184660  0.63822400  0.09655600  1
  C  2401  1  0.92526560  0.64434300  0.10378100  1
  C  2402  1  0.97888360  0.70307400  0.09941000  1
  C  2403  1  0.97131560  0.68988300  0.10559100  1
  C  2404  1  0.96997160  0.64351000  0.15064800  1
  C  2405  1  0.97645260  0.63622200  0.16385300  1
  C  2406  1  0.84579000  0.61728600  0.06543800  1
  C  2407  1  0.00824800  0.59804800  0.22145300  1
  C  2408  1  0.01878400  0.76056200  0.06961100  1
  C  2409  1  0.98925860  0.74481600  0.07389000  1
  C  2413  1  0.62803000  0.40097200  0.59500000  1
  C  2414  1  0.71756700  0.48619100  0.59051800  1
  C  2415  1  0.63278700  0.49023500  0.68149800  1
  C  2416  1  0.73059500  0.49753700  0.59931200  1
  C  2417  1  0.74735400  0.50147400  0.57028300  1
  C  2418  1  0.73427100  0.48997600  0.56166300  1
  C  2419  1  0.71958100  0.48237400  0.57163200  1
  C  2420  1  0.63725400  0.38811600  0.58379800  1
  C  2421  1  0.62757300  0.37336700  0.57585500  1
  C  2422  1  0.60848700  0.37116800  0.57888500  1
  C  2423  1  0.59943800  0.38408700  0.59023900  1
  C  2424  1  0.60906400  0.39878200  0.59825500  1
  C  2425  1  0.61715900  0.48356800  0.69084500  1
  C  2426  1  0.61155200  0.49163500  0.70752100  1
  C  2427  1  0.62146200  0.50647300  0.71523300  1
  C  2428  1  0.63698600  0.51315800  0.70565600  1
  C  2429  1  0.64255000  0.50522200  0.68894400  1
  C  2441  1  0.65199400  0.46729300  0.63861800  1
  C  2442  1  0.64391100  0.45134500  0.63109300  1
  C  2443  1  0.65163100  0.44286700  0.61544200  1
  C  2444  1  0.66751700  0.45044200  0.60729600  1
  C  2445  1  0.67573800  0.46635400  0.61475000  1
  C  2446  1  0.66792300  0.47473700  0.63040300  1
  C  2451  1  0.63872400  0.48225600  0.66656600  1
  C  2452  1  0.64486000  0.47506500  0.65313900  1
  C  2453  1  0.70354100  0.47955300  0.59949400  1
  C  2454  1  0.69035700  0.47333300  0.60704600  1
  C  2455  1  0.64400800  0.42822800  0.60842600  1
  C  2456  1  0.63668800  0.41502100  0.60198900  1
  C  2457  1  0.61755100  0.51323400  0.73260400  1
  C  2458  1  0.59832600  0.35742900  0.57041900  1
  C  2459  1  0.76110200  0.50951300  0.55979500  1
  C  2460  1  0.74533100  0.50507400  0.58928800  1
  C  2464  1  0.99006561  0.40097500  0.94459510  1
  C  2465  1  0.90050960  0.48617100  0.94906110  1
  C  2466  1  0.98529460  0.49022600  0.85808700  1
  C  2467  1  0.88749600  0.49753800  0.94027110  1
  C  2468  1  0.87073200  0.50147400  0.96929610  1
  C  2469  1  0.88379900  0.48995500  0.97791310  1
  C  2470  1  0.89848400  0.48234300  0.96794310  1
  C  2471  1  0.98084160  0.38811200  0.95578910  1
  C  2472  1  0.99052361  0.37336200  0.96372910  1
  C  2473  1  0.00961400  0.37117800  0.96071610  1
  C  2474  1  0.01866600  0.38410800  0.94937610  1
  C  2475  1  0.00904000  0.39880400  0.94136610  1
  C  2476  1  0.00093400  0.48357100  0.84874900  1
  C  2477  1  0.00653600  0.49163300  0.83206800  1
  C  2478  1  0.99662561  0.50647100  0.82435700  1
  C  2479  1  0.98110260  0.51315800  0.83393700  1
  C  2480  1  0.97553160  0.50521500  0.85064200  1
  C  2492  1  0.96609160  0.46728600  0.90096910  1
  C  2493  1  0.97417760  0.45134000  0.90849510  1
  C  2494  1  0.96645560  0.44286000  0.92414410  1
  C  2495  1  0.95056860  0.45043400  0.93228910  1
  C  2496  1  0.94234760  0.46634400  0.92483510  1
  C  2497  1  0.95016060  0.47472800  0.90918210  1
  C  2502  1  0.97936160  0.48224900  0.87302000  1
  C  2503  1  0.97322560  0.47506000  0.88644900  1
  C  2504  1  0.91453860  0.47953700  0.94008810  1
  C  2505  1  0.92772560  0.47332200  0.93253910  1
  C  2506  1  0.97408160  0.42822400  0.93116210  1
  C  2507  1  0.98140560  0.41501900  0.93760210  1
  C  2508  1  0.00053400  0.51323200  0.80698600  1
  C  2509  1  0.01977600  0.35742500  0.96916210  1
  C  2510  1  0.85699900  0.50953700  0.97978410  1
  C  2511  1  0.87275600  0.50507200  0.95028910  1
  C  2515  1  0.99005461  0.21709600  0.59500500  1
  C  2516  1  0.90051060  0.13188400  0.59053000  1
  C  2517  1  0.98529160  0.12782900  0.68150400  1
  C  2518  1  0.88749400  0.12052300  0.59932300  1
  C  2519  1  0.87072900  0.11658700  0.57029900  1
  C  2520  1  0.88379800  0.12810200  0.56168100  1
  C  2521  1  0.89848500  0.13571000  0.57164900  1
  C  2522  1  0.98083160  0.22994900  0.58380300  1
  C  2523  1  0.99051061  0.24469900  0.57586000  1
  C  2524  1  0.00959700  0.24689800  0.57888700  1
  C  2525  1  0.01864800  0.23397900  0.59024200  1
  C  2526  1  0.00902500  0.21927800  0.59825100  1
  C  2527  1  0.00092900  0.13448300  0.69084500  1
  C  2528  1  0.00652900  0.12642200  0.70752800  1
  C  2529  1  0.99660061  0.11159900  0.71524600  1
  C  2530  1  0.98107360  0.10491800  0.70567100  1
  C  2531  1  0.97550760  0.11286200  0.68896500  1
  C  2543  1  0.96609260  0.15077200  0.63862200  1
  C  2544  1  0.97417760  0.16671900  0.63109700  1
  C  2545  1  0.96645560  0.17519900  0.61544800  1
  C  2546  1  0.95056760  0.16762700  0.60730300  1
  C  2547  1  0.94234560  0.15171600  0.61475700  1
  C  2548  1  0.95016160  0.14333000  0.63040800  1
  C  2553  1  0.97936260  0.13580800  0.66657000  1
  C  2554  1  0.97322860  0.14299800  0.65314200  1
  C  2555  1  0.91453860  0.13852100  0.59950400  1
  C  2556  1  0.92772560  0.14473900  0.60705300  1
  C  2557  1  0.97407860  0.18983800  0.60843300  1
  C  2558  1  0.98139860  0.20304500  0.60199600  1
  C  2559  1  0.00052500  0.10481800  0.73260800  1
  C  2560  1  0.01975800  0.26063700  0.57042100  1
  C  2561  1  0.85699200  0.10852700  0.55981100  1
  C  2562  1  0.87275400  0.11299000  0.58930400  1
  C  2566  1  0.62803300  0.21709300  0.94459410  1
  C  2567  1  0.71757600  0.13188100  0.94906910  1
  C  2568  1  0.63279300  0.12783600  0.85809000  1
  C  2569  1  0.73060100  0.12053200  0.94027510  1
  C  2570  1  0.74736000  0.11659200  0.96930410  1
  C  2571  1  0.73428100  0.12809400  0.97792210  1
  C  2572  1  0.71959600  0.13570500  0.96795210  1
  C  2573  1  0.63725700  0.22995200  0.95579010  1
  C  2574  1  0.62757400  0.24470100  0.96373410  1
  C  2575  1  0.60848500  0.24688900  0.96071610  1
  C  2576  1  0.59943700  0.23397000  0.94936110  1
  C  2577  1  0.60906300  0.21927500  0.94134810  1
  C  2578  1  0.61716800  0.13450400  0.84874000  1
  C  2579  1  0.61155700  0.12643500  0.83206700  1
  C  2580  1  0.62146600  0.11159400  0.82435700  1
  C  2581  1  0.63699100  0.10491000  0.83393500  1
  C  2582  1  0.64255700  0.11284800  0.85064400  1
  C  2594  1  0.65200100  0.15077800  0.90097010  1
  C  2595  1  0.64391700  0.16672700  0.90849310  1
  C  2596  1  0.65164100  0.17520500  0.92414310  1
  C  2597  1  0.66752600  0.16763100  0.93228910  1
  C  2598  1  0.67574600  0.15172000  0.92483510  1
  C  2599  1  0.66793100  0.14333500  0.90918410  1
  C  2604  1  0.63872900  0.13581300  0.87302200  1
  C  2605  1  0.64486600  0.14300400  0.88645000  1
  C  2606  1  0.70355000  0.13852100  0.94009410  1
  C  2607  1  0.69036500  0.14473900  0.93254210  1
  C  2608  1  0.64401500  0.18984300  0.93116110  1
  C  2609  1  0.63669300  0.20304700  0.93760110  1
  C  2610  1  0.61755300  0.10482900  0.80698900  1
  C  2611  1  0.59832500  0.26063400  0.96917610  1
  C  2612  1  0.76110500  0.10854500  0.97979210  1
  C  2613  1  0.74533600  0.11299300  0.95029710  1
  C  2617  1  0.39935200  0.63314600  0.58738500  1
  C  2618  1  0.48573900  0.62833500  0.67623200  1
  C  2619  1  0.48972700  0.71901900  0.59168900  1
  C  2620  1  0.49711800  0.63735900  0.68907700  1
  C  2621  1  0.50121900  0.60861200  0.70628700  1
  C  2622  1  0.48968300  0.59976100  0.69339000  1
  C  2623  1  0.48198800  0.60947400  0.67857400  1
  C  2624  1  0.39024600  0.61740600  0.59412700  1
  C  2625  1  0.37343500  0.61174100  0.58637600  1
  C  2626  1  0.36536100  0.62168100  0.57175300  1
  C  2627  1  0.37469900  0.63731100  0.56497500  1
  C  2628  1  0.39151800  0.64295700  0.57262600  1
  C  2629  1  0.48336300  0.72853400  0.57603300  1
  C  2630  1  0.49151300  0.74528400  0.57075800  1
  C  2631  1  0.50615900  0.75290700  0.58102100  1
  C  2632  1  0.51256200  0.74315300  0.59655700  1
  C  2633  1  0.50452400  0.72638400  0.60180300  1
  C  2645  1  0.46681100  0.67579500  0.61022400  1
  C  2646  1  0.45102200  0.66807000  0.60200200  1
  C  2647  1  0.44266400  0.65229500  0.60962300  1
  C  2648  1  0.45017100  0.64428900  0.62562100  1
  C  2649  1  0.46592100  0.65193100  0.63399100  1
  C  2650  1  0.47419600  0.66766600  0.62622800  1
  C  2655  1  0.48167600  0.70398600  0.59730900  1
  C  2656  1  0.47448400  0.69045100  0.60321700  1
  C  2657  1  0.47905000  0.63705400  0.66205500  1
  C  2658  1  0.47283000  0.64438600  0.64874200  1
  C  2659  1  0.42799500  0.64524600  0.60202600  1
  C  2660  1  0.41443200  0.63912000  0.59507400  1
  C  2661  1  0.51297100  0.77034300  0.57744200  1
  C  2662  1  0.34789300  0.61768100  0.56528800  1
  C  2663  1  0.50938000  0.59834800  0.72014300  1
  C  2664  1  0.50473200  0.62759900  0.70395300  1
  C  2668  1  0.39935400  0.98492360  0.95220310  1
  C  2669  1  0.48574400  0.98973360  0.86336700  1
  C  2670  1  0.48971800  0.89903800  0.94790210  1
  C  2671  1  0.49710400  0.98070560  0.85050500  1
  C  2672  1  0.50120600  0.00946000  0.83330700  1
  C  2673  1  0.48968600  0.01831200  0.84621500  1
  C  2674  1  0.48200000  0.00859700  0.86103400  1
  C  2675  1  0.39023800  0.00065200  0.94544610  1
  C  2676  1  0.37344200  0.00633800  0.95321710  1
  C  2677  1  0.36536900  0.99640259  0.96784510  1
  C  2678  1  0.37470700  0.98077160  0.97462110  1
  C  2679  1  0.39153300  0.97513060  0.96698110  1
  C  2680  1  0.48334200  0.88951600  0.96354910  1
  C  2681  1  0.49148800  0.87276400  0.96882210  1
  C  2682  1  0.50615700  0.86515500  0.95858410  1
  C  2683  1  0.51255000  0.87490100  0.94303810  1
  C  2684  1  0.50451600  0.89167200  0.93779010  1
  C  2696  1  0.46680300  0.94225960  0.92936010  1
  C  2697  1  0.45101200  0.94998560  0.93758010  1
  C  2698  1  0.44265800  0.96576160  0.92996010  1
  C  2699  1  0.45016600  0.97376860  0.91396410  1
  C  2700  1  0.46591600  0.96612760  0.90559710  1
  C  2701  1  0.47419100  0.95039060  0.91336010  1
  C  2706  1  0.48166700  0.91406960  0.94227810  1
  C  2707  1  0.47447400  0.92760360  0.93636810  1
  C  2708  1  0.47905300  0.98100860  0.87753900  1
  C  2709  1  0.47282900  0.97367360  0.89084700  1
  C  2710  1  0.42798800  0.97281160  0.93755710  1
  C  2711  1  0.41442900  0.97894160  0.94451010  1
  C  2712  1  0.51296600  0.84771500  0.96215310  1
  C  2713  1  0.34789100  0.00039000  0.97428810  1
  C  2714  1  0.50934700  0.01972600  0.81943900  1
  C  2715  1  0.50471800  0.99047159  0.83563200  1
  C  2719  1  0.21873700  0.63314800  0.95221010  1
  C  2720  1  0.13234000  0.62832100  0.86337100  1
  C  2721  1  0.12836100  0.71901300  0.94791610  1
  C  2722  1  0.12098200  0.63735000  0.85050900  1
  C  2723  1  0.11687600  0.60859800  0.83330900  1
  C  2724  1  0.12839900  0.59974600  0.84621600  1
  C  2725  1  0.13608500  0.60945800  0.86103600  1
  C  2726  1  0.22785300  0.61741500  0.94546110  1
  C  2727  1  0.24465400  0.61174100  0.95322410  1
  C  2728  1  0.25272800  0.62168400  0.96784710  1
  C  2729  1  0.24338600  0.63731300  0.97462310  1
  C  2730  1  0.22655800  0.64294800  0.96698210  1
  C  2731  1  0.13474300  0.72853800  0.96355710  1
  C  2732  1  0.12658600  0.74528100  0.96884410  1
  C  2733  1  0.11192400  0.75289700  0.95859910  1
  C  2734  1  0.10552200  0.74314500  0.94306010  1
  C  2735  1  0.11356100  0.72638000  0.93780510  1
  C  2747  1  0.15127900  0.67579500  0.92936510  1
  C  2748  1  0.16706900  0.66806900  0.93759010  1
  C  2749  1  0.17542300  0.65229100  0.92997110  1
  C  2750  1  0.16791700  0.64428500  0.91397210  1
  C  2751  1  0.15216800  0.65192800  0.90560210  1
  C  2752  1  0.14389200  0.66766400  0.91336510  1
  C  2757  1  0.13641500  0.70398400  0.94228610  1
  C  2758  1  0.14360600  0.69045100  0.93637510  1
  C  2759  1  0.13903300  0.63704700  0.87754400  1
  C  2760  1  0.14525600  0.64438000  0.89085300  1
  C  2761  1  0.19009400  0.64524400  0.93756610  1
  C  2762  1  0.20365600  0.63912000  0.94451910  1
  C  2763  1  0.10512400  0.77033900  0.96216410  1
  C  2764  1  0.27019600  0.61768000  0.97430910  1
  C  2765  1  0.10873600  0.59833300  0.81943900  1
  C  2766  1  0.11336300  0.62758400  0.83563900  1
  C  2770  1  0.21872800  0.98491760  0.58738600  1
  C  2771  1  0.13233300  0.98973260  0.67622500  1
  C  2772  1  0.12834500  0.89905200  0.59167800  1
  C  2773  1  0.12095500  0.98070860  0.68907100  1
  C  2774  1  0.11686900  0.00945300  0.70628900  1
  C  2775  1  0.12839700  0.01830500  0.69338700  1
  C  2776  1  0.13609000  0.00859200  0.67857000  1
  C  2777  1  0.22783500  0.00066000  0.59412900  1
  C  2778  1  0.24463100  0.00634200  0.58636200  1
  C  2779  1  0.25271400  0.99638959  0.57175000  1
  C  2780  1  0.24337800  0.98075860  0.56497300  1
  C  2781  1  0.22655900  0.97511260  0.57262200  1
  C  2782  1  0.13471600  0.88953200  0.57602600  1
  C  2783  1  0.12657000  0.87277600  0.57075800  1
  C  2784  1  0.11192200  0.86515600  0.58101800  1
  C  2785  1  0.10552100  0.87491100  0.59655400  1
  C  2786  1  0.11354500  0.89169000  0.60179000  1
  C  2798  1  0.15126900  0.94226960  0.61022100  1
  C  2799  1  0.16705900  0.94999360  0.60200100  1
  C  2800  1  0.17541500  0.96576960  0.60962100  1
  C  2801  1  0.16791000  0.97377460  0.62562000  1
  C  2802  1  0.15215900  0.96613160  0.63398900  1
  C  2803  1  0.14388400  0.95039760  0.62622400  1
  C  2808  1  0.13640200  0.91408060  0.59730200  1
  C  2809  1  0.14359700  0.92761360  0.60321200  1
  C  2810  1  0.13902600  0.98101060  0.66205000  1
  C  2811  1  0.14524900  0.97367860  0.64873900  1
  C  2812  1  0.19008600  0.97281860  0.60202600  1
  C  2813  1  0.20364900  0.97894360  0.59507500  1
  C  2814  1  0.10511200  0.84771900  0.57744200  1
  C  2815  1  0.27018500  0.00039100  0.56529000  1
  C  2816  1  0.10870900  0.01971900  0.72014500  1
  C  2817  1  0.11333800  0.99047159  0.70394400  1
  C  2821  1  0.62617700  0.63305100  0.17994100  1
  C  2822  1  0.71503300  0.62842400  0.09359400  1
  C  2823  1  0.63057100  0.71901100  0.08945800  1
  C  2824  1  0.72781800  0.63743500  0.08213600  1
  C  2825  1  0.74507500  0.60871000  0.07809600  1
  C  2826  1  0.73224400  0.59987900  0.08971800  1
  C  2827  1  0.71743200  0.60958700  0.09742100  1
  C  2828  1  0.63298200  0.61733100  0.18904100  1
  C  2829  1  0.62525600  0.61162600  0.20585300  1
  C  2830  1  0.61060400  0.62151200  0.21394500  1
  C  2831  1  0.60377200  0.63712400  0.20461400  1
  C  2832  1  0.61137100  0.64278900  0.18777700  1
  C  2833  1  0.61493600  0.72860100  0.09576000  1
  C  2834  1  0.60972300  0.74533100  0.08752900  1
  C  2835  1  0.62003200  0.75286700  0.07287100  1
  C  2836  1  0.63556600  0.74305200  0.06655400  1
  C  2837  1  0.64073800  0.72629000  0.07465300  1
  C  2849  1  0.64900100  0.67581800  0.11251500  1
  C  2850  1  0.64076600  0.66808000  0.12829300  1
  C  2851  1  0.64839000  0.65230600  0.13665400  1
  C  2852  1  0.66440400  0.64431800  0.12916300  1
  C  2853  1  0.67278300  0.65197500  0.11342700  1
  C  2854  1  0.66501700  0.66770500  0.10514600  1
  C  2859  1  0.63613200  0.70399500  0.09758200  1
  C  2860  1  0.64200000  0.69046900  0.10482500  1
  C  2861  1  0.70086000  0.63713400  0.10029600  1
  C  2862  1  0.68754300  0.64444700  0.10652400  1
  C  2863  1  0.64078700  0.64523700  0.15131400  1
  C  2864  1  0.63384900  0.63907200  0.16486700  1
  C  2865  1  0.61653400  0.77029500  0.06599700  1
  C  2866  1  0.60423200  0.61754200  0.23145800  1
  C  2867  1  0.75891800  0.59843700  0.06993000  1
  C  2868  1  0.74267800  0.62767200  0.07449700  1
  C  2872  1  0.99191061  0.98500460  0.17995800  1
  C  2873  1  0.90304960  0.98962860  0.09360800  1
  C  2874  1  0.98751960  0.89905100  0.08947100  1
  C  2875  1  0.89028200  0.98061860  0.08213200  1
  C  2876  1  0.87301600  0.00933900  0.07808900  1
  C  2877  1  0.88583300  0.01817000  0.08972900  1
  C  2878  1  0.90064060  0.00846300  0.09744200  1
  C  2879  1  0.98511660  0.00073200  0.18905200  1
  C  2880  1  0.99284561  0.00643800  0.20586200  1
  C  2881  1  0.00747600  0.99653159  0.21396700  1
  C  2882  1  0.01429700  0.98090960  0.20464500  1
  C  2883  1  0.00669100  0.97524160  0.18781100  1
  C  2884  1  0.00316400  0.88946900  0.09576300  1
  C  2885  1  0.00837200  0.87273500  0.08753700  1
  C  2886  1  0.99806061  0.86519700  0.07288000  1
  C  2887  1  0.98252860  0.87501400  0.06656100  1
  C  2888  1  0.97735060  0.89177100  0.07466700  1
  C  2900  1  0.96909460  0.94224760  0.11252200  1
  C  2901  1  0.97733160  0.94998860  0.12829800  1
  C  2902  1  0.96970860  0.96576260  0.13665800  1
  C  2903  1  0.95369160  0.97374760  0.12916800  1
  C  2904  1  0.94531060  0.96608960  0.11343300  1
  C  2905  1  0.95307660  0.95035860  0.10515400  1
  C  2910  1  0.98196060  0.91406860  0.09759300  1
  C  2911  1  0.97609560  0.92759560  0.10483400  1
  C  2912  1  0.91722760  0.98092260  0.10030700  1
  C  2913  1  0.93054760  0.97361360  0.10653200  1
  C  2914  1  0.97730960  0.97283260  0.15132000  1
  C  2915  1  0.98424460  0.97899360  0.16487600  1
  C  2916  1  0.00155700  0.84776800  0.06600800  1
  C  2917  1  0.01387200  0.00051900  0.23146900  1
  C  2918  1  0.85918500  0.01961100  0.06990100  1
  C  2919  1  0.87542300  0.99037859  0.07448500  1
  C  2923  1  0.99191361  0.63305300  0.35965500  1
  C  2924  1  0.90305060  0.62844300  0.44599500  1
  C  2925  1  0.98751360  0.71902200  0.45013700  1
  C  2926  1  0.89027700  0.63745300  0.45746700  1
  C  2927  1  0.87301300  0.60873300  0.46150800  1
  C  2928  1  0.88583100  0.59990200  0.44986900  1
  C  2929  1  0.90063960  0.60960900  0.44216000  1
  C  2930  1  0.98511260  0.61733000  0.35055900  1
  C  2931  1  0.99283561  0.61162600  0.33374600  1
  C  2932  1  0.00748500  0.62151200  0.32565100  1
  C  2933  1  0.01431800  0.63712400  0.33498200  1
  C  2934  1  0.00670500  0.64280300  0.35180700  1
  C  2935  1  0.00315900  0.72860600  0.44385000  1
  C  2936  1  0.00836200  0.74534200  0.45207600  1
  C  2937  1  0.99803461  0.75288600  0.46671500  1
  C  2938  1  0.98249760  0.74307500  0.47302800  1
  C  2939  1  0.97732460  0.72631700  0.46491900  1
  C  2951  1  0.96909360  0.67582500  0.42708200  1
  C  2952  1  0.97732860  0.66808700  0.41130500  1
  C  2953  1  0.96970260  0.65231400  0.40294200  1
  C  2954  1  0.95368760  0.64432900  0.41043200  1
  C  2955  1  0.94530660  0.65198600  0.42616800  1
  C  2956  1  0.95307460  0.66771500  0.43444900  1
  C  2961  1  0.98195860  0.70400300  0.44201400  1
  C  2962  1  0.97609460  0.69047600  0.43477100  1
  C  2963  1  0.91722560  0.63715100  0.43929500  1
  C  2964  1  0.93054560  0.64446100  0.43306900  1
  C  2965  1  0.97730460  0.64524300  0.38828200  1
  C  2966  1  0.98424360  0.63907600  0.37473000  1
  C  2967  1  0.00154700  0.77030600  0.47360800  1
  C  2968  1  0.01385700  0.61754200  0.30813800  1
  C  2969  1  0.85918400  0.59846100  0.46969700  1
  C  2970  1  0.87541300  0.62769500  0.46510500  1
  C  2974  1  0.62617100  0.98500060  0.35964300  1
  C  2975  1  0.71502100  0.98963760  0.44600100  1
  C  2976  1  0.63056000  0.89905000  0.45013200  1
  C  2977  1  0.72780200  0.98062860  0.45746200  1
  C  2978  1  0.74506100  0.00935200  0.46150400  1
  C  2979  1  0.73223400  0.01818300  0.44987600  1
  C  2980  1  0.71742700  0.00847200  0.44216500  1
  C  2981  1  0.63296600  0.00072600  0.35054500  1
  C  2982  1  0.62524000  0.00642500  0.33373200  1
  C  2983  1  0.61060400  0.99652359  0.32563300  1
  C  2984  1  0.60377000  0.98091660  0.33496800  1
  C  2985  1  0.61137500  0.97525060  0.35180300  1
  C  2986  1  0.61492800  0.88945800  0.44382800  1
  C  2987  1  0.60971300  0.87273000  0.45206000  1
  C  2988  1  0.62002100  0.86519300  0.46671900  1
  C  2989  1  0.63555500  0.87500800  0.47303700  1
  C  2990  1  0.64072800  0.89177000  0.46493400  1
  C  3002  1  0.64898600  0.94224560  0.42708100  1
  C  3003  1  0.64075200  0.94998360  0.41130200  1
  C  3004  1  0.64837500  0.96575860  0.40294200  1
  C  3005  1  0.66438900  0.97374660  0.41043300  1
  C  3006  1  0.67276900  0.96608960  0.42617000  1
  C  3007  1  0.66500300  0.95035860  0.43445000  1
  C  3012  1  0.63611900  0.91406760  0.44201000  1
  C  3013  1  0.64198600  0.92759460  0.43476900  1
  C  3014  1  0.70084700  0.98092860  0.43930000  1
  C  3015  1  0.68752900  0.97361560  0.43307200  1
  C  3016  1  0.64077300  0.97282660  0.38827900  1
  C  3017  1  0.63383800  0.97898760  0.37472400  1
  C  3018  1  0.61652200  0.84776600  0.47359500  1
  C  3019  1  0.60421800  0.00050900  0.30812900  1
  C  3020  1  0.75889900  0.01962500  0.46967800  1
  C  3021  1  0.74266200  0.99038959  0.46510500  1
  C  3025  1  0.40050800  0.62751100  0.94475110  1
  C  3026  1  0.48564500  0.71710700  0.94898910  1
  C  3027  1  0.48984700  0.63242100  0.85811300  1
  C  3028  1  0.49710900  0.73004000  0.94020910  1
  C  3029  1  0.50099400  0.74687000  0.96919910  1
  C  3030  1  0.48938100  0.73388100  0.97780710  1
  C  3031  1  0.48174500  0.71920200  0.96784910  1
  C  3032  1  0.38760400  0.63680600  0.95583810  1
  C  3033  1  0.37285100  0.62716800  0.96382910  1
  C  3034  1  0.37069000  0.60805300  0.96096010  1
  C  3035  1  0.38366100  0.59892800  0.94972510  1
  C  3036  1  0.39836900  0.60850800  0.94167410  1
  C  3037  1  0.48327600  0.61679200  0.84870100  1
  C  3038  1  0.49141300  0.61127200  0.83203000  1
  C  3039  1  0.50623900  0.62126300  0.82439700  1
  C  3040  1  0.51285000  0.63676900  0.83405600  1
  C  3041  1  0.50482900  0.64225800  0.85075200  1
  C  3053  1  0.46677700  0.65147800  0.90098810  1
  C  3054  1  0.45085000  0.64337100  0.90853210  1
  C  3055  1  0.44236800  0.65108700  0.92418410  1
  C  3056  1  0.44992100  0.66699500  0.93231010  1
  C  3057  1  0.46581100  0.67523800  0.92483510  1
  C  3058  1  0.47419700  0.66742800  0.90918210  1
  C  3063  1  0.48180000  0.63827600  0.87303900  1
  C  3064  1  0.47456300  0.64436000  0.88646700  1
  C  3065  1  0.47899600  0.70307300  0.94003910  1
  C  3066  1  0.47277500  0.68987500  0.93251610  1
  C  3067  1  0.42774600  0.64344900  0.93122510  1
  C  3068  1  0.41455100  0.63613900  0.93770510  1
  C  3069  1  0.51308900  0.61741100  0.80704600  1
  C  3070  1  0.35690900  0.59794600  0.96943010  1
  C  3071  1  0.50909400  0.76057600  0.97969210  1
  C  3072  1  0.50466300  0.74477600  0.95021510  1
  C  3076  1  0.40049900  0.99054559  0.59484300  1
  C  3077  1  0.48564700  0.90096360  0.59058600  1
  C  3078  1  0.48984600  0.98564260  0.68147200  1
  C  3079  1  0.49709200  0.88801500  0.59937100  1
  C  3080  1  0.50097900  0.87119400  0.57037500  1
  C  3081  1  0.48938200  0.88419600  0.56176600  1
  C  3082  1  0.48175600  0.89887900  0.57172500  1
  C  3083  1  0.38760700  0.98125360  0.58373900  1
  C  3084  1  0.37284400  0.99088759  0.57576000  1
  C  3085  1  0.37067800  0.01000100  0.57863600  1
  C  3086  1  0.38364100  0.01912500  0.58988100  1
  C  3087  1  0.39834400  0.00954400  0.59793900  1
  C  3088  1  0.48327100  0.00126800  0.69088700  1
  C  3089  1  0.49140300  0.00678400  0.70756200  1
  C  3090  1  0.50624300  0.99680859  0.71518600  1
  C  3091  1  0.51283800  0.98128860  0.70553900  1
  C  3092  1  0.50481800  0.97579760  0.68884300  1
  C  3104  1  0.46677800  0.96658460  0.63859700  1
  C  3105  1  0.45084900  0.97469360  0.63105400  1
  C  3106  1  0.44236800  0.96697560  0.61540000  1
  C  3107  1  0.44992100  0.95106960  0.60727400  1
  C  3108  1  0.46581200  0.94282560  0.61474900  1
  C  3109  1  0.47419700  0.95063560  0.63040100  1
  C  3114  1  0.48180200  0.97978660  0.66654500  1
  C  3115  1  0.47456400  0.97370260  0.65311800  1
  C  3116  1  0.47900000  0.91499460  0.59954200  1
  C  3117  1  0.47277600  0.92819060  0.60706700  1
  C  3118  1  0.42774400  0.97461360  0.60836100  1
  C  3119  1  0.41454700  0.98192060  0.60188600  1
  C  3120  1  0.51308800  0.00065200  0.73254000  1
  C  3121  1  0.35690600  0.02010800  0.57015000  1
  C  3122  1  0.50905800  0.85747500  0.55988200  1
  C  3123  1  0.50464600  0.87328200  0.58936000  1
  C  3127  1  0.21757700  0.99054259  0.94475010  1
  C  3128  1  0.13243200  0.90095960  0.94900210  1
  C  3129  1  0.12823400  0.98564760  0.85812000  1
  C  3130  1  0.12098900  0.88801000  0.94021810  1
  C  3131  1  0.11710300  0.87119000  0.96921610  1
  C  3132  1  0.12870300  0.88419100  0.97782210  1
  C  3133  1  0.13632700  0.89887300  0.96786210  1
  C  3134  1  0.23047900  0.98124960  0.95584210  1
  C  3135  1  0.24523600  0.99088759  0.96382610  1
  C  3136  1  0.24739400  0.01000300  0.96096110  1
  C  3137  1  0.23442500  0.01912700  0.94972210  1
  C  3138  1  0.21972200  0.00954500  0.94166510  1
  C  3139  1  0.13481500  0.00127000  0.84870300  1
  C  3140  1  0.12667200  0.00680100  0.83203800  1
  C  3141  1  0.11183900  0.99681859  0.82440700  1
  C  3142  1  0.10523500  0.98130360  0.83405600  1
  C  3143  1  0.11326100  0.97580460  0.85074700  1
  C  3155  1  0.15130700  0.96657660  0.90098810  1
  C  3156  1  0.16723600  0.97468460  0.90853210  1
  C  3157  1  0.17571800  0.96696560  0.92418310  1
  C  3158  1  0.16816400  0.95105960  0.93230810  1
  C  3159  1  0.15227300  0.94281860  0.92483510  1
  C  3160  1  0.14388600  0.95062860  0.90918410  1
  C  3165  1  0.13628200  0.97978460  0.87304400  1
  C  3166  1  0.14351900  0.97369760  0.88646800  1
  C  3167  1  0.13908200  0.91498860  0.94004410  1
  C  3168  1  0.14530600  0.92818360  0.93251810  1
  C  3169  1  0.19034000  0.97460460  0.93122510  1
  C  3170  1  0.20353500  0.98191460  0.93770310  1
  C  3171  1  0.10500100  0.00065900  0.80704900  1
  C  3172  1  0.26117400  0.02011000  0.96943610  1
  C  3173  1  0.10902500  0.85747100  0.97971010  1
  C  3174  1  0.11343000  0.87328100  0.95023210  1
  C  3178  1  0.21757500  0.62751500  0.59484200  1
  C  3179  1  0.13242700  0.71710000  0.59059600  1
  C  3180  1  0.12822800  0.63241700  0.68147400  1
  C  3181  1  0.12096800  0.73003600  0.59937800  1
  C  3182  1  0.11709300  0.74687300  0.57038800  1
  C  3183  1  0.12869900  0.73387600  0.56178100  1
  C  3184  1  0.13633000  0.71919600  0.57173800  1
  C  3185  1  0.23047700  0.63681000  0.58375300  1
  C  3186  1  0.24523900  0.62717500  0.57577400  1
  C  3187  1  0.24739600  0.60805900  0.57863600  1
  C  3188  1  0.23442900  0.59893400  0.58987500  1
  C  3189  1  0.21972000  0.60851400  0.59792500  1
  C  3190  1  0.13480100  0.61679000  0.69088900  1
  C  3191  1  0.12667000  0.61127600  0.70756500  1
  C  3192  1  0.11184300  0.62126600  0.71519600  1
  C  3193  1  0.10523600  0.63677500  0.70554100  1
  C  3194  1  0.11325700  0.64226500  0.68884600  1
  C  3206  1  0.15130200  0.65147700  0.63860300  1
  C  3207  1  0.16723100  0.64337000  0.63106000  1
  C  3208  1  0.17571300  0.65108700  0.61540800  1
  C  3209  1  0.16815800  0.66699500  0.60728200  1
  C  3210  1  0.15226700  0.67523700  0.61475600  1
  C  3211  1  0.14388200  0.66742600  0.63040700  1
  C  3216  1  0.13627600  0.63827400  0.66654800  1
  C  3217  1  0.14351500  0.64435800  0.65312400  1
  C  3218  1  0.13907900  0.70306900  0.59955100  1
  C  3219  1  0.14530300  0.68987200  0.60707400  1
  C  3220  1  0.19033600  0.64345000  0.60836700  1
  C  3221  1  0.20353100  0.63614200  0.60188900  1
  C  3222  1  0.10499200  0.61741200  0.73254600  1
  C  3223  1  0.26117700  0.59795400  0.57016500  1
  C  3224  1  0.10899800  0.76058000  0.55989600  1
  C  3225  1  0.11340900  0.74476800  0.58936900  1
  C  3229  1  0.63274100  0.39889700  0.95229610  1
  C  3230  1  0.62798600  0.48539700  0.86335800  1
  C  3231  1  0.71857500  0.48928600  0.94781810  1
  C  3232  1  0.63707700  0.49676600  0.85055200  1
  C  3233  1  0.60837600  0.50100900  0.83329700  1
  C  3234  1  0.59946000  0.48947800  0.84615300  1
  C  3235  1  0.60911500  0.48172100  0.86097300  1
  C  3236  1  0.61703600  0.38971400  0.94556810  1
  C  3237  1  0.61141600  0.37291000  0.95336810  1
  C  3238  1  0.62137300  0.36490600  0.96802010  1
  C  3239  1  0.63696900  0.37431900  0.97477610  1
  C  3240  1  0.64255100  0.39114900  0.96710210  1
  C  3241  1  0.72810600  0.48296000  0.96347910  1
  C  3242  1  0.74483600  0.49115600  0.96874010  1
  C  3243  1  0.75243000  0.50579600  0.95845110  1
  C  3244  1  0.74267700  0.51213700  0.94288910  1
  C  3245  1  0.72591300  0.50407300  0.93766910  1
  C  3257  1  0.67535700  0.46632100  0.92934610  1
  C  3258  1  0.66762700  0.45053800  0.93757610  1
  C  3259  1  0.65184300  0.44218700  0.92996410  1
  C  3260  1  0.64383600  0.44969600  0.91396510  1
  C  3261  1  0.65148500  0.46544000  0.90559010  1
  C  3262  1  0.66722800  0.47370800  0.91334610  1
  C  3267  1  0.70355100  0.48120500  0.94222410  1
  C  3268  1  0.69001600  0.47399300  0.93634210  1
  C  3269  1  0.63665600  0.47863600  0.87753100  1
  C  3270  1  0.64394900  0.47236500  0.89084200  1
  C  3271  1  0.64479200  0.42752300  0.93757410  1
  C  3272  1  0.63868200  0.41396800  0.94455810  1
  C  3273  1  0.76983900  0.51266700  0.96203210  1
  C  3274  1  0.61748400  0.34740300  0.97446810  1
  C  3275  1  0.59816800  0.50921400  0.81942500  1
  C  3276  1  0.62736900  0.50445900  0.83568200  1
  C  3280  1  0.98533960  0.39890300  0.58728900  1
  C  3281  1  0.99009161  0.48539000  0.67624300  1
  C  3282  1  0.89951100  0.48929200  0.59177700  1
  C  3283  1  0.98100060  0.49677800  0.68903200  1
  C  3284  1  0.00969500  0.50102000  0.70629700  1
  C  3285  1  0.01861100  0.48947100  0.69345800  1
  C  3286  1  0.00895800  0.48170300  0.67864200  1
  C  3287  1  0.00104600  0.38972000  0.59401000  1
  C  3288  1  0.00666300  0.37291500  0.58620700  1
  C  3289  1  0.99668561  0.36490100  0.57157600  1
  C  3290  1  0.98108060  0.37430700  0.56483100  1
  C  3291  1  0.97550160  0.39113600  0.57251200  1
  C  3292  1  0.88998700  0.48297200  0.57611000  1
  C  3293  1  0.87325100  0.49116300  0.57085400  1
  C  3294  1  0.86566000  0.50580800  0.58113900  1
  C  3295  1  0.87541600  0.51215400  0.59669700  1
  C  3296  1  0.89217500  0.50408400  0.60192300  1
  C  3308  1  0.94273160  0.46632900  0.61024300  1
  C  3309  1  0.95046460  0.45055000  0.60200900  1
  C  3310  1  0.96624860  0.44220000  0.60961900  1
  C  3311  1  0.97425460  0.44970500  0.62562000  1
  C  3312  1  0.96660260  0.46544600  0.63399800  1
  C  3313  1  0.95085960  0.47371400  0.62624500  1
  C  3318  1  0.91453560  0.48121400  0.59736800  1
  C  3319  1  0.92807160  0.47400100  0.60324900  1
  C  3320  1  0.98142760  0.47863300  0.66206300  1
  C  3321  1  0.97413660  0.47236600  0.64875000  1
  C  3322  1  0.97329860  0.42753500  0.60200800  1
  C  3323  1  0.97940460  0.41397800  0.59502500  1
  C  3324  1  0.84825100  0.51267700  0.57755800  1
  C  3325  1  0.00059000  0.34740800  0.56510600  1
  C  3326  1  0.01990100  0.50925100  0.72015500  1
  C  3327  1  0.99070361  0.50447100  0.70390700  1
  C  3331  1  0.63273600  0.21916300  0.58729800  1
  C  3332  1  0.62799000  0.13267000  0.67624400  1
  C  3333  1  0.71857400  0.12877300  0.59178600  1
  C  3334  1  0.63708400  0.12128400  0.68903700  1
  C  3335  1  0.60838900  0.11704100  0.70630100  1
  C  3336  1  0.59947200  0.12858900  0.69346000  1
  C  3337  1  0.60912400  0.13635400  0.67864200  1
  C  3338  1  0.61703300  0.22834600  0.59402500  1
  C  3339  1  0.61141400  0.24515100  0.58622500  1
  C  3340  1  0.62137200  0.25315500  0.57157400  1
  C  3341  1  0.63696600  0.24374000  0.56481600  1
  C  3342  1  0.64255800  0.22691900  0.57250500  1
  C  3343  1  0.72810100  0.13509400  0.57612100  1
  C  3344  1  0.74483800  0.12690500  0.57086700  1
  C  3345  1  0.75243600  0.11227400  0.58116800  1
  C  3346  1  0.74268400  0.10593200  0.59673000  1
  C  3347  1  0.72592500  0.11400400  0.60195200  1
  C  3359  1  0.67535200  0.15173700  0.61025000  1
  C  3360  1  0.66762200  0.16752000  0.60201900  1
  C  3361  1  0.65184000  0.17587200  0.60963100  1
  C  3362  1  0.64383400  0.16836600  0.62563000  1
  C  3363  1  0.65148300  0.15262300  0.63400600  1
  C  3364  1  0.66722400  0.14435300  0.62625000  1
  C  3369  1  0.70354700  0.13685400  0.59737500  1
  C  3370  1  0.69001100  0.14406500  0.60325400  1
  C  3371  1  0.63665600  0.13943100  0.66206800  1
  C  3372  1  0.64394800  0.14569900  0.64875700  1
  C  3373  1  0.64478800  0.19053700  0.60202000  1
  C  3374  1  0.63867900  0.20409000  0.59503700  1
  C  3375  1  0.76983500  0.10538400  0.57757200  1
  C  3376  1  0.61748100  0.27065800  0.56512500  1
  C  3377  1  0.59818200  0.10881300  0.72016000  1
  C  3378  1  0.62738000  0.11359100  0.70391000  1
  C  3382  1  0.98534260  0.21917000  0.95230510  1
  C  3383  1  0.99010661  0.13266700  0.86336500  1
  C  3384  1  0.89952100  0.12877400  0.94782110  1
  C  3385  1  0.98100860  0.12129600  0.85056300  1
  C  3386  1  0.00970400  0.11704700  0.83330100  1
  C  3387  1  0.01862600  0.12858000  0.84615200  1
  C  3388  1  0.00897400  0.13634800  0.86096800  1
  C  3389  1  0.00105200  0.22835100  0.94558710  1
  C  3390  1  0.00666700  0.24515700  0.95338910  1
  C  3391  1  0.99669161  0.25316800  0.96802410  1
  C  3392  1  0.98109860  0.24375000  0.97478110  1
  C  3393  1  0.97551960  0.22692200  0.96709910  1
  C  3394  1  0.88998800  0.13510100  0.96347910  1
  C  3395  1  0.87325800  0.12690300  0.96874110  1
  C  3396  1  0.86566500  0.11226300  0.95845110  1
  C  3397  1  0.87541800  0.10592300  0.94288710  1
  C  3398  1  0.89218100  0.11399100  0.93766810  1
  C  3410  1  0.94274160  0.15173700  0.92935410  1
  C  3411  1  0.95047160  0.16752000  0.93758710  1
  C  3412  1  0.96625560  0.17587100  0.92997610  1
  C  3413  1  0.97426260  0.16836400  0.91397710  1
  C  3414  1  0.96661260  0.15262100  0.90559910  1
  C  3415  1  0.95087060  0.14435200  0.91335410  1
  C  3420  1  0.91454560  0.13685400  0.94223010  1
  C  3421  1  0.92808160  0.14406500  0.93634910  1
  C  3422  1  0.98144160  0.13942900  0.87754100  1
  C  3423  1  0.97414860  0.14569800  0.89085100  1
  C  3424  1  0.97330460  0.19053700  0.93758710  1
  C  3425  1  0.97940960  0.20409300  0.94456910  1
  C  3426  1  0.84825800  0.10539000  0.96203210  1
  C  3427  1  0.00059700  0.27066300  0.97448910  1
  C  3428  1  0.01990800  0.10883500  0.81943000  1
  C  3429  1  0.99071261  0.11359900  0.83569100  1
  C  3433  1  0.12614400  0.39886100  0.09383400  1
  C  3434  1  0.21500500  0.48522500  0.08921300  1
  C  3435  1  0.13057400  0.48935400  0.17979000  1
  C  3436  1  0.22775700  0.49671300  0.09823000  1
  C  3437  1  0.24503700  0.50076600  0.06952200  1
  C  3438  1  0.23223300  0.48912100  0.06068000  1
  C  3439  1  0.21742700  0.48139500  0.07037800  1
  C  3440  1  0.13293400  0.38976100  0.07810900  1
  C  3441  1  0.12521600  0.37293900  0.07242300  1
  C  3442  1  0.11057700  0.36484800  0.08232500  1
  C  3443  1  0.10374900  0.37418300  0.09793600  1
  C  3444  1  0.11136500  0.39101200  0.10360100  1
  C  3445  1  0.11493500  0.48307300  0.18938700  1
  C  3446  1  0.10974700  0.49130500  0.20612400  1
  C  3447  1  0.12008000  0.50595100  0.21365100  1
  C  3448  1  0.13559700  0.51227100  0.20381400  1
  C  3449  1  0.14075900  0.50415100  0.18705800  1
  C  3461  1  0.14896600  0.46629500  0.13658400  1
  C  3462  1  0.14072900  0.45051800  0.12884600  1
  C  3463  1  0.14835200  0.44215800  0.11307100  1
  C  3464  1  0.16436500  0.44964900  0.10508300  1
  C  3465  1  0.17274600  0.46538500  0.11273900  1
  C  3466  1  0.16498200  0.47366400  0.12847100  1
  C  3471  1  0.13611300  0.48122700  0.16476800  1
  C  3472  1  0.14196900  0.47398300  0.15123700  1
  C  3473  1  0.20082700  0.47851700  0.09791000  1
  C  3474  1  0.18750700  0.47228600  0.10521500  1
  C  3475  1  0.14075100  0.42749700  0.10600200  1
  C  3476  1  0.13381300  0.41394100  0.09984300  1
  C  3477  1  0.11658200  0.51284600  0.23107400  1
  C  3478  1  0.10418100  0.34734500  0.07834800  1
  C  3479  1  0.25886400  0.50897000  0.05925900  1
  C  3480  1  0.24262600  0.50435900  0.08848300  1
  C  3484  1  0.49193800  0.39887300  0.44576900  1
  C  3485  1  0.40308200  0.48523700  0.45038800  1
  C  3486  1  0.48750800  0.48935100  0.35979800  1
  C  3487  1  0.39031200  0.49670400  0.44136900  1
  C  3488  1  0.37304600  0.50076500  0.47008400  1
  C  3489  1  0.38586200  0.48913300  0.47892600  1
  C  3490  1  0.40067200  0.48141600  0.46922400  1
  C  3491  1  0.48512400  0.38975600  0.46147200  1
  C  3492  1  0.49285900  0.37294900  0.46717800  1
  C  3493  1  0.50750900  0.36486200  0.45728900  1
  C  3494  1  0.51434400  0.37420400  0.44168300  1
  C  3495  1  0.50674000  0.39103900  0.43602300  1
  C  3496  1  0.50314000  0.48306100  0.35019800  1
  C  3497  1  0.50832600  0.49128800  0.33345700  1
  C  3498  1  0.49801500  0.50595300  0.32593800  1
  C  3499  1  0.48248300  0.51225800  0.33576600  1
  C  3500  1  0.47732200  0.50414500  0.35252500  1
  C  3512  1  0.46910800  0.46629600  0.40300200  1
  C  3513  1  0.47734300  0.45051700  0.41073900  1
  C  3514  1  0.46972100  0.44215700  0.42651500  1
  C  3515  1  0.45371000  0.44965100  0.43450700  1
  C  3516  1  0.44533000  0.46538800  0.42684900  1
  C  3517  1  0.45309500  0.47366700  0.41111700  1
  C  3522  1  0.48196400  0.48122600  0.37482000  1
  C  3523  1  0.47610500  0.47398300  0.38834900  1
  C  3524  1  0.41725600  0.47852700  0.44168600  1
  C  3525  1  0.43057200  0.47229300  0.43437600  1
  C  3526  1  0.47732300  0.42749900  0.43358500  1
  C  3527  1  0.48426400  0.41394500  0.43974900  1
  C  3528  1  0.50150300  0.51284200  0.30851400  1
  C  3529  1  0.51388500  0.34735100  0.46125100  1
  C  3530  1  0.35920600  0.50894600  0.48034800  1
  C  3531  1  0.37545000  0.50435300  0.45112000  1
  C  3535  1  0.49194800  0.21919600  0.09383500  1
  C  3536  1  0.40309500  0.13282100  0.08920000  1
  C  3537  1  0.48752500  0.12870700  0.17978600  1
  C  3538  1  0.39032400  0.12135700  0.09822000  1
  C  3539  1  0.37305400  0.11729600  0.06950500  1
  C  3540  1  0.38587000  0.12892700  0.06066300  1
  C  3541  1  0.40068100  0.13664400  0.07036200  1
  C  3542  1  0.48515000  0.22830700  0.07812000  1
  C  3543  1  0.49288000  0.24511900  0.07242700  1
  C  3544  1  0.50752100  0.25320900  0.08233100  1
  C  3545  1  0.51434900  0.24386700  0.09793900  1
  C  3546  1  0.50674100  0.22703200  0.10359300  1
  C  3547  1  0.50315300  0.13500200  0.18939100  1
  C  3548  1  0.50835000  0.12676400  0.20612300  1
  C  3549  1  0.49803000  0.11211000  0.21364700  1
  C  3550  1  0.48250800  0.10579200  0.20381400  1
  C  3551  1  0.47734000  0.11391200  0.18705900  1
  C  3563  1  0.46912200  0.15176500  0.13658300  1
  C  3564  1  0.47735900  0.16754000  0.12884400  1
  C  3565  1  0.46973800  0.17589900  0.11306700  1
  C  3566  1  0.45372600  0.16840700  0.10507700  1
  C  3567  1  0.44534500  0.15267100  0.11273500  1
  C  3568  1  0.45310700  0.14439300  0.12846800  1
  C  3573  1  0.48197700  0.13683300  0.16476600  1
  C  3574  1  0.47611900  0.14407700  0.15123700  1
  C  3575  1  0.41726900  0.13953200  0.09789900  1
  C  3576  1  0.43058600  0.14576700  0.10520800  1
  C  3577  1  0.47733900  0.19056000  0.10599800  1
  C  3578  1  0.48427800  0.20411600  0.09984100  1
  C  3579  1  0.50151100  0.10522800  0.23107600  1
  C  3580  1  0.51391500  0.27071200  0.07835200  1
  C  3581  1  0.35921100  0.10911700  0.05924400  1
  C  3582  1  0.37546200  0.11370600  0.08846900  1
  C  3586  1  0.12613400  0.21920200  0.44576200  1
  C  3587  1  0.21498800  0.13282900  0.45038700  1
  C  3588  1  0.13056000  0.12870600  0.35980700  1
  C  3589  1  0.22774300  0.12134600  0.44136900  1
  C  3590  1  0.24503200  0.11730300  0.47007600  1
  C  3591  1  0.23222100  0.12894000  0.47891800  1
  C  3592  1  0.21741300  0.13666300  0.46922000  1
  C  3593  1  0.13293100  0.22830600  0.46148200  1
  C  3594  1  0.12519500  0.24511300  0.46718600  1
  C  3595  1  0.11056300  0.25320900  0.45727700  1
  C  3596  1  0.10373000  0.24387300  0.44166800  1
  C  3597  1  0.11134600  0.22704500  0.43600200  1
  C  3598  1  0.11492700  0.13499200  0.35020300  1
  C  3599  1  0.10974600  0.12676700  0.33346100  1
  C  3600  1  0.12007600  0.11211800  0.32593600  1
  C  3601  1  0.13559400  0.10580000  0.33577400  1
  C  3602  1  0.14075100  0.11391500  0.35253400  1
  C  3614  1  0.14895400  0.15176800  0.40301100  1
  C  3615  1  0.14071900  0.16754600  0.41074900  1
  C  3616  1  0.14834100  0.17590500  0.42652500  1
  C  3617  1  0.16435500  0.16841400  0.43451300  1
  C  3618  1  0.17273400  0.15267800  0.42685600  1
  C  3619  1  0.16497100  0.14439900  0.41112400  1
  C  3624  1  0.13610100  0.13683600  0.37482700  1
  C  3625  1  0.14195700  0.14408000  0.38835700  1
  C  3626  1  0.20081300  0.13954200  0.44168900  1
  C  3627  1  0.18749400  0.14577400  0.43438200  1
  C  3628  1  0.14074000  0.19056600  0.43359200  1
  C  3629  1  0.13380200  0.20412200  0.43975200  1
  C  3630  1  0.11657900  0.10522200  0.30851600  1
  C  3631  1  0.10416800  0.27071400  0.46125400  1
  C  3632  1  0.25886100  0.10910400  0.48033900  1
  C  3633  1  0.24260700  0.11369500  0.45111700  1
  C  3637  1  0.13458100  0.40093600  0.45121600  1
  C  3638  1  0.13023500  0.48601900  0.36175000  1
  C  3639  1  0.22119700  0.49029300  0.44651600  1
  C  3640  1  0.13895600  0.49745600  0.34875500  1
  C  3641  1  0.10991200  0.50121600  0.33198800  1
  C  3642  1  0.10136800  0.48962100  0.34503500  1
  C  3643  1  0.11138100  0.48206200  0.35971400  1
  C  3644  1  0.12336500  0.38814100  0.44192400  1
  C  3645  1  0.11534300  0.37339500  0.45154300  1
  C  3646  1  0.11830300  0.37113900  0.47063300  1
  C  3647  1  0.12966800  0.38399900  0.47975200  1
  C  3648  1  0.13776500  0.39869200  0.47019000  1
  C  3649  1  0.23061500  0.48366600  0.46211900  1
  C  3650  1  0.24729300  0.49177600  0.46766400  1
  C  3651  1  0.25493900  0.50662200  0.45771500  1
  C  3652  1  0.24528800  0.51327200  0.44221900  1
  C  3653  1  0.22857600  0.50529400  0.43671800  1
  C  3665  1  0.17834000  0.46725300  0.42736800  1
  C  3666  1  0.17081000  0.45130800  0.43545700  1
  C  3667  1  0.15516900  0.44282100  0.42772200  1
  C  3668  1  0.14704200  0.45037900  0.41182000  1
  C  3669  1  0.15450300  0.46628400  0.40359700  1
  C  3670  1  0.17014300  0.47468000  0.41142200  1
  C  3675  1  0.20627300  0.48226600  0.44062400  1
  C  3676  1  0.19285400  0.47504100  0.43450800  1
  C  3677  1  0.13924300  0.47942900  0.37577400  1
  C  3678  1  0.14680900  0.47324500  0.38896500  1
  C  3679  1  0.14813400  0.42818700  0.43533700  1
  C  3680  1  0.14164500  0.41498400  0.44261700  1
  C  3681  1  0.27233100  0.51339600  0.46152600  1
  C  3682  1  0.10976300  0.35740200  0.48073400  1
  C  3683  1  0.09936900  0.50922900  0.31827100  1
  C  3684  1  0.12888800  0.50495200  0.33403000  1
  C  3688  1  0.48350700  0.40093900  0.08837300  1
  C  3689  1  0.48783900  0.48600900  0.17785000  1
  C  3690  1  0.39687400  0.49028000  0.09308700  1
  C  3691  1  0.47911900  0.49746300  0.19083300  1
  C  3692  1  0.50816200  0.50122800  0.20760200  1
  C  3693  1  0.51670500  0.48961800  0.19456800  1
  C  3694  1  0.50669100  0.48204700  0.17989300  1
  C  3695  1  0.49470900  0.38813400  0.09766700  1
  C  3696  1  0.50272800  0.37338500  0.08804800  1
  C  3697  1  0.49978600  0.37114400  0.06895200  1
  C  3698  1  0.48843700  0.38401800  0.05983000  1
  C  3699  1  0.48034800  0.39871200  0.06939400  1
  C  3700  1  0.38746300  0.48365600  0.07747900  1
  C  3701  1  0.37078100  0.49176100  0.07193800  1
  C  3702  1  0.36313900  0.50661500  0.08188000  1
  C  3703  1  0.37279400  0.51327200  0.09736900  1
  C  3704  1  0.38950200  0.50528700  0.10287800  1
  C  3716  1  0.43973500  0.46724300  0.11223200  1
  C  3717  1  0.44726700  0.45130000  0.10414200  1
  C  3718  1  0.46290700  0.44281200  0.11187700  1
  C  3719  1  0.47103600  0.45037200  0.12777800  1
  C  3720  1  0.46357300  0.46627600  0.13600200  1
  C  3721  1  0.44793200  0.47467000  0.12817700  1
  C  3726  1  0.41180100  0.48225400  0.09897800  1
  C  3727  1  0.42522200  0.47503100  0.10509200  1
  C  3728  1  0.47883300  0.47942000  0.16382500  1
  C  3729  1  0.47126800  0.47323500  0.15063300  1
  C  3730  1  0.46994500  0.42818100  0.10425800  1
  C  3731  1  0.47643700  0.41498100  0.09697500  1
  C  3732  1  0.34574700  0.51338900  0.07806800  1
  C  3733  1  0.50830400  0.35739200  0.05885300  1
  C  3734  1  0.51870400  0.50926200  0.22130600  1
  C  3735  1  0.48918600  0.50496700  0.20555300  1
  C  3739  1  0.13458700  0.21711800  0.08837600  1
  C  3740  1  0.13024400  0.13204300  0.17784800  1
  C  3741  1  0.22120800  0.12776200  0.09308700  1
  C  3742  1  0.13896300  0.12059300  0.19083300  1
  C  3743  1  0.10992200  0.11683400  0.20760300  1
  C  3744  1  0.10137900  0.12844200  0.19456700  1
  C  3745  1  0.11139400  0.13600800  0.17989000  1
  C  3746  1  0.12337100  0.22991200  0.09766800  1
  C  3747  1  0.11535100  0.24466300  0.08805000  1
  C  3748  1  0.11830800  0.24691700  0.06896000  1
  C  3749  1  0.12967000  0.23405400  0.05984000  1
  C  3750  1  0.13775800  0.21935700  0.06940100  1
  C  3751  1  0.23062200  0.13438400  0.07748000  1
  C  3752  1  0.24730500  0.12628200  0.07194300  1
  C  3753  1  0.25495600  0.11144400  0.08190200  1
  C  3754  1  0.24530500  0.10479000  0.09739500  1
  C  3755  1  0.22859700  0.11277700  0.10290000  1
  C  3767  1  0.17834600  0.15080100  0.11222500  1
  C  3768  1  0.17081400  0.16674500  0.10413500  1
  C  3769  1  0.15517500  0.17523400  0.11187000  1
  C  3770  1  0.14704900  0.16767700  0.12777400  1
  C  3771  1  0.15451000  0.15177200  0.13599800  1
  C  3772  1  0.17014900  0.14337600  0.12817200  1
  C  3777  1  0.20627900  0.13578700  0.09897400  1
  C  3778  1  0.19285900  0.14301200  0.10508700  1
  C  3779  1  0.13925100  0.13863100  0.16382200  1
  C  3780  1  0.14681600  0.14481400  0.15062900  1
  C  3781  1  0.14814200  0.18986800  0.10425500  1
  C  3782  1  0.14165200  0.20307200  0.09697400  1
  C  3783  1  0.27233800  0.10465200  0.07807600  1
  C  3784  1  0.10977100  0.26065500  0.05886100  1
  C  3785  1  0.09937800  0.10880000  0.22130800  1
  C  3786  1  0.12889800  0.11309900  0.20556000  1
  C  3790  1  0.48349900  0.21712800  0.45121300  1
  C  3791  1  0.48784200  0.13204400  0.36175000  1
  C  3792  1  0.39687400  0.12777700  0.44651200  1
  C  3793  1  0.47912200  0.12060400  0.34875600  1
  C  3794  1  0.50816800  0.11684100  0.33199300  1
  C  3795  1  0.51671100  0.12843900  0.34503700  1
  C  3796  1  0.50669400  0.13600700  0.35971000  1
  C  3797  1  0.49470700  0.22992800  0.44192000  1
  C  3798  1  0.50273100  0.24467400  0.45153900  1
  C  3799  1  0.49978400  0.24692000  0.47063300  1
  C  3800  1  0.48842000  0.23405900  0.47975200  1
  C  3801  1  0.48032700  0.21936500  0.47019000  1
  C  3802  1  0.38745600  0.13440900  0.46211200  1
  C  3803  1  0.37078100  0.12629700  0.46765900  1
  C  3804  1  0.36313400  0.11144800  0.45771200  1
  C  3805  1  0.37278300  0.10479800  0.44221600  1
  C  3806  1  0.38949400  0.11277900  0.43671300  1
  C  3818  1  0.43973400  0.15081600  0.42736400  1
  C  3819  1  0.44726300  0.16676000  0.43545000  1
  C  3820  1  0.46290300  0.17524800  0.42771500  1
  C  3821  1  0.47103100  0.16768800  0.41181400  1
  C  3822  1  0.46357000  0.15178200  0.40359300  1
  C  3823  1  0.44793000  0.14338800  0.41141800  1
  C  3828  1  0.41180100  0.13580300  0.44062000  1
  C  3829  1  0.42522100  0.14302700  0.43450400  1
  C  3830  1  0.47883200  0.13863500  0.37577300  1
  C  3831  1  0.47126600  0.14482100  0.38896300  1
  C  3832  1  0.46993900  0.18988200  0.43533200  1
  C  3833  1  0.47643100  0.20308400  0.44261300  1
  C  3834  1  0.34574300  0.10467300  0.46152600  1
  C  3835  1  0.50831700  0.26066400  0.48073100  1
  C  3836  1  0.51871100  0.10882000  0.31828000  1
  C  3837  1  0.48919100  0.11310600  0.33403500  1
  C  3841  1  0.59531000  0.82492600  0.48242800  1
  C  3842  1  0.58114300  0.82326400  0.49558200  1
  C  3843  1  0.57535000  0.80581600  0.50195900  1
  C  3844  1  0.58367700  0.78997000  0.49456600  1
  C  3845  1  0.59749000  0.79120800  0.48097400  1
  C  3846  1  0.60329100  0.80874700  0.47520800  1
  C  3853  1  0.02276200  0.79314500  0.48242900  1
  C  3854  1  0.03693600  0.79480500  0.49557500  1
  C  3855  1  0.04272500  0.81225100  0.50196000  1
  C  3856  1  0.03440300  0.82809800  0.49456600  1
  C  3857  1  0.02059000  0.82686300  0.48097300  1
  C  3858  1  0.01479000  0.80932600  0.47520300  1
  C  3865  1  0.59532000  0.79313400  0.05716100  1
  C  3866  1  0.58115400  0.79479700  0.04400700  1
  C  3867  1  0.57535900  0.81224600  0.03763200  1
  C  3868  1  0.58368500  0.82809200  0.04502700  1
  C  3869  1  0.59749600  0.82685200  0.05862100  1
  C  3870  1  0.60329900  0.80931500  0.06438400  1
  C  3877  1  0.02276700  0.82492800  0.05716700  1
  C  3878  1  0.03694000  0.82326700  0.04402100  1
  C  3879  1  0.04272900  0.80581900  0.03763700  1
  C  3880  1  0.03440500  0.78997200  0.04503300  1
  C  3881  1  0.02059400  0.79121100  0.05862600  1
  C  3882  1  0.01479500  0.80874800  0.06439400  1
  C  3889  1  0.82559500  0.52160200  0.55619000  1
  C  3890  1  0.82410400  0.53476700  0.54202000  1
  C  3891  1  0.80673400  0.54122700  0.53609300  1
  C  3892  1  0.79078500  0.53390200  0.54429300  1
  C  3893  1  0.79185500  0.52029800  0.55811400  1
  C  3894  1  0.80932300  0.51445100  0.56404500  1
  C  3901  1  0.79249600  0.52159400  0.98340010  1
  C  3902  1  0.79398400  0.53475000  0.99757807  1
  C  3903  1  0.81135400  0.54121800  0.00349700  1
  C  3904  1  0.82730300  0.53389400  0.99529907  1
  C  3905  1  0.82623600  0.52029200  0.98147810  1
  C  3906  1  0.80876800  0.51443900  0.97555010  1
  C  3913  1  0.79249000  0.09648100  0.55619500  1
  C  3914  1  0.79397600  0.08331700  0.54202500  1
  C  3915  1  0.81134200  0.07685100  0.53609900  1
  C  3916  1  0.82729300  0.08417100  0.54430000  1
  C  3917  1  0.82622900  0.09777400  0.55812100  1
  C  3918  1  0.80876300  0.10362600  0.56405200  1
  C  3925  1  0.82560100  0.09646500  0.98339710  1
  C  3926  1  0.82411100  0.08330800  0.99757507  1
  C  3927  1  0.80674000  0.07684000  0.00349500  1
  C  3928  1  0.79079300  0.08416800  0.99529607  1
  C  3929  1  0.79186000  0.09777000  0.98147610  1
  C  3930  1  0.80932900  0.10362100  0.97554910  1
  C  3937  1  0.52167400  0.59568000  0.78464700  1
  C  3938  1  0.53481600  0.58147800  0.78334600  1
  C  3939  1  0.54122800  0.57528900  0.76605400  1
  C  3940  1  0.53386500  0.58325300  0.74999900  1
  C  3941  1  0.52027600  0.59710600  0.75089100  1
  C  3942  1  0.51448600  0.60330500  0.76828600  1
  C  3949  1  0.52168100  0.02237800  0.75494200  1
  C  3950  1  0.53481500  0.03658800  0.75624600  1
  C  3951  1  0.54122800  0.04277200  0.77354000  1
  C  3952  1  0.53385500  0.03481400  0.78959400  1
  C  3953  1  0.52026700  0.02096000  0.78869800  1
  C  3954  1  0.51448100  0.01476200  0.77130100  1
  C  3961  1  0.09640700  0.59568000  0.75494500  1
  C  3962  1  0.08326200  0.58148200  0.75624700  1
  C  3963  1  0.07685000  0.57529200  0.77353900  1
  C  3964  1  0.08421700  0.58325500  0.78959400  1
  C  3965  1  0.09780900  0.59710500  0.78870100  1
  C  3966  1  0.10359600  0.60330500  0.77130500  1
  C  3973  1  0.09639800  0.02238300  0.78464800  1
  C  3974  1  0.08326300  0.03659100  0.78334500  1
  C  3975  1  0.07684600  0.04277400  0.76605200  1
  C  3976  1  0.08421600  0.03481500  0.74999700  1
  C  3977  1  0.09780600  0.02096200  0.75089100  1
  C  3978  1  0.10359500  0.01476600  0.76828800  1
  C  3985  1  0.82325600  0.59562600  0.05702400  1
  C  3986  1  0.82178200  0.58142500  0.04389300  1
  C  3987  1  0.80440800  0.57530900  0.03762600  1
  C  3988  1  0.78845300  0.58334700  0.04511800  1
  C  3989  1  0.78951800  0.59719300  0.05869700  1
  C  3990  1  0.80698400  0.60331900  0.06434400  1
  C  3997  1  0.79484000  0.02242900  0.05701700  1
  C  3998  1  0.79631300  0.03663900  0.04389500  1
  C  3999  1  0.81368700  0.04274800  0.03762000  1
  C  4000  1  0.82964200  0.03471100  0.04511200  1
  C  4001  1  0.82857900  0.02086600  0.05869200  1
  C  4002  1  0.81111200  0.01474200  0.06434200  1
  C  4009  1  0.79483700  0.59563700  0.48256800  1
  C  4010  1  0.79630700  0.58143500  0.49569700  1
  C  4011  1  0.81368100  0.57532100  0.50196800  1
  C  4012  1  0.82963700  0.58335800  0.49448100  1
  C  4013  1  0.82857400  0.59720500  0.48090100  1
  C  4014  1  0.81111000  0.60333200  0.47525100  1
  C  4021  1  0.82324100  0.02243900  0.48257900  1
  C  4022  1  0.82176700  0.03664900  0.49570000  1
  C  4023  1  0.80439300  0.04275900  0.50197400  1
  C  4024  1  0.78843700  0.03472200  0.49448100  1
  C  4025  1  0.78950200  0.02087600  0.48090300  1
  C  4026  1  0.80696900  0.01475200  0.47525200  1
  C  4033  1  0.52171400  0.82492700  0.98345510  1
  C  4034  1  0.53486500  0.82327400  0.99762507  1
  C  4035  1  0.54118700  0.80582700  0.00348000  1
  C  4036  1  0.53374400  0.78997500  0.99520807  1
  C  4037  1  0.52015200  0.79120700  0.98139510  1
  C  4038  1  0.51443900  0.80874200  0.97553410  1
  C  4045  1  0.52171100  0.79313200  0.55614000  1
  C  4046  1  0.53485400  0.79478500  0.54196200  1
  C  4047  1  0.54117900  0.81223200  0.53611100  1
  C  4048  1  0.53373100  0.82808500  0.54437800  1
  C  4049  1  0.52013900  0.82685200  0.55819100  1
  C  4050  1  0.51442700  0.80931700  0.56405200  1
  C  4057  1  0.09637100  0.79312900  0.98346110  1
  C  4058  1  0.08322000  0.79478600  0.99763107  1
  C  4059  1  0.07690000  0.81223500  0.00348500  1
  C  4060  1  0.08434700  0.82808500  0.99521507  1
  C  4061  1  0.09794000  0.82685100  0.98140210  1
  C  4062  1  0.10364800  0.80931400  0.97554010  1
  C  4069  1  0.09636700  0.82493000  0.55614200  1
  C  4070  1  0.08322100  0.82327700  0.54196600  1
  C  4071  1  0.07689700  0.80582900  0.53611200  1
  C  4072  1  0.08434400  0.78997800  0.54437900  1
  C  4073  1  0.09793600  0.79120900  0.55819400  1
  C  4074  1  0.10365000  0.80874500  0.56405300  1
  C  4081  1  0.59573400  0.52174300  0.75495100  1
  C  4082  1  0.58152500  0.53487900  0.75624900  1
  C  4083  1  0.57526900  0.54122200  0.77354200  1
  C  4084  1  0.58317300  0.53379900  0.78960000  1
  C  4085  1  0.59703300  0.52021600  0.78870800  1
  C  4086  1  0.60329800  0.51449400  0.77131300  1
  C  4093  1  0.02234700  0.52174500  0.78463700  1
  C  4094  1  0.03656100  0.53487400  0.78334100  1
  C  4095  1  0.04280500  0.54123300  0.76604900  1
  C  4096  1  0.03490100  0.53381100  0.74999200  1
  C  4097  1  0.02104400  0.52022500  0.75088100  1
  C  4098  1  0.01478700  0.51449400  0.76827500  1
  C  4105  1  0.59573500  0.09631900  0.78464100  1
  C  4106  1  0.58152900  0.08318200  0.78334500  1
  C  4107  1  0.57527700  0.07683000  0.76605300  1
  C  4108  1  0.58318500  0.08424900  0.74999500  1
  C  4109  1  0.59704200  0.09783400  0.75088400  1
  C  4110  1  0.60330200  0.10356300  0.76827800  1
  C  4117  1  0.02234100  0.09632400  0.75495600  1
  C  4118  1  0.03655200  0.08319100  0.75625100  1
  C  4119  1  0.04279300  0.07682900  0.77354200  1
  C  4120  1  0.03488700  0.08424800  0.78960100  1
  C  4121  1  0.02103500  0.09783700  0.78871200  1
  C  4122  1  0.01478200  0.10357400  0.77131900  1
  C  4129  1  0.32320600  0.52183400  0.05643000  1
  C  4130  1  0.32173100  0.53498400  0.04224700  1
  C  4131  1  0.30435700  0.54127500  0.03615600  1
  C  4132  1  0.28840300  0.53378800  0.04419700  1
  C  4133  1  0.28946800  0.52018400  0.05801800  1
  C  4134  1  0.30693400  0.51451300  0.06412400  1
  C  4141  1  0.29487300  0.52184500  0.48316100  1
  C  4142  1  0.29634900  0.53498700  0.49735200  1
  C  4143  1  0.31372500  0.54128100  0.50343700  1
  C  4144  1  0.32967800  0.53378900  0.49540000  1
  C  4145  1  0.32861100  0.52018400  0.48158000  1
  C  4146  1  0.31114400  0.51451400  0.47547500  1
  C  4153  1  0.29487900  0.09622800  0.05643200  1
  C  4154  1  0.29635100  0.08307700  0.04225000  1
  C  4155  1  0.31372500  0.07678600  0.03615900  1
  C  4156  1  0.32968000  0.08427400  0.04419700  1
  C  4157  1  0.32861600  0.09788000  0.05801800  1
  C  4158  1  0.31115000  0.10354800  0.06412500  1
  C  4165  1  0.32320100  0.09622700  0.48316100  1
  C  4166  1  0.32172700  0.08308600  0.49735000  1
  C  4167  1  0.30435100  0.07678900  0.50343600  1
  C  4168  1  0.28839800  0.08428000  0.49539800  1
  C  4169  1  0.28946300  0.09788500  0.48157800  1
  C  4170  1  0.30693000  0.10355600  0.47547500  1
  C  4177  1  0.02210000  0.59572300  0.28566400  1
  C  4178  1  0.03526200  0.58156000  0.28404800  1
  C  4179  1  0.04123500  0.57533900  0.26660600  1
  C  4180  1  0.03343600  0.58323600  0.25073600  1
  C  4181  1  0.01981100  0.59702100  0.25194400  1
  C  4182  1  0.01444800  0.60325000  0.26946400  1
  C  4189  1  0.02209100  0.02234300  0.25394200  1
  C  4190  1  0.03524700  0.03651400  0.25555200  1
  C  4191  1  0.04122800  0.04273000  0.27299300  1
  C  4192  1  0.03342800  0.03483700  0.28886500  1
  C  4193  1  0.01980200  0.02105300  0.28766200  1
  C  4194  1  0.01443400  0.01482600  0.27014200  1
  C  4201  1  0.59598800  0.59572400  0.25393200  1
  C  4202  1  0.58282400  0.58156200  0.25554600  1
  C  4203  1  0.57685000  0.57534000  0.27298900  1
  C  4204  1  0.58464900  0.58323800  0.28885900  1
  C  4205  1  0.59827500  0.59702200  0.28765200  1
  C  4206  1  0.60363800  0.60325100  0.27013200  1
  C  4213  1  0.59598900  0.02233300  0.28565700  1
  C  4214  1  0.58283500  0.03650500  0.28404800  1
  C  4215  1  0.57685300  0.04272200  0.26660700  1
  C  4216  1  0.58465100  0.03482900  0.25073300  1
  C  4217  1  0.59827600  0.02104400  0.25193700  1
  C  4218  1  0.60364500  0.01481500  0.26945600  1
  C  4225  1  0.32555300  0.59578200  0.55690100  1
  C  4226  1  0.32411200  0.58161900  0.54372500  1
  C  4227  1  0.30674900  0.57532300  0.53760600  1
  C  4228  1  0.29077700  0.58314600  0.54528000  1
  C  4229  1  0.29181200  0.59693800  0.55891600  1
  C  4230  1  0.30926300  0.60324100  0.56442200  1
  C  4237  1  0.29252400  0.02228300  0.55689500  1
  C  4238  1  0.29396600  0.03645600  0.54372700  1
  C  4239  1  0.31132800  0.04274600  0.53760300  1
  C  4240  1  0.32730100  0.03492500  0.54528000  1
  C  4241  1  0.32626600  0.02113300  0.55891600  1
  C  4242  1  0.30881500  0.01483300  0.56442400  1
  C  4249  1  0.29253300  0.59578000  0.98269510  1
  C  4250  1  0.29397400  0.58161500  0.99587007  1
  C  4251  1  0.31133600  0.57531700  0.00198900  1
  C  4252  1  0.32730800  0.58313900  0.99431507  1
  C  4253  1  0.32627400  0.59693200  0.98068010  1
  C  4254  1  0.30882500  0.60323700  0.97517510  1
  C  4261  1  0.32555100  0.02227900  0.98270210  1
  C  4262  1  0.32410800  0.03645000  0.99587007  1
  C  4263  1  0.30674500  0.04274100  0.00199300  1
  C  4264  1  0.29077400  0.03492000  0.99431607  1
  C  4265  1  0.29180900  0.02112700  0.98068010  1
  C  4266  1  0.30926000  0.01482700  0.97517410  1
  C  4273  1  0.09538800  0.52168500  0.25392100  1
  C  4274  1  0.08124300  0.53486300  0.25558600  1
  C  4275  1  0.07547900  0.54126400  0.27303600  1
  C  4276  1  0.08380900  0.53387200  0.28887900  1
  C  4277  1  0.09759200  0.52024800  0.28763700  1
  C  4278  1  0.10336800  0.51446100  0.27009800  1
  C  4285  1  0.52269300  0.52169200  0.28566700  1
  C  4286  1  0.53684600  0.53486000  0.28400300  1
  C  4287  1  0.54260600  0.54126800  0.26655500  1
  C  4288  1  0.53427700  0.53387700  0.25071000  1
  C  4289  1  0.52049300  0.52025600  0.25195000  1
  C  4290  1  0.51471800  0.51446400  0.26948700  1
  C  4297  1  0.09538300  0.09638300  0.28566800  1
  C  4298  1  0.08123600  0.08320700  0.28400600  1
  C  4299  1  0.07547200  0.07680200  0.26655600  1
  C  4300  1  0.08380400  0.08419000  0.25071100  1
  C  4301  1  0.09758900  0.09781100  0.25195100  1
  C  4302  1  0.10336500  0.10360200  0.26948800  1
  C  4309  1  0.52269800  0.09637000  0.25392700  1
  C  4310  1  0.53685100  0.08320200  0.25559300  1
  C  4311  1  0.54261000  0.07679400  0.27304300  1
  C  4312  1  0.53428000  0.08419000  0.28888600  1
  C  4313  1  0.52049600  0.09781100  0.28764200  1
  C  4314  1  0.51472300  0.10360200  0.27010500  1
  C  4321  1  0.59577000  0.32486600  0.98281310  1
  C  4322  1  0.58163000  0.32324300  0.99600107  1
  C  4323  1  0.57549700  0.30579600  0.00205500  1
  C  4324  1  0.58345500  0.28993000  0.99430907  1
  C  4325  1  0.59721000  0.29114600  0.98065510  1
  C  4326  1  0.60335500  0.30867100  0.97521410  1
  C  4333  1  0.02231500  0.29319600  0.98281610  1
  C  4334  1  0.03645900  0.29481800  0.99599907  1
  C  4335  1  0.04259300  0.31226400  0.00205600  1
  C  4336  1  0.03464000  0.32813100  0.99430807  1
  C  4337  1  0.02088400  0.32691700  0.98065410  1
  C  4338  1  0.01473800  0.30939400  0.97521010  1
  C  4345  1  0.59576800  0.29319300  0.55678100  1
  C  4346  1  0.58163000  0.29481900  0.54359300  1
  C  4347  1  0.57549600  0.31226500  0.53753900  1
  C  4348  1  0.58345100  0.32813000  0.54528700  1
  C  4349  1  0.59720500  0.32691400  0.55894200  1
  C  4350  1  0.60335300  0.30938900  0.56438200  1
  C  4357  1  0.02230800  0.32487200  0.55678400  1
  C  4358  1  0.03645200  0.32325000  0.54360100  1
  C  4359  1  0.04258300  0.30580300  0.53754300  1
  C  4360  1  0.03463000  0.28993700  0.54529100  1
  C  4361  1  0.02087500  0.29115200  0.55894600  1
  C  4362  1  0.01473100  0.30867500  0.56439100  1
  C  4369  1  0.52214600  0.32487200  0.48305500  1
  C  4370  1  0.53533200  0.32325700  0.49719700  1
  C  4371  1  0.54132800  0.30581300  0.50339500  1
  C  4372  1  0.53352800  0.28994400  0.49549700  1
  C  4373  1  0.51987300  0.29115300  0.48174200  1
  C  4374  1  0.51448900  0.30867400  0.47553200  1
  C  4381  1  0.52215100  0.29318900  0.05654200  1
  C  4382  1  0.53532800  0.29480300  0.04239300  1
  C  4383  1  0.54133000  0.31224700  0.03620000  1
  C  4384  1  0.53352700  0.32811600  0.04409400  1
  C  4385  1  0.51987300  0.32690700  0.05784900  1
  C  4386  1  0.51448700  0.30938800  0.06405700  1
  C  4393  1  0.09593300  0.29319300  0.48306200  1
  C  4394  1  0.08274700  0.29481000  0.49720300  1
  C  4395  1  0.07675100  0.31225400  0.50340000  1
  C  4396  1  0.08455300  0.32812100  0.49550200  1
  C  4397  1  0.09820800  0.32691200  0.48174800  1
  C  4398  1  0.10359200  0.30939000  0.47554100  1
  C  4405  1  0.09594300  0.32486800  0.05653900  1
  C  4406  1  0.08276400  0.32325300  0.04239100  1
  C  4407  1  0.07676000  0.30581000  0.03619900  1
  C  4408  1  0.08456300  0.28994000  0.04409400  1
  C  4409  1  0.09822000  0.29114800  0.05784800  1
  C  4410  1  0.10360700  0.30866900  0.06405400  1
  N  1642  1  0.80612500  0.04748600  0.68240300  1
  N  1643  1  0.76845800  0.00911800  0.72062100  1
  N  1644  1  0.81162900  0.98253400  0.67950900  1
  N  1654  1  0.22377800  0.98241400  0.68239900  1
  N  1655  1  0.26144900  0.02077500  0.72062300  1
  N  1656  1  0.21828800  0.04736500  0.67950200  1
  N  1666  1  0.80613600  0.98240100  0.26902300  1
  N  1667  1  0.76846600  0.02077200  0.23080900  1
  N  1668  1  0.81163100  0.04735400  0.27193100  1
  N  1678  1  0.22378600  0.04749000  0.26902900  1
  N  1679  1  0.26145300  0.00912100  0.23081300  1
  N  1680  1  0.21828800  0.98253600  0.27193300  1
  N  1690  1  0.04810000  0.72152600  0.76712800  1
  N  1691  1  0.01023400  0.75991800  0.72920100  1
  N  1692  1  0.98310300  0.71886600  0.77215300  1
  N  1702  1  0.98182200  0.72151900  0.18430100  1
  N  1703  1  0.01968500  0.75991000  0.22222900  1
  N  1704  1  0.04682000  0.71886500  0.17927300  1
  N  1714  1  0.98182000  0.30839100  0.76713700  1
  N  1715  1  0.01967200  0.26998600  0.72920700  1
  N  1716  1  0.04681600  0.31102500  0.77216300  1
  N  1726  1  0.04810500  0.30836800  0.18430000  1
  N  1727  1  0.01024000  0.26997600  0.22222500  1
  N  1728  1  0.98310800  0.31103000  0.17927400  1
  N  1738  1  0.72165800  0.80686400  0.00708400  1
  N  1739  1  0.75992400  0.76835500  0.96975900  1
  N  1740  1  0.71878400  0.81092400  0.94204700  1
  N  1750  1  0.72167000  0.22302500  0.94434000  1
  N  1751  1  0.75992200  0.26153500  0.98167500  1
  N  1752  1  0.71876600  0.21897400  0.00937700  1
  N  1762  1  0.30825600  0.80686400  0.94434600  1
  N  1763  1  0.26998700  0.76835900  0.98167300  1
  N  1764  1  0.31113900  0.81091900  0.00938200  1
  N  1774  1  0.30824300  0.22303100  0.00708900  1
  N  1775  1  0.26998300  0.26153700  0.96975600  1
  N  1776  1  0.31113400  0.21897300  0.94204900  1
  N  1786  1  0.04575300  0.80675100  0.26876800  1
  N  1787  1  0.00791000  0.76837000  0.23080900  1
  N  1788  1  0.98075000  0.81105300  0.27212800  1
  N  1798  1  0.98417200  0.22313800  0.26875800  1
  N  1799  1  0.02201600  0.26151500  0.23080300  1
  N  1800  1  0.04918000  0.21882900  0.27211700  1
  N  1810  1  0.98417100  0.80676200  0.68266100  1
  N  1811  1  0.02200900  0.76838100  0.72062400  1
  N  1812  1  0.04917600  0.81106900  0.67931500  1
  N  1822  1  0.04574000  0.22314800  0.68267600  1
  N  1823  1  0.00789400  0.26152600  0.72062800  1
  N  1824  1  0.98073500  0.21884200  0.67931000  1
  N  1834  1  0.72174300  0.04749000  0.18441100  1
  N  1835  1  0.75984000  0.00913400  0.22221400  1
  N  1836  1  0.71862700  0.98252600  0.17914900  1
  N  1846  1  0.72174000  0.98239700  0.76702000  1
  N  1847  1  0.75983000  0.02075500  0.72921500  1
  N  1848  1  0.71860800  0.04735900  0.77227100  1
  N  1858  1  0.30817000  0.98239300  0.18441900  1
  N  1859  1  0.27008100  0.02075900  0.22222000  1
  N  1860  1  0.31130200  0.04735600  0.17915900  1
  N  1870  1  0.30817100  0.04749300  0.76702000  1
  N  1871  1  0.27007800  0.00913600  0.72921500  1
  N  1872  1  0.31129500  0.98253000  0.77227700  1
  N  1882  1  0.80698400  0.72179500  0.94434700  1
  N  1883  1  0.76832600  0.75990400  0.98167500  1
  N  1884  1  0.81079600  0.71865900  0.00938900  1
  N  1894  1  0.22293300  0.72179400  0.00708000  1
  N  1895  1  0.26158000  0.75991500  0.96975600  1
  N  1896  1  0.21911000  0.71867400  0.94203500  1
  N  1906  1  0.80698600  0.30810000  0.00708200  1
  N  1907  1  0.76833400  0.26997500  0.96976000  1
  N  1908  1  0.81080700  0.31121300  0.94203900  1
  N  1918  1  0.22292700  0.30811100  0.94435500  1
  N  1919  1  0.26156700  0.26997200  0.98167300  1
  N  1920  1  0.21910700  0.31122100  0.00939600  1
  N  1930  1  0.54570400  0.72191500  0.26754500  1
  N  1931  1  0.50786100  0.75994700  0.22924400  1
  N  1932  1  0.48070000  0.71858200  0.27188000  1
  N  1942  1  0.48420500  0.72192900  0.68388700  1
  N  1943  1  0.52205400  0.75995300  0.72218800  1
  N  1944  1  0.54920900  0.71857700  0.67955800  1
  N  1954  1  0.48421400  0.30797800  0.26755000  1
  N  1955  1  0.52205200  0.26994100  0.22924600  1
  N  1956  1  0.54921500  0.31131400  0.27187400  1
  N  1966  1  0.54570000  0.30797200  0.68388700  1
  N  1967  1  0.50785600  0.26994400  0.72218600  1
  N  1968  1  0.48069600  0.31131800  0.67955400  1
  N  1978  1  0.22249900  0.80697700  0.50824100  1
  N  1979  1  0.25986700  0.76841600  0.46993000  1
  N  1980  1  0.21790800  0.81072300  0.44325700  1
  N  1990  1  0.22248400  0.22291600  0.44320400  1
  N  1991  1  0.25986000  0.26148100  0.48150500  1
  N  1992  1  0.21789900  0.21917900  0.50818600  1
  N  2002  1  0.80742000  0.80697800  0.44319400  1
  N  2003  1  0.77005000  0.76841900  0.48150100  1
  N  2004  1  0.81200900  0.81072500  0.50817700  1
  N  2014  1  0.80742800  0.22290500  0.50823200  1
  N  2015  1  0.77005200  0.26147300  0.46993400  1
  N  2016  1  0.81200700  0.21917000  0.44324700  1
  N  2026  1  0.54806100  0.80709900  0.76845000  1
  N  2027  1  0.51027000  0.76840500  0.73076500  1
  N  2028  1  0.48304200  0.81059300  0.77255600  1
  N  2038  1  0.48184800  0.22279800  0.76844400  1
  N  2039  1  0.51963800  0.26149200  0.73076200  1
  N  2040  1  0.54686700  0.21930500  0.77255700  1
  N  2050  1  0.48185700  0.80709700  0.18298500  1
  N  2051  1  0.51964500  0.76839800  0.22066800  1
  N  2052  1  0.54687600  0.81058800  0.17888000  1
  N  2062  1  0.54806200  0.22279300  0.18299700  1
  N  2063  1  0.51026700  0.26148800  0.22067100  1
  N  2064  1  0.48303900  0.21929900  0.17888100  1
  N  2074  1  0.30618700  0.72164200  0.44319400  1
  N  2075  1  0.26861200  0.75994500  0.48156900  1
  N  2076  1  0.31172000  0.71876700  0.50814300  1
  N  2086  1  0.72372700  0.72164900  0.50823200  1
  N  2087  1  0.76130500  0.75994900  0.46986100  1
  N  2088  1  0.71819300  0.71878000  0.44328000  1
  N  2098  1  0.30618200  0.30825800  0.50823100  1
  N  2099  1  0.26860500  0.26994900  0.46986400  1
  N  2100  1  0.31172000  0.31111300  0.44328100  1
  N  2110  1  0.72373600  0.30823900  0.44319800  1
  N  2111  1  0.76130900  0.26994300  0.48157500  1
  N  2112  1  0.71819800  0.31112100  0.50814900  1
  N  2122  1  0.80694900  0.54743900  0.18314500  1
  N  2123  1  0.76860900  0.50911000  0.22072100  1
  N  2124  1  0.81096500  0.48245500  0.17880900  1
  N  2134  1  0.22296800  0.48245300  0.18314400  1
  N  2135  1  0.26131400  0.52077500  0.22072100  1
  N  2136  1  0.21896400  0.54743400  0.17880300  1
  N  2146  1  0.80694600  0.48245000  0.76828800  1
  N  2147  1  0.76860800  0.52077800  0.73071100  1
  N  2148  1  0.81096000  0.54743100  0.77263200  1
  N  2158  1  0.22296300  0.54744200  0.76829600  1
  N  2159  1  0.26130400  0.50911800  0.73071600  1
  N  2160  1  0.21895400  0.48246200  0.77263700  1
  N  2170  1  0.72253700  0.54744500  0.68364500  1
  N  2171  1  0.75998400  0.50913100  0.72212500  1
  N  2172  1  0.71796500  0.48246100  0.67988000  1
  N  2182  1  0.72253800  0.48244600  0.26779000  1
  N  2183  1  0.75998700  0.52075500  0.22930700  1
  N  2184  1  0.71796100  0.54742600  0.27154600  1
  N  2194  1  0.30737900  0.48245100  0.68365200  1
  N  2195  1  0.26992600  0.52076500  0.72213000  1
  N  2196  1  0.31195400  0.54742900  0.67988800  1
  N  2206  1  0.30739000  0.54743700  0.26778800  1
  N  2207  1  0.26993600  0.50912900  0.22930800  1
  N  2208  1  0.31196400  0.48245800  0.27154500  1
  N  3850  1  0.60020900  0.84157200  0.47648400  1
  N  3851  1  0.56254200  0.80320400  0.51470200  1
  N  3852  1  0.60571300  0.77662000  0.47359000  1
  N  3862  1  0.01786200  0.77650000  0.47648000  1
  N  3863  1  0.05553300  0.81486100  0.51470400  1
  N  3864  1  0.01237200  0.84145100  0.47358300  1
  N  3874  1  0.60022000  0.77648700  0.06310400  1
  N  3875  1  0.56255000  0.81485800  0.02489000  1
  N  3876  1  0.60571500  0.84144000  0.06601200  1
  N  3886  1  0.01787000  0.84157600  0.06311000  1
  N  3887  1  0.05553700  0.80320700  0.02489400  1
  N  3888  1  0.01237200  0.77662200  0.06601400  1
  N  3898  1  0.84218400  0.51561200  0.56120900  1
  N  3899  1  0.80431800  0.55400400  0.52328200  1
  N  3900  1  0.77718700  0.51295200  0.56623400  1
  N  3910  1  0.77590600  0.51560500  0.97838210  1
  N  3911  1  0.81376900  0.55399600  0.01631000  1
  N  3912  1  0.84090400  0.51295100  0.97335410  1
  N  3922  1  0.77590400  0.10247700  0.56121800  1
  N  3923  1  0.81375600  0.06407200  0.52328800  1
  N  3924  1  0.84090000  0.10511100  0.56624400  1
  N  3934  1  0.84218900  0.10245400  0.97838110  1
  N  3935  1  0.80432400  0.06406200  0.01630600  1
  N  3936  1  0.77719200  0.10511600  0.97335510  1
  N  3946  1  0.51574200  0.60095000  0.80116500  1
  N  3947  1  0.55400800  0.56244100  0.76384000  1
  N  3948  1  0.51286800  0.60501000  0.73612800  1
  N  3958  1  0.51575400  0.01711100  0.73842100  1
  N  3959  1  0.55400600  0.05562100  0.77575600  1
  N  3960  1  0.51285000  0.01306000  0.80345800  1
  N  3970  1  0.10234000  0.60095000  0.73842700  1
  N  3971  1  0.06407100  0.56244500  0.77575400  1
  N  3972  1  0.10522300  0.60500500  0.80346300  1
  N  3982  1  0.10232700  0.01711700  0.80117000  1
  N  3983  1  0.06406700  0.05562300  0.76383700  1
  N  3984  1  0.10521800  0.01305900  0.73613000  1
  N  3994  1  0.83983700  0.60083700  0.06284900  1
  N  3995  1  0.80199400  0.56245600  0.02489000  1
  N  3996  1  0.77483400  0.60513900  0.06620900  1
  N  4006  1  0.77825600  0.01722400  0.06283900  1
  N  4007  1  0.81610000  0.05560100  0.02488400  1
  N  4008  1  0.84326400  0.01291500  0.06619800  1
  N  4018  1  0.77825500  0.60084800  0.47674200  1
  N  4019  1  0.81609300  0.56246700  0.51470500  1
  N  4020  1  0.84326000  0.60515500  0.47339600  1
  N  4030  1  0.83982400  0.01723400  0.47675700  1
  N  4031  1  0.80197800  0.05561200  0.51470900  1
  N  4032  1  0.77481900  0.01292800  0.47339100  1
  N  4042  1  0.51582700  0.84157600  0.97849210  1
  N  4043  1  0.55392400  0.80322000  0.01629500  1
  N  4044  1  0.51271100  0.77661200  0.97323010  1
  N  4054  1  0.51582400  0.77648300  0.56110100  1
  N  4055  1  0.55391400  0.81484100  0.52329600  1
  N  4056  1  0.51269200  0.84144500  0.56635200  1
  N  4066  1  0.10225400  0.77647900  0.97850010  1
  N  4067  1  0.06416500  0.81484500  0.01630100  1
  N  4068  1  0.10538600  0.84144200  0.97324010  1
  N  4078  1  0.10225500  0.84157900  0.56110100  1
  N  4079  1  0.06416200  0.80322200  0.52329600  1
  N  4080  1  0.10537900  0.77661600  0.56635800  1
  N  4090  1  0.60106800  0.51588100  0.73842800  1
  N  4091  1  0.56241000  0.55399000  0.77575600  1
  N  4092  1  0.60488000  0.51274500  0.80347000  1
  N  4102  1  0.01701700  0.51588000  0.80116100  1
  N  4103  1  0.05566400  0.55400100  0.76383700  1
  N  4104  1  0.01319400  0.51276000  0.73611600  1
  N  4114  1  0.60107000  0.10218600  0.80116300  1
  N  4115  1  0.56241800  0.06406100  0.76384100  1
  N  4116  1  0.60489100  0.10529900  0.73612000  1
  N  4126  1  0.01701100  0.10219700  0.73843600  1
  N  4127  1  0.05565100  0.06405800  0.77575400  1
  N  4128  1  0.01319100  0.10530700  0.80347700  1
  N  4138  1  0.33978800  0.51600100  0.06162600  1
  N  4139  1  0.30194500  0.55403300  0.02332500  1
  N  4140  1  0.27478400  0.51266800  0.06596100  1
  N  4150  1  0.27828900  0.51601500  0.47796800  1
  N  4151  1  0.31613800  0.55403900  0.51626900  1
  N  4152  1  0.34329300  0.51266300  0.47363900  1
  N  4162  1  0.27829800  0.10206400  0.06163100  1
  N  4163  1  0.31613600  0.06402700  0.02332700  1
  N  4164  1  0.34329900  0.10540000  0.06595500  1
  N  4174  1  0.33978400  0.10205800  0.47796800  1
  N  4175  1  0.30194000  0.06403000  0.51626700  1
  N  4176  1  0.27478000  0.10540400  0.47363500  1
  N  4186  1  0.01658300  0.60106300  0.30232200  1
  N  4187  1  0.05395100  0.56250200  0.26401100  1
  N  4188  1  0.01199200  0.60480900  0.23733800  1
  N  4198  1  0.01656800  0.01700200  0.23728500  1
  N  4199  1  0.05394400  0.05556700  0.27558600  1
  N  4200  1  0.01198300  0.01326500  0.30226700  1
  N  4210  1  0.60150400  0.60106400  0.23727500  1
  N  4211  1  0.56413400  0.56250500  0.27558200  1
  N  4212  1  0.60609300  0.60481100  0.30225800  1
  N  4222  1  0.60151200  0.01699100  0.30231300  1
  N  4223  1  0.56413600  0.05555900  0.26401500  1
  N  4224  1  0.60609100  0.01325600  0.23732800  1
  N  4234  1  0.34214500  0.60118500  0.56253100  1
  N  4235  1  0.30435400  0.56249100  0.52484600  1
  N  4236  1  0.27712600  0.60467900  0.56663700  1
  N  4246  1  0.27593200  0.01688400  0.56252500  1
  N  4247  1  0.31372200  0.05557800  0.52484300  1
  N  4248  1  0.34095100  0.01339100  0.56663800  1
  N  4258  1  0.27594100  0.60118300  0.97706610  1
  N  4259  1  0.31372900  0.56248400  0.01474900  1
  N  4260  1  0.34096000  0.60467400  0.97296110  1
  N  4270  1  0.34214600  0.01687900  0.97707810  1
  N  4271  1  0.30435100  0.05557400  0.01475200  1
  N  4272  1  0.27712300  0.01338500  0.97296210  1
  N  4282  1  0.10027100  0.51572800  0.23727500  1
  N  4283  1  0.06269600  0.55403100  0.27565000  1
  N  4284  1  0.10580400  0.51285300  0.30222400  1
  N  4294  1  0.51781100  0.51573500  0.30231300  1
  N  4295  1  0.55538900  0.55403500  0.26394200  1
  N  4296  1  0.51227700  0.51286600  0.23736100  1
  N  4306  1  0.10026600  0.10234400  0.30231200  1
  N  4307  1  0.06268900  0.06403500  0.26394500  1
  N  4308  1  0.10580400  0.10519900  0.23736200  1
  N  4318  1  0.51782000  0.10232500  0.23727900  1
  N  4319  1  0.55539300  0.06402900  0.27565600  1
  N  4320  1  0.51228200  0.10520700  0.30223000  1
  N  4330  1  0.60103300  0.34152500  0.97722610  1
  N  4331  1  0.56269300  0.30319600  0.01480200  1
  N  4332  1  0.60504900  0.27654100  0.97289010  1
  N  4342  1  0.01705200  0.27653900  0.97722510  1
  N  4343  1  0.05539800  0.31486100  0.01480200  1
  N  4344  1  0.01304800  0.34152000  0.97288410  1
  N  4354  1  0.60103000  0.27653600  0.56236900  1
  N  4355  1  0.56269200  0.31486400  0.52479200  1
  N  4356  1  0.60504400  0.34151700  0.56671300  1
  N  4366  1  0.01704700  0.34152800  0.56237700  1
  N  4367  1  0.05538800  0.30320400  0.52479700  1
  N  4368  1  0.01303800  0.27654800  0.56671800  1
  N  4378  1  0.51662100  0.34153100  0.47772600  1
  N  4379  1  0.55406800  0.30321700  0.51620600  1
  N  4380  1  0.51204900  0.27654700  0.47396100  1
  N  4390  1  0.51662200  0.27653200  0.06187100  1
  N  4391  1  0.55407100  0.31484100  0.02338800  1
  N  4392  1  0.51204500  0.34151200  0.06562700  1
  N  4402  1  0.10146300  0.27653700  0.47773300  1
  N  4403  1  0.06401000  0.31485100  0.51621100  1
  N  4404  1  0.10603800  0.34151500  0.47396900  1
  N  4414  1  0.10147400  0.34152300  0.06186900  1
  N  4415  1  0.06402000  0.30321500  0.02338900  1
  N  4416  1  0.10604800  0.27654400  0.06562600  1
