# generated using pymatgen
data_H32C49(NO)4
_symmetry_space_group_name_H-M   'P 1'
_cell_length_a   43.29090000
_cell_length_b   43.29090000
_cell_length_c   43.29090000
_cell_angle_alpha   90.00000000
_cell_angle_beta   90.00000000
_cell_angle_gamma   90.00000000
_symmetry_Int_Tables_number   1
_chemical_formula_structural   H32C49(NO)4
_chemical_formula_sum   'H768 C1176 N96 O96'
_cell_volume   81131.56325927
_cell_formula_units_Z   24
loop_
 _symmetry_equiv_pos_site_id
 _symmetry_equiv_pos_as_xyz
  1  'x, y, z'
loop_
 _atom_site_type_symbol
 _atom_site_label
 _atom_site_symmetry_multiplicity
 _atom_site_fract_x
 _atom_site_fract_y
 _atom_site_fract_z
 _atom_site_occupancy
  H  25  1  0.28071200  0.94193000  0.20035700  1
  H  26  1  0.27418400  0.97710800  0.24192400  1
  H  27  1  0.27406400  0.02907500  0.26453600  1
  H  28  1  0.28042100  0.06421600  0.30616800  1
  H  29  1  0.37521500  0.04019100  0.31210200  1
  H  30  1  0.37536300  0.96645000  0.19438600  1
  H  31  1  0.37139400  0.94359700  0.28879500  1
  H  32  1  0.46518800  0.95142300  0.31574300  1
  H  33  1  0.47180100  0.99281800  0.28024800  1
  H  34  1  0.37154900  0.06312500  0.21792800  1
  H  35  1  0.47183600  0.01350900  0.22618600  1
  H  36  1  0.46535900  0.05515900  0.19095600  1
  H  62  1  0.22602500  0.06451400  0.70012800  1
  H  63  1  0.23256600  0.02964500  0.74191300  1
  H  64  1  0.23269100  0.97793700  0.76509800  1
  H  65  1  0.22623300  0.94279100  0.80662200  1
  H  66  1  0.13134300  0.96665300  0.81213300  1
  H  67  1  0.13134700  0.03997900  0.69436300  1
  H  68  1  0.13501700  0.06310300  0.78863900  1
  H  69  1  0.04105300  0.05516700  0.81510400  1
  H  70  1  0.03473900  0.01358500  0.77985400  1
  H  71  1  0.13571100  0.94354200  0.71826800  1
  H  72  1  0.03501100  0.99222200  0.72604400  1
  H  73  1  0.04191100  0.95067700  0.69093700  1
  H  99  1  0.72614500  0.44206700  0.30636700  1
  H  100  1  0.73271200  0.47707700  0.26470900  1
  H  101  1  0.73287200  0.52920800  0.24231900  1
  H  102  1  0.72661900  0.56452900  0.20084000  1
  H  103  1  0.63188800  0.54043000  0.19442600  1
  H  104  1  0.63144900  0.46658500  0.31215300  1
  H  105  1  0.63568800  0.44342800  0.21822500  1
  H  106  1  0.54181600  0.45073400  0.19121200  1
  H  107  1  0.53515600  0.49253100  0.22615100  1
  H  108  1  0.63541700  0.56326600  0.28827300  1
  H  109  1  0.53508400  0.51378900  0.28003100  1
  H  110  1  0.54158500  0.55556000  0.31512100  1
  H  136  1  0.78109200  0.56444900  0.80689400  1
  H  137  1  0.77437900  0.52963500  0.76513000  1
  H  138  1  0.77410900  0.47788300  0.74204900  1
  H  139  1  0.78034800  0.44271400  0.70041900  1
  H  140  1  0.87520000  0.46645300  0.69445500  1
  H  141  1  0.87576300  0.53976400  0.81230400  1
  H  142  1  0.87155200  0.56313900  0.71792000  1
  H  143  1  0.96543600  0.55538900  0.69099700  1
  H  144  1  0.97196800  0.51391400  0.72625600  1
  H  145  1  0.87155000  0.44348800  0.78843300  1
  H  146  1  0.97201000  0.49273400  0.78005700  1
  H  147  1  0.96545200  0.45101100  0.81519400  1
  H  173  1  0.20033200  0.27992000  0.94298300  1
  H  174  1  0.24176200  0.27373400  0.97832700  1
  H  175  1  0.26474100  0.27416600  0.03012100  1
  H  176  1  0.30647300  0.28096000  0.06504000  1
  H  177  1  0.31213900  0.37547800  0.03988700  1
  H  178  1  0.19449900  0.37490500  0.96626000  1
  H  179  1  0.28828200  0.37093700  0.94349800  1
  H  180  1  0.31562700  0.46472300  0.95086000  1
  H  181  1  0.28036800  0.47156300  0.99229600  1
  H  182  1  0.21786700  0.37169500  0.06315900  1
  H  183  1  0.22649900  0.47181900  0.01340700  1
  H  184  1  0.19112800  0.46555000  0.05494500  1
  H  210  1  0.70069200  0.22640700  0.06461700  1
  H  211  1  0.74232400  0.23271600  0.02946400  1
  H  212  1  0.76496400  0.23265200  0.97748700  1
  H  213  1  0.80669600  0.22609600  0.94249800  1
  H  214  1  0.81229300  0.13134100  0.96675500  1
  H  215  1  0.69443900  0.13170600  0.04033500  1
  H  216  1  0.78859000  0.13494800  0.06329100  1
  H  217  1  0.81492100  0.04098900  0.05518300  1
  H  218  1  0.77959100  0.03480500  0.01355400  1
  H  219  1  0.71848100  0.13582600  0.94341300  1
  H  220  1  0.72569000  0.03518400  0.99242500  1
  H  221  1  0.69086100  0.04214100  0.95050200  1
  H  247  1  0.30696500  0.72549600  0.44191000  1
  H  248  1  0.26507200  0.73239800  0.47657300  1
  H  249  1  0.24214100  0.73293200  0.52836700  1
  H  250  1  0.20079600  0.72695100  0.56380400  1
  H  251  1  0.19454300  0.63194100  0.54060500  1
  H  252  1  0.31231000  0.63095400  0.46711900  1
  H  253  1  0.21798400  0.63547700  0.44355900  1
  H  254  1  0.19067000  0.54170000  0.45121900  1
  H  255  1  0.22578500  0.53502200  0.49280500  1
  H  256  1  0.28855700  0.63518400  0.56312500  1
  H  257  1  0.27981600  0.53487700  0.51370100  1
  H  258  1  0.31526000  0.54125200  0.55505200  1
  H  284  1  0.80711600  0.78167000  0.56507200  1
  H  285  1  0.76521400  0.77458700  0.53044100  1
  H  286  1  0.74261100  0.77392000  0.47841900  1
  H  287  1  0.70137300  0.77974500  0.44274600  1
  H  288  1  0.69451500  0.87465900  0.46596400  1
  H  289  1  0.81227400  0.87614700  0.53958200  1
  H  290  1  0.71791300  0.87152700  0.56319400  1
  H  291  1  0.69074500  0.96533600  0.55542100  1
  H  292  1  0.72584300  0.97189700  0.51375700  1
  H  293  1  0.78842400  0.87158900  0.44351800  1
  H  294  1  0.77982600  0.97195400  0.49288400  1
  H  295  1  0.81517600  0.96544700  0.45135100  1
  H  321  1  0.94251200  0.20035000  0.28020000  1
  H  322  1  0.97784700  0.24181100  0.27385200  1
  H  323  1  0.02972700  0.26459400  0.27401600  1
  H  324  1  0.06457300  0.30644800  0.28057800  1
  H  325  1  0.03999400  0.31218100  0.37524500  1
  H  326  1  0.96639000  0.19440100  0.37501400  1
  H  327  1  0.94353000  0.28837700  0.37078700  1
  H  328  1  0.95067500  0.31574700  0.46450400  1
  H  329  1  0.99224500  0.28052100  0.47147800  1
  H  330  1  0.06323400  0.21799400  0.37167600  1
  H  331  1  0.01339200  0.22664300  0.47182400  1
  H  332  1  0.05518600  0.19152900  0.46562000  1
  H  358  1  0.06434700  0.70065000  0.22645200  1
  H  359  1  0.02919700  0.74223200  0.23272300  1
  H  360  1  0.97737600  0.76516500  0.23255200  1
  H  361  1  0.94235000  0.80675300  0.22588500  1
  H  362  1  0.96684000  0.81225100  0.13115300  1
  H  363  1  0.04033300  0.69451500  0.13166200  1
  H  364  1  0.06315000  0.78867100  0.13512200  1
  H  365  1  0.05524000  0.81526300  0.04119200  1
  H  366  1  0.01371100  0.77996700  0.03480300  1
  H  367  1  0.94357200  0.71830800  0.13561000  1
  H  368  1  0.99236500  0.72616600  0.03497500  1
  H  369  1  0.95076300  0.69111000  0.04177500  1
  H  395  1  0.44170700  0.30643400  0.72574100  1
  H  396  1  0.47656400  0.26466700  0.73244000  1
  H  397  1  0.52864200  0.24222200  0.73286300  1
  H  398  1  0.56409700  0.20084000  0.72674100  1
  H  399  1  0.54066100  0.19461600  0.63183200  1
  H  400  1  0.46677000  0.31228700  0.63119000  1
  H  401  1  0.44349500  0.21810900  0.63539600  1
  H  402  1  0.45121000  0.19101900  0.54157500  1
  H  403  1  0.49291200  0.22608200  0.53501700  1
  H  404  1  0.56320600  0.28859400  0.63527400  1
  H  405  1  0.51367100  0.28017400  0.53498100  1
  H  406  1  0.55523000  0.31550700  0.54147600  1
  H  432  1  0.56518800  0.80704200  0.78167000  1
  H  433  1  0.53060500  0.76513300  0.77466800  1
  H  434  1  0.47872200  0.74227300  0.77397700  1
  H  435  1  0.44317800  0.70092800  0.77987900  1
  H  436  1  0.46615100  0.69459600  0.87489500  1
  H  437  1  0.53955400  0.81243600  0.87608900  1
  H  438  1  0.56316000  0.71783200  0.87187800  1
  H  439  1  0.55521600  0.69129700  0.96585400  1
  H  440  1  0.51369400  0.72654500  0.97215100  1
  H  441  1  0.44353200  0.78838700  0.87133300  1
  H  442  1  0.49251400  0.78032800  0.97194000  1
  H  443  1  0.45084500  0.81548500  0.96515400  1
  H  469  1  0.69095800  0.54207900  0.05601400  1
  H  470  1  0.72607400  0.53508200  0.01443400  1
  H  471  1  0.77987500  0.53465500  0.99329800  1
  H  472  1  0.81530300  0.54076500  0.95180200  1
  H  473  1  0.78893200  0.63472400  0.94351000  1
  H  474  1  0.71844200  0.63583300  0.06312500  1
  H  475  1  0.69450400  0.63102100  0.96683100  1
  H  476  1  0.70007500  0.72554000  0.94158800  1
  H  477  1  0.74187100  0.73236600  0.97634800  1
  H  478  1  0.81221600  0.63185800  0.04047100  1
  H  479  1  0.76469800  0.73286000  0.02820700  1
  H  480  1  0.80597300  0.72680400  0.06378400  1
  H  506  1  0.81566300  0.46511100  0.55552500  1
  H  507  1  0.78054000  0.47166200  0.51377500  1
  H  508  1  0.72652400  0.47164200  0.49289300  1
  H  509  1  0.69122300  0.46506700  0.45132100  1
  H  510  1  0.71820400  0.37127600  0.44349000  1
  H  511  1  0.78853000  0.37134800  0.56327100  1
  H  512  1  0.81218200  0.37477600  0.46608200  1
  H  513  1  0.80580900  0.27992000  0.44246900  1
  H  514  1  0.76444000  0.27380800  0.47795700  1
  H  515  1  0.69449200  0.37547400  0.53994700  1
  H  516  1  0.74198500  0.27416400  0.53004200  1
  H  517  1  0.70016300  0.28090000  0.56489200  1
  H  543  1  0.19130700  0.96543100  0.95150200  1
  H  544  1  0.22653400  0.97181600  0.99306000  1
  H  545  1  0.28041400  0.97171600  0.01406600  1
  H  546  1  0.31560700  0.96506800  0.05558100  1
  H  547  1  0.28851800  0.87120300  0.06312400  1
  H  548  1  0.21821600  0.87161200  0.94338500  1
  H  549  1  0.19449600  0.87533400  0.04004300  1
  H  550  1  0.20018100  0.78053300  0.06421300  1
  H  551  1  0.24176700  0.77404400  0.02914000  1
  H  552  1  0.31219900  0.87511000  0.96634100  1
  H  553  1  0.26441600  0.77404900  0.97715200  1
  H  554  1  0.30595300  0.78038100  0.94199700  1
  H  580  1  0.31598100  0.04165700  0.45104100  1
  H  581  1  0.28078400  0.03488700  0.49258600  1
  H  582  1  0.22680400  0.03464000  0.51348400  1
  H  583  1  0.19150500  0.04097700  0.55509100  1
  H  584  1  0.21809200  0.13486900  0.56309300  1
  H  585  1  0.28858700  0.13540300  0.44342100  1
  H  586  1  0.31226200  0.13119000  0.54010600  1
  H  587  1  0.30632300  0.22587600  0.56466100  1
  H  588  1  0.26478500  0.23240200  0.52953400  1
  H  589  1  0.19451000  0.13133200  0.46656000  1
  H  590  1  0.24199300  0.23252000  0.47759000  1
  H  591  1  0.20028300  0.22612100  0.44255000  1
  H  617  1  0.04155500  0.45132300  0.31568700  1
  H  618  1  0.03498000  0.49289100  0.28038700  1
  H  619  1  0.03495200  0.51389300  0.22644500  1
  H  620  1  0.04153300  0.55562900  0.19133400  1
  H  621  1  0.13533700  0.56327100  0.21833200  1
  H  622  1  0.13530200  0.44345600  0.28857800  1
  H  623  1  0.13141300  0.54023300  0.31219900  1
  H  624  1  0.22617100  0.56437000  0.30647500  1
  H  625  1  0.23266800  0.52921900  0.26487500  1
  H  626  1  0.13141100  0.46675800  0.19440600  1
  H  627  1  0.23269800  0.47748100  0.24178500  1
  H  628  1  0.22622100  0.44270000  0.19986800  1
  H  654  1  0.96564800  0.95165200  0.19137100  1
  H  655  1  0.97195200  0.99311800  0.22675200  1
  H  656  1  0.97168400  0.01420600  0.28065700  1
  H  657  1  0.96482800  0.05566200  0.31586300  1
  H  658  1  0.87106500  0.06304600  0.28844200  1
  H  659  1  0.87172300  0.94352300  0.21793600  1
  H  660  1  0.87532200  0.04002900  0.19453600  1
  H  661  1  0.78048700  0.06401100  0.20020400  1
  H  662  1  0.77404200  0.02891200  0.24182000  1
  H  663  1  0.87536600  0.96643100  0.31218300  1
  H  664  1  0.77412500  0.97705900  0.26478100  1
  H  665  1  0.78065100  0.94196900  0.30634800  1
  H  691  1  0.46461700  0.55604700  0.81575800  1
  H  692  1  0.47142700  0.51418200  0.78093700  1
  H  693  1  0.47173600  0.49307300  0.72699800  1
  H  694  1  0.46541900  0.45149600  0.69165500  1
  H  695  1  0.37146800  0.44355300  0.71804400  1
  H  696  1  0.37088600  0.56335600  0.78825800  1
  H  697  1  0.37481800  0.46639800  0.81225300  1
  H  698  1  0.27997600  0.44255200  0.80607700  1
  H  699  1  0.27379200  0.47768200  0.76447000  1
  H  700  1  0.37533300  0.53990800  0.69436700  1
  H  701  1  0.27402300  0.52965800  0.74178600  1
  H  702  1  0.28067100  0.56450600  0.69994600  1
  H  728  1  0.54250900  0.05616800  0.69029000  1
  H  729  1  0.53528300  0.01466700  0.72535800  1
  H  730  1  0.53449500  0.99368600  0.77921900  1
  H  731  1  0.54030700  0.95214900  0.81470000  1
  H  732  1  0.63444700  0.94366900  0.78903600  1
  H  733  1  0.63603400  0.06329500  0.71849200  1
  H  734  1  0.63107000  0.96660400  0.69453100  1
  H  735  1  0.72559800  0.94145100  0.70029000  1
  H  736  1  0.73237100  0.97637300  0.74195200  1
  H  737  1  0.63182300  0.04061600  0.81207800  1
  H  738  1  0.73281900  0.02839200  0.76446700  1
  H  739  1  0.72674100  0.06396500  0.80575300  1
  H  765  1  0.95159400  0.19112300  0.96534600  1
  H  766  1  0.99307700  0.22646900  0.97177900  1
  H  767  1  0.01408400  0.28042400  0.97166300  1
  H  768  1  0.05558300  0.31573800  0.96492500  1
  H  769  1  0.06316800  0.28841800  0.87119600  1
  H  770  1  0.94355800  0.21797500  0.87148300  1
  H  771  1  0.03999300  0.19442200  0.87527800  1
  H  772  1  0.06423600  0.20009600  0.78049800  1
  H  773  1  0.02917300  0.24169700  0.77400100  1
  H  774  1  0.96642200  0.31216000  0.87510300  1
  H  775  1  0.97730000  0.26454500  0.77399400  1
  H  776  1  0.94206100  0.30606600  0.78040600  1
  H  802  1  0.45139500  0.31511500  0.04087300  1
  H  803  1  0.49307100  0.27985500  0.03464800  1
  H  804  1  0.51408500  0.22596500  0.03499900  1
  H  805  1  0.55577500  0.19086400  0.04187700  1
  H  806  1  0.56313900  0.21828300  0.13557700  1
  H  807  1  0.44338400  0.28866600  0.13482500  1
  H  808  1  0.54040700  0.31216000  0.13169900  1
  H  809  1  0.56408400  0.30579200  0.22653900  1
  H  810  1  0.52861200  0.26440600  0.23267000  1
  H  811  1  0.46665000  0.19440900  0.13106300  1
  H  812  1  0.47650900  0.24195800  0.23233700  1
  H  813  1  0.44167900  0.20011900  0.22561400  1
  H  839  1  0.05603000  0.69067400  0.54228500  1
  H  840  1  0.01439600  0.72566900  0.53522800  1
  H  841  1  0.99347800  0.77954900  0.53465900  1
  H  842  1  0.95207000  0.81498600  0.54056600  1
  H  843  1  0.94350700  0.78892800  0.63464300  1
  H  844  1  0.06329100  0.71858900  0.63587700  1
  H  845  1  0.96660400  0.69450600  0.63116200  1
  H  846  1  0.94158100  0.70023900  0.72572700  1
  H  847  1  0.97641000  0.74198700  0.73245100  1
  H  848  1  0.04041600  0.81215900  0.63182300  1
  H  849  1  0.02838300  0.76460600  0.73285600  1
  H  850  1  0.06381500  0.80593600  0.72678100  1
  H  876  1  0.55675600  0.81580600  0.46420600  1
  H  877  1  0.51502300  0.78092100  0.47146100  1
  H  878  1  0.49367600  0.72718200  0.47206200  1
  H  879  1  0.45201900  0.69187300  0.46614900  1
  H  880  1  0.44355300  0.71785500  0.37212900  1
  H  881  1  0.56323600  0.78814000  0.37045900  1
  H  882  1  0.46672100  0.81228800  0.37560300  1
  H  883  1  0.44141600  0.80656600  0.28109100  1
  H  884  1  0.47625700  0.76482500  0.27429300  1
  H  885  1  0.54034700  0.69452700  0.37481300  1
  H  886  1  0.52822200  0.74212300  0.27378900  1
  H  887  1  0.56358200  0.70063900  0.27984900  1
  H  903  1  0.34454600  0.85454200  0.39322300  1
  H  904  1  0.34801300  0.89472100  0.39972400  1
  H  905  1  0.38825000  0.84456300  0.42977100  1
  H  906  1  0.35843100  0.86590400  0.44796000  1
  H  907  1  0.39254000  0.88498500  0.43573100  1
  H  910  1  0.52218800  0.86448100  0.24089800  1
  H  911  1  0.52399000  0.90447100  0.24906800  1
  H  912  1  0.48110300  0.87475200  0.20101900  1
  H  913  1  0.51591000  0.89474900  0.19287300  1
  H  914  1  0.48408300  0.91500200  0.20873700  1
  H  929  1  0.16150200  0.15223700  0.89294000  1
  H  930  1  0.15807200  0.11206100  0.89949100  1
  H  931  1  0.11769300  0.16219200  0.92939100  1
  H  932  1  0.14756100  0.14098300  0.94766500  1
  H  933  1  0.11352100  0.12177400  0.93544600  1
  H  936  1  0.98433300  0.14201300  0.74013700  1
  H  937  1  0.98258700  0.10199300  0.74817300  1
  H  938  1  0.02573000  0.13198400  0.70050500  1
  H  939  1  0.99102500  0.11193200  0.69205500  1
  H  940  1  0.02278600  0.09170400  0.70807000  1
  H  955  1  0.66103200  0.35413400  0.11297500  1
  H  956  1  0.65707500  0.39416800  0.10587300  1
  H  957  1  0.61697200  0.34311600  0.07719500  1
  H  958  1  0.64638000  0.36439300  0.05826200  1
  H  959  1  0.61224200  0.38337800  0.07056000  1
  H  962  1  0.48623800  0.36467500  0.26841900  1
  H  963  1  0.48278500  0.40374300  0.25696800  1
  H  964  1  0.52612000  0.38018800  0.30790800  1
  H  965  1  0.49019700  0.39894500  0.31388800  1
  H  966  1  0.52123900  0.41947100  0.29688200  1
  H  981  1  0.84472700  0.65216200  0.61342400  1
  H  982  1  0.84825400  0.61199900  0.60684800  1
  H  983  1  0.88843600  0.66228000  0.57692700  1
  H  984  1  0.85867200  0.64091000  0.55867600  1
  H  985  1  0.89280800  0.62187600  0.57090300  1
  H  988  1  0.02222300  0.64217400  0.76589500  1
  H  989  1  0.02370900  0.60208700  0.75813800  1
  H  990  1  0.98095200  0.63269400  0.80575600  1
  H  991  1  0.01553300  0.61243800  0.81420800  1
  H  992  1  0.98355300  0.59234100  0.79845400  1
  H  1007  1  0.39399300  0.34593200  0.85397300  1
  H  1008  1  0.40072100  0.34950100  0.89410700  1
  H  1009  1  0.42975800  0.39021100  0.84373800  1
  H  1010  1  0.44857000  0.36065800  0.86491800  1
  H  1011  1  0.43596900  0.39456800  0.88411400  1
  H  1014  1  0.23820200  0.52043200  0.86506400  1
  H  1015  1  0.24984500  0.52399900  0.90406700  1
  H  1016  1  0.19880300  0.48059000  0.88088900  1
  H  1017  1  0.19290700  0.51656300  0.89957700  1
  H  1018  1  0.21002200  0.48558200  0.92010500  1
  H  1033  1  0.89236500  0.16183800  0.15247800  1
  H  1034  1  0.89874500  0.15860600  0.11225800  1
  H  1035  1  0.92904200  0.11811200  0.16204800  1
  H  1036  1  0.94709700  0.14817600  0.14093100  1
  H  1037  1  0.93494400  0.11418800  0.12158400  1
  H  1040  1  0.74079700  0.98356000  0.14200600  1
  H  1041  1  0.74844300  0.98216200  0.10189600  1
  H  1042  1  0.70087400  0.02482600  0.13272600  1
  H  1043  1  0.69239000  0.99026300  0.11244500  1
  H  1044  1  0.70805400  0.02228300  0.09234800  1
  H  1059  1  0.11329900  0.66157300  0.35404400  1
  H  1060  1  0.10639300  0.65799900  0.39415000  1
  H  1061  1  0.07709100  0.61770500  0.34359600  1
  H  1062  1  0.05852300  0.64742700  0.36476000  1
  H  1063  1  0.07068200  0.61334800  0.38394000  1
  H  1066  1  0.26670000  0.48500700  0.36527500  1
  H  1067  1  0.25803300  0.48329800  0.40516300  1
  H  1068  1  0.30646100  0.52612000  0.37597000  1
  H  1069  1  0.31435000  0.49133400  0.39611100  1
  H  1070  1  0.29824300  0.52319100  0.41612400  1
  H  1085  1  0.61339900  0.84459300  0.65224500  1
  H  1086  1  0.60685900  0.84807600  0.61207300  1
  H  1087  1  0.57683900  0.88827200  0.66228000  1
  H  1088  1  0.55864600  0.85845900  0.64093300  1
  H  1089  1  0.57084500  0.89258700  0.62186700  1
  H  1092  1  0.76577500  0.02214700  0.64234000  1
  H  1093  1  0.75826500  0.02355300  0.60220500  1
  H  1094  1  0.80557500  0.98073900  0.63321400  1
  H  1095  1  0.81424700  0.01523900  0.61291600  1
  H  1096  1  0.79852300  0.98324800  0.59281000  1
  H  1111  1  0.85389000  0.39422100  0.34591800  1
  H  1112  1  0.89402300  0.40091800  0.34952600  1
  H  1113  1  0.84366200  0.42985200  0.39031500  1
  H  1114  1  0.86483500  0.44874500  0.36080800  1
  H  1115  1  0.88404000  0.43604800  0.39467400  1
  H  1118  1  0.86472200  0.23770800  0.51979300  1
  H  1119  1  0.90333700  0.25036700  0.52405900  1
  H  1120  1  0.88234400  0.19850700  0.48052300  1
  H  1121  1  0.90043600  0.19329300  0.51690100  1
  H  1122  1  0.92115400  0.21074600  0.48623600  1
  H  1137  1  0.15232800  0.89314300  0.16143500  1
  H  1138  1  0.11215900  0.89972200  0.15798000  1
  H  1139  1  0.16233400  0.92950400  0.11756800  1
  H  1140  1  0.14112200  0.94785200  0.14738900  1
  H  1141  1  0.12192400  0.93558200  0.11336000  1
  H  1144  1  0.14192500  0.74011400  0.98444700  1
  H  1145  1  0.10199800  0.74856800  0.98254100  1
  H  1146  1  0.13127100  0.70042600  0.02564500  1
  H  1147  1  0.11132400  0.69232100  0.99079400  1
  H  1148  1  0.09108700  0.70841900  0.02250600  1
  H  1163  1  0.35436300  0.11353700  0.66192600  1
  H  1164  1  0.39449600  0.10681100  0.65833400  1
  H  1165  1  0.34402600  0.07710500  0.61822400  1
  H  1166  1  0.36536100  0.05875700  0.64795800  1
  H  1167  1  0.38439500  0.07090800  0.61379600  1
  H  1170  1  0.36470000  0.26618700  0.48462600  1
  H  1171  1  0.40463900  0.25774900  0.48290000  1
  H  1172  1  0.37520100  0.30614000  0.52560000  1
  H  1173  1  0.39525800  0.31403800  0.49077000  1
  H  1174  1  0.41539900  0.29815300  0.52265700  1
  H  1189  1  0.65204000  0.61396000  0.84449100  1
  H  1190  1  0.61185600  0.60745300  0.84792400  1
  H  1191  1  0.66199800  0.57714200  0.88798100  1
  H  1192  1  0.64066300  0.55914300  0.85804100  1
  H  1193  1  0.62157400  0.57116400  0.89222200  1
  H  1196  1  0.64253200  0.76554600  0.02270800  1
  H  1197  1  0.60231100  0.75850100  0.02403800  1
  H  1198  1  0.63399000  0.80527300  0.98111100  1
  H  1199  1  0.61368500  0.81432800  0.01551100  1
  H  1200  1  0.59350100  0.79870100  0.98352000  1
  H  1215  1  0.66079400  0.15322300  0.61224400  1
  H  1216  1  0.65734600  0.11306800  0.60559100  1
  H  1217  1  0.61632100  0.16323100  0.57664700  1
  H  1218  1  0.64588100  0.14214000  0.55774500  1
  H  1219  1  0.61210300  0.12282800  0.57051700  1
  H  1222  1  0.48663600  0.14142000  0.76842900  1
  H  1223  1  0.48296000  0.10261900  0.75616500  1
  H  1224  1  0.52608000  0.12479600  0.80788100  1
  H  1225  1  0.48997600  0.10619700  0.81321400  1
  H  1226  1  0.52099100  0.08578000  0.79602800  1
  H  1241  1  0.84483100  0.85439200  0.11398900  1
  H  1242  1  0.84812200  0.89458700  0.10748500  1
  H  1243  1  0.88851900  0.84463700  0.07731500  1
  H  1244  1  0.85845500  0.86572000  0.05921300  1
  H  1245  1  0.89247600  0.88507500  0.07126300  1
  H  1248  1  0.02271500  0.86469900  0.26593600  1
  H  1249  1  0.02415700  0.90484100  0.25846800  1
  H  1250  1  0.98112900  0.87380200  0.30557700  1
  H  1251  1  0.01562300  0.89405100  0.31441500  1
  H  1252  1  0.98372100  0.91421000  0.29858700  1
  H  1267  1  0.34575800  0.65306500  0.89366100  1
  H  1268  1  0.34944500  0.61298300  0.90062500  1
  H  1269  1  0.38992500  0.66365600  0.92944700  1
  H  1270  1  0.36039200  0.64250200  0.94832600  1
  H  1271  1  0.39439000  0.62333400  0.93592400  1
  H  1274  1  0.52085700  0.64146200  0.73859400  1
  H  1275  1  0.52353900  0.60213300  0.74934000  1
  H  1276  1  0.48068300  0.62747800  0.69885100  1
  H  1277  1  0.51620300  0.60807900  0.69252200  1
  H  1278  1  0.48473400  0.58791100  0.70917400  1
  H  1293  1  0.16160300  0.35401900  0.39318200  1
  H  1294  1  0.15828700  0.39420500  0.39971700  1
  H  1295  1  0.11771300  0.34419900  0.42956100  1
  H  1296  1  0.14758700  0.36535800  0.44787900  1
  H  1297  1  0.11361500  0.38463300  0.43557200  1
  H  1300  1  0.98444400  0.36501000  0.24036200  1
  H  1301  1  0.98291300  0.40498800  0.24864600  1
  H  1302  1  0.02552500  0.37511600  0.20044400  1
  H  1303  1  0.99084700  0.39537800  0.19241200  1
  H  1304  1  0.02283900  0.41536400  0.20828300  1
  H  1319  1  0.61248200  0.66081100  0.15254700  1
  H  1320  1  0.60576700  0.65714200  0.11242100  1
  H  1321  1  0.57682100  0.61645000  0.16285100  1
  H  1322  1  0.55794100  0.64596700  0.14167600  1
  H  1323  1  0.57057700  0.61206800  0.12248500  1
  H  1326  1  0.76924200  0.48717600  0.14218000  1
  H  1327  1  0.75600400  0.48240800  0.10381800  1
  H  1328  1  0.80825300  0.52612000  0.12344000  1
  H  1329  1  0.81313100  0.48947700  0.10579300  1
  H  1330  1  0.79543700  0.51988000  0.08489900  1
  H  1345  1  0.11416700  0.84484000  0.85393000  1
  H  1346  1  0.10774500  0.84797200  0.89415300  1
  H  1347  1  0.07754300  0.88864100  0.84445200  1
  H  1348  1  0.05943400  0.85849900  0.86541500  1
  H  1349  1  0.07156500  0.89240600  0.88492000  1
  H  1352  1  0.26586200  0.02295600  0.86501700  1
  H  1353  1  0.25832700  0.02416100  0.90515300  1
  H  1354  1  0.30572900  0.98157100  0.87396400  1
  H  1355  1  0.31433600  0.01600200  0.89441400  1
  H  1356  1  0.29866300  0.98389900  0.91437600  1
  H  1371  1  0.89304900  0.34515300  0.65272800  1
  H  1372  1  0.89982100  0.34863700  0.61259300  1
  H  1373  1  0.92933600  0.38901500  0.66295900  1
  H  1374  1  0.94780100  0.35923200  0.64179000  1
  H  1375  1  0.93560000  0.39328100  0.62258300  1
  H  1378  1  0.74004900  0.52211400  0.64152000  1
  H  1379  1  0.74867700  0.52373800  0.60161800  1
  H  1380  1  0.70010500  0.48116300  0.63093400  1
  H  1381  1  0.69233900  0.51594600  0.61074200  1
  H  1382  1  0.70828900  0.48398800  0.59076600  1
  H  1397  1  0.39373600  0.16114300  0.35388700  1
  H  1398  1  0.40036300  0.15770700  0.39404800  1
  H  1399  1  0.42982000  0.11706500  0.34386700  1
  H  1400  1  0.44837800  0.14677800  0.36504700  1
  H  1401  1  0.43591800  0.11283400  0.38427200  1
  H  1404  1  0.23976900  0.98500600  0.36509000  1
  H  1405  1  0.24880500  0.98314400  0.40489100  1
  H  1406  1  0.19992300  0.02587900  0.37635400  1
  H  1407  1  0.19238000  0.99096300  0.39639700  1
  H  1408  1  0.20852400  0.02279400  0.41641800  1
  H  1423  1  0.15318500  0.61266700  0.66085900  1
  H  1424  1  0.11300600  0.60611600  0.65748700  1
  H  1425  1  0.16301500  0.57693800  0.61644100  1
  H  1426  1  0.14193300  0.55816300  0.64608700  1
  H  1427  1  0.12258800  0.57090700  0.61231800  1
  H  1430  1  0.14142000  0.76812200  0.48602100  1
  H  1431  1  0.10239000  0.75648000  0.48278200  1
  H  1432  1  0.12588800  0.80783700  0.52563400  1
  H  1433  1  0.10694200  0.81346200  0.48975600  1
  H  1434  1  0.08663000  0.79660100  0.52102100  1
  H  1449  1  0.85426000  0.11348900  0.84531100  1
  H  1450  1  0.89441800  0.10682100  0.84871800  1
  H  1451  1  0.84425100  0.07718800  0.88924000  1
  H  1452  1  0.86530600  0.05876500  0.85935100  1
  H  1453  1  0.88465000  0.07096900  0.89332100  1
  H  1456  1  0.86516800  0.26665600  0.02213400  1
  H  1457  1  0.90507200  0.25809800  0.02402000  1
  H  1458  1  0.87590400  0.30626700  0.98088000  1
  H  1459  1  0.89589000  0.31436200  0.01570900  1
  H  1460  1  0.91606700  0.29817100  0.98400800  1
  H  1475  1  0.65289900  0.89449200  0.34622700  1
  H  1476  1  0.61291100  0.90174800  0.35030900  1
  H  1477  1  0.66421500  0.92985800  0.39049800  1
  H  1478  1  0.64284600  0.94912500  0.36137800  1
  H  1479  1  0.62399200  0.93657300  0.39549900  1
  H  1482  1  0.64224100  0.73598100  0.51814800  1
  H  1483  1  0.60458400  0.75087300  0.52363900  1
  H  1484  1  0.62106600  0.69744200  0.48004500  1
  H  1485  1  0.60403400  0.69364200  0.51710100  1
  H  1486  1  0.58322600  0.71189500  0.48697000  1
  H  1501  1  0.35457300  0.39243300  0.16228700  1
  H  1502  1  0.39477800  0.39882700  0.15889500  1
  H  1503  1  0.34478400  0.42927200  0.11876700  1
  H  1504  1  0.36610200  0.44721600  0.14874700  1
  H  1505  1  0.38522900  0.43515100  0.11460100  1
  H  1508  1  0.36404400  0.24122400  0.98368700  1
  H  1509  1  0.40424900  0.24837100  0.98236300  1
  H  1510  1  0.37271300  0.20129300  0.02505400  1
  H  1511  1  0.39301300  0.19247500  0.99059300  1
  H  1512  1  0.41318400  0.20797300  0.02265400  1
  H  1527  1  0.84520000  0.35456200  0.89328900  1
  H  1528  1  0.84883200  0.39473200  0.89976600  1
  H  1529  1  0.88918200  0.34447200  0.92949000  1
  H  1530  1  0.85951700  0.36583400  0.94791500  1
  H  1531  1  0.89356600  0.38488000  0.93545900  1
  H  1534  1  0.02186900  0.36425200  0.73977900  1
  H  1535  1  0.02427600  0.40397600  0.74901800  1
  H  1536  1  0.98120600  0.37631700  0.69993200  1
  H  1537  1  0.01643600  0.39585900  0.69253500  1
  H  1538  1  0.98489200  0.41628400  0.70873300  1
  H  1553  1  0.66102100  0.65277200  0.39315600  1
  H  1554  1  0.65758100  0.61260400  0.39975100  1
  H  1555  1  0.61676700  0.66269100  0.42910200  1
  H  1556  1  0.64657900  0.64172300  0.44775000  1
  H  1557  1  0.61274700  0.62228300  0.43530400  1
  H  1560  1  0.48511100  0.64169600  0.23887700  1
  H  1561  1  0.48230400  0.60226900  0.24922800  1
  H  1562  1  0.52548000  0.62804200  0.19921400  1
  H  1563  1  0.48996200  0.60875800  0.19250400  1
  H  1564  1  0.52130300  0.58838200  0.20912900  1
  H  1579  1  0.16087500  0.85390400  0.61290000  1
  H  1580  1  0.15697800  0.89392900  0.60571800  1
  H  1581  1  0.11673800  0.84289300  0.57720600  1
  H  1582  1  0.14617000  0.86406100  0.55818600  1
  H  1583  1  0.11208700  0.88315000  0.57048200  1
  H  1586  1  0.98633100  0.86511400  0.76855800  1
  H  1587  1  0.98310700  0.90424000  0.75722800  1
  H  1588  1  0.02638000  0.88024500  0.80801500  1
  H  1589  1  0.99060300  0.89923700  0.81411800  1
  H  1590  1  0.02175800  0.91959200  0.79710900  1
  H  1605  1  0.34465200  0.15210800  0.11358100  1
  H  1606  1  0.34809800  0.11192900  0.10706300  1
  H  1607  1  0.38832600  0.16208400  0.07699500  1
  H  1608  1  0.35847700  0.14076400  0.05882700  1
  H  1609  1  0.39259000  0.12166400  0.07101300  1
  H  1612  1  0.52255800  0.14200700  0.26558700  1
  H  1613  1  0.52400600  0.10193200  0.25776800  1
  H  1614  1  0.48145400  0.13247400  0.30560400  1
  H  1615  1  0.51606900  0.11220400  0.31388300  1
  H  1616  1  0.48402100  0.09213100  0.29823600  1
  H  1631  1  0.89260700  0.84447500  0.35448500  1
  H  1632  1  0.89894100  0.84786800  0.39469700  1
  H  1633  1  0.92924300  0.88818200  0.34476300  1
  H  1634  1  0.94730900  0.85827700  0.36608800  1
  H  1635  1  0.93505100  0.89235100  0.38521700  1
  H  1638  1  0.74106300  0.02287400  0.36443000  1
  H  1639  1  0.74934200  0.02457900  0.40440300  1
  H  1640  1  0.70082100  0.98217400  0.37476700  1
  H  1641  1  0.69305300  0.01703300  0.39482200  1
  H  1642  1  0.70866400  0.98503600  0.41500200  1
  H  1657  1  0.39289300  0.66169500  0.65228200  1
  H  1658  1  0.39940900  0.65836000  0.61209400  1
  H  1659  1  0.42936300  0.61785900  0.66209300  1
  H  1660  1  0.44761300  0.64781700  0.64098700  1
  H  1661  1  0.43541700  0.61383300  0.62166100  1
  H  1664  1  0.24040100  0.48422600  0.64167300  1
  H  1665  1  0.24894100  0.48233900  0.60176400  1
  H  1666  1  0.20059000  0.52527900  0.63092700  1
  H  1667  1  0.19264800  0.49039600  0.61096900  1
  H  1668  1  0.20867600  0.52216000  0.59075900  1
  H  1683  1  0.61298800  0.16110100  0.85383000  1
  H  1684  1  0.60599500  0.15731200  0.89389900  1
  H  1685  1  0.57726900  0.11689100  0.84313100  1
  H  1686  1  0.55833000  0.14640900  0.86425500  1
  H  1687  1  0.57070900  0.11240600  0.88343500  1
  H  1690  1  0.76839900  0.98628100  0.86494600  1
  H  1691  1  0.75681000  0.98296800  0.90398600  1
  H  1692  1  0.80801900  0.02600900  0.88048500  1
  H  1693  1  0.81377600  0.99011300  0.89935700  1
  H  1694  1  0.79684600  0.02128700  0.91974700  1
  H  1709  1  0.11380800  0.34525000  0.15258300  1
  H  1710  1  0.10715900  0.34852100  0.11241000  1
  H  1711  1  0.07730100  0.38902200  0.16246800  1
  H  1712  1  0.05903100  0.35906400  0.14138500  1
  H  1713  1  0.07116300  0.39306400  0.12204900  1
  H  1716  1  0.26620400  0.52270100  0.14134800  1
  H  1717  1  0.25867500  0.52385800  0.10120800  1
  H  1718  1  0.30592800  0.48117500  0.13248300  1
  H  1719  1  0.31465000  0.51551700  0.11194100  1
  H  1720  1  0.29886200  0.48341100  0.09206700  1
  H  1735  1  0.35448800  0.89368400  0.84535500  1
  H  1736  1  0.39464200  0.90022600  0.84903700  1
  H  1737  1  0.34427800  0.92973300  0.88941500  1
  H  1738  1  0.36567200  0.94828400  0.85985500  1
  H  1739  1  0.38467000  0.93574400  0.89389600  1
  H  1742  1  0.36432800  0.73930500  0.02124100  1
  H  1743  1  0.40368500  0.74983400  0.02432300  1
  H  1744  1  0.37849700  0.69950500  0.98119200  1
  H  1745  1  0.39751300  0.69305500  0.01689500  1
  H  1746  1  0.41807800  0.70961300  0.98563600  1
  H  1761  1  0.65239100  0.39295500  0.66199600  1
  H  1762  1  0.61218400  0.39937000  0.65868100  1
  H  1763  1  0.66209500  0.42951300  0.61821500  1
  H  1764  1  0.64089600  0.44766400  0.64816400  1
  H  1765  1  0.62164500  0.43542200  0.61415400  1
  H  1768  1  0.64201400  0.24083600  0.48417300  1
  H  1769  1  0.60207500  0.24925100  0.48234400  1
  H  1770  1  0.63144200  0.20087200  0.52511500  1
  H  1771  1  0.61146500  0.19296700  0.49023200  1
  H  1772  1  0.59124400  0.20883700  0.52206800  1
  H  1787  1  0.85403100  0.61311900  0.16100600  1
  H  1788  1  0.89406500  0.60599300  0.15710000  1
  H  1789  1  0.84307300  0.57739100  0.11687100  1
  H  1790  1  0.86422700  0.55841300  0.14634300  1
  H  1791  1  0.88334000  0.57069000  0.11226600  1
  H  1794  1  0.86508700  0.76824200  0.98594100  1
  H  1795  1  0.90438800  0.75745900  0.98302800  1
  H  1796  1  0.87931600  0.80783900  0.02617300  1
  H  1797  1  0.89854900  0.81425800  0.99058200  1
  H  1798  1  0.91885100  0.79747900  0.02189500  1
  H  1813  1  0.15233000  0.11383700  0.34510000  1
  H  1814  1  0.11214400  0.10733200  0.34848900  1
  H  1815  1  0.16220000  0.07735000  0.38890100  1
  H  1816  1  0.14099900  0.05911700  0.35900100  1
  H  1817  1  0.12177100  0.07134300  0.39302900  1
  H  1820  1  0.14195900  0.26619700  0.52268000  1
  H  1821  1  0.10190800  0.25826200  0.52417500  1
  H  1822  1  0.13226300  0.30611500  0.48150700  1
  H  1823  1  0.11201400  0.31439600  0.51613400  1
  H  1824  1  0.09194500  0.29863300  0.48413800  1
  H  1839  1  0.16146200  0.65249900  0.11339300  1
  H  1840  1  0.15798600  0.61231100  0.10694900  1
  H  1841  1  0.11739400  0.66237900  0.07723700  1
  H  1842  1  0.14712200  0.64112100  0.05879400  1
  H  1843  1  0.11316700  0.62194800  0.07130800  1
  H  1846  1  0.98478100  0.64204900  0.26688300  1
  H  1847  1  0.98252000  0.60234600  0.25751800  1
  H  1848  1  0.02534500  0.62999300  0.30682400  1
  H  1849  1  0.99015700  0.61031000  0.31404700  1
  H  1850  1  0.02181900  0.59003800  0.29789200  1
  H  1865  1  0.34477400  0.35466100  0.61371300  1
  H  1866  1  0.34824400  0.39484700  0.60725700  1
  H  1867  1  0.38851300  0.34473300  0.57718100  1
  H  1868  1  0.35866900  0.36604900  0.55899700  1
  H  1869  1  0.39275900  0.38515900  0.57123800  1
  H  1872  1  0.52225000  0.36432600  0.76625300  1
  H  1873  1  0.52446600  0.40418200  0.75754000  1
  H  1874  1  0.48134300  0.37561500  0.80608100  1
  H  1875  1  0.51642700  0.39527500  0.81388400  1
  H  1876  1  0.48483100  0.41571500  0.79782100  1
  H  1891  1  0.84533000  0.15263100  0.39344300  1
  H  1892  1  0.84905800  0.11256400  0.40048600  1
  H  1893  1  0.88936000  0.16333100  0.42938800  1
  H  1894  1  0.85972500  0.14224700  0.44818900  1
  H  1895  1  0.89377900  0.12303100  0.43600600  1
  H  1898  1  0.02111500  0.14134400  0.23914700  1
  H  1899  1  0.02345200  0.10175800  0.24898800  1
  H  1900  1  0.98044600  0.12872600  0.19946400  1
  H  1901  1  0.01566300  0.10904300  0.19238300  1
  H  1902  1  0.98409500  0.08889100  0.20886800  1
  H  1917  1  0.66270900  0.85533900  0.89189100  1
  H  1918  1  0.65929500  0.89553600  0.89832200  1
  H  1919  1  0.61966600  0.84542700  0.92924300  1
  H  1920  1  0.64977800  0.86685400  0.94683400  1
  H  1921  1  0.61543400  0.88586200  0.93515200  1
  H  1924  1  0.48298800  0.86377500  0.74207700  1
  H  1925  1  0.48171100  0.90410900  0.74846600  1
  H  1926  1  0.52463900  0.87158000  0.70227400  1
  H  1927  1  0.49030400  0.89181500  0.69284300  1
  H  1928  1  0.52232400  0.91217500  0.70818100  1
  H  1943  1  0.11410300  0.16195700  0.65215500  1
  H  1944  1  0.10766000  0.15857900  0.61195700  1
  H  1945  1  0.07744800  0.11828400  0.66196300  1
  H  1946  1  0.05935600  0.14822300  0.64070500  1
  H  1947  1  0.07151900  0.11414400  0.62152500  1
  H  1950  1  0.26585500  0.98381800  0.64211200  1
  H  1951  1  0.25818600  0.98232400  0.60201100  1
  H  1952  1  0.30576800  0.02505900  0.63270100  1
  H  1953  1  0.31424100  0.99045700  0.61248600  1
  H  1954  1  0.29855700  0.02243800  0.59233200  1
  H  1969  1  0.61357400  0.34497300  0.35416700  1
  H  1970  1  0.60710600  0.34832000  0.39436200  1
  H  1971  1  0.57726700  0.38896600  0.34441900  1
  H  1972  1  0.55892100  0.35905000  0.36549900  1
  H  1973  1  0.57125100  0.39296900  0.38485700  1
  H  1976  1  0.76662700  0.52198200  0.36478300  1
  H  1977  1  0.75738000  0.52425500  0.40451700  1
  H  1978  1  0.80645800  0.48125600  0.37670300  1
  H  1979  1  0.81386600  0.51642200  0.39636900  1
  H  1980  1  0.79765700  0.48482000  0.41668300  1
  H  1995  1  0.39333600  0.84490700  0.15223100  1
  H  1996  1  0.40014600  0.84861200  0.11212400  1
  H  1997  1  0.42959600  0.88870600  0.16275400  1
  H  1998  1  0.44809400  0.85907400  0.14141000  1
  H  1999  1  0.43588800  0.89323600  0.12241100  1
  H  2002  1  0.24005300  0.02166800  0.14189300  1
  H  2003  1  0.24925100  0.02380200  0.10214200  1
  H  2004  1  0.20012700  0.98098900  0.13014500  1
  H  2005  1  0.19276400  0.01610100  0.11037600  1
  H  2006  1  0.20888800  0.98439800  0.09014300  1
  H  2021  1  0.89251000  0.66205600  0.85459900  1
  H  2022  1  0.89904500  0.65873900  0.89478800  1
  H  2023  1  0.92942300  0.61861700  0.84473800  1
  H  2024  1  0.94736500  0.64867200  0.86596000  1
  H  2025  1  0.93544800  0.61452100  0.88516700  1
  H  2028  1  0.74135400  0.48350600  0.86458300  1
  H  2029  1  0.74824000  0.48236400  0.90483900  1
  H  2030  1  0.70159700  0.52513500  0.87275800  1
  H  2031  1  0.69245900  0.49084400  0.89320300  1
  H  2032  1  0.70800800  0.52293900  0.91328400  1
  H  2047  1  0.65248600  0.11271700  0.16111400  1
  H  2048  1  0.61233900  0.10610900  0.15749200  1
  H  2049  1  0.66268400  0.07683300  0.11692200  1
  H  2050  1  0.64137500  0.05814500  0.14646000  1
  H  2051  1  0.62229400  0.07076000  0.11249200  1
  H  2054  1  0.64200800  0.26777400  0.98586000  1
  H  2055  1  0.60284000  0.25663100  0.98252900  1
  H  2056  1  0.62693500  0.30743400  0.02571800  1
  H  2057  1  0.60808800  0.31351400  0.98986100  1
  H  2058  1  0.58754800  0.29670900  0.02100500  1
  H  2073  1  0.35481300  0.61468100  0.34434700  1
  H  2074  1  0.39502000  0.60824800  0.34764100  1
  H  2075  1  0.34507200  0.57757800  0.38766300  1
  H  2076  1  0.36631000  0.55980800  0.35752100  1
  H  2077  1  0.38552000  0.57163700  0.39170100  1
  H  2080  1  0.36419600  0.76516500  0.52350000  1
  H  2081  1  0.40446400  0.75839000  0.52483800  1
  H  2082  1  0.37245700  0.80486800  0.48182200  1
  H  2083  1  0.39270100  0.81412900  0.51620500  1
  H  2084  1  0.41299000  0.79857800  0.48424700  1
  H  2099  1  0.15292000  0.39310800  0.84531100  1
  H  2100  1  0.11279600  0.39995200  0.84878300  1
  H  2101  1  0.16315300  0.42918500  0.88936400  1
  H  2102  1  0.14214800  0.44782400  0.85957300  1
  H  2103  1  0.12278800  0.43557900  0.89351800  1
  H  2106  1  0.14110800  0.23963200  0.02183500  1
  H  2107  1  0.10130500  0.24869400  0.02355300  1
  H  2108  1  0.12996100  0.19972100  0.98099800  1
  H  2109  1  0.10979500  0.19224800  0.01585800  1
  H  2110  1  0.08989200  0.20834700  0.98392900  1
  H  2125  1  0.85476600  0.89172000  0.66289900  1
  H  2126  1  0.89499100  0.89810300  0.65973900  1
  H  2127  1  0.84519300  0.92915600  0.61983700  1
  H  2128  1  0.86642200  0.94666700  0.65012900  1
  H  2129  1  0.88566100  0.93503000  0.61589600  1
  H  2132  1  0.86416300  0.74237500  0.48282200  1
  H  2133  1  0.90452000  0.74865300  0.48182200  1
  H  2134  1  0.87157500  0.70250100  0.52447700  1
  H  2135  1  0.89201600  0.69305300  0.49026700  1
  H  2136  1  0.91220300  0.70829600  0.52244400  1
  C  1  1  0.39515700  0.02402400  0.23580000  1
  C  2  1  0.42523200  0.01376900  0.24137400  1
  C  3  1  0.42522500  0.99256800  0.26499800  1
  C  4  1  0.39511300  0.98252200  0.27072400  1
  C  5  1  0.39199000  0.95512900  0.28889200  1
  C  6  1  0.41821200  0.94204700  0.30432700  1
  C  7  1  0.44591800  0.95968400  0.30472200  1
  C  8  1  0.45034600  0.98338900  0.28322600  1
  C  9  1  0.45041500  0.02303800  0.22327300  1
  C  10  1  0.44607000  0.04692500  0.20197200  1
  C  11  1  0.41839700  0.06457200  0.20244800  1
  C  12  1  0.39208700  0.05149600  0.21773200  1
  C  13  1  0.35115700  0.98579800  0.23242500  1
  C  14  1  0.32102300  0.99163700  0.24237400  1
  C  15  1  0.32098200  0.01479000  0.26406200  1
  C  16  1  0.35109000  0.02073700  0.27404400  1
  C  17  1  0.29552200  0.03214800  0.27392600  1
  C  18  1  0.29970900  0.05314100  0.29803500  1
  C  19  1  0.32786300  0.05389000  0.31485600  1
  C  20  1  0.35429100  0.03927400  0.30122000  1
  C  21  1  0.35446500  0.96717500  0.20532700  1
  C  22  1  0.32812400  0.95238400  0.19171000  1
  C  23  1  0.29996100  0.95302700  0.20854400  1
  C  24  1  0.29566900  0.97408200  0.23258500  1
  C  37  1  0.37311700  0.00328700  0.25325200  1
  C  38  1  0.11175900  0.98258700  0.73572700  1
  C  39  1  0.08157500  0.99251800  0.74130100  1
  C  40  1  0.08140100  0.01380900  0.76486900  1
  C  41  1  0.11144300  0.02407000  0.77061200  1
  C  42  1  0.11444500  0.05153000  0.78869000  1
  C  43  1  0.08814400  0.06458600  0.80397900  1
  C  44  1  0.06043200  0.04696700  0.80422600  1
  C  45  1  0.05614400  0.02312500  0.78284300  1
  C  46  1  0.05655000  0.98296800  0.72311700  1
  C  47  1  0.06120500  0.95918300  0.70172400  1
  C  48  1  0.08903500  0.94175600  0.70236000  1
  C  49  1  0.11508700  0.95501500  0.71789000  1
  C  50  1  0.15558000  0.02091100  0.73251800  1
  C  51  1  0.18570300  0.01521100  0.74258800  1
  C  52  1  0.18573700  0.99205600  0.76429400  1
  C  53  1  0.15560400  0.98604300  0.77415800  1
  C  54  1  0.21117500  0.97474700  0.77431000  1
  C  55  1  0.20689000  0.95363400  0.79831700  1
  C  56  1  0.17864600  0.95283000  0.81500200  1
  C  57  1  0.15229400  0.96749400  0.80129700  1
  C  58  1  0.15223900  0.03937700  0.70532800  1
  C  59  1  0.17854500  0.05414000  0.69164200  1
  C  60  1  0.20674700  0.05352500  0.70840000  1
  C  61  1  0.21107300  0.03261600  0.73257400  1
  C  74  1  0.13360600  0.00339800  0.75328300  1
  C  75  1  0.61176600  0.52416500  0.27050000  1
  C  76  1  0.58168100  0.51398300  0.26483400  1
  C  77  1  0.58174100  0.49258600  0.24137600  1
  C  78  1  0.61187900  0.48251500  0.23578600  1
  C  79  1  0.61509700  0.45495900  0.21788400  1
  C  80  1  0.58887900  0.44166300  0.20263800  1
  C  81  1  0.56112200  0.45916800  0.20204400  1
  C  82  1  0.55663200  0.48312000  0.22326500  1
  C  83  1  0.55650500  0.52332700  0.28290700  1
  C  84  1  0.56087700  0.54725100  0.30417200  1
  C  85  1  0.58856900  0.56488500  0.30370600  1
  C  86  1  0.61485200  0.55168600  0.28847800  1
  C  87  1  0.65574500  0.48593300  0.27417100  1
  C  88  1  0.68589200  0.49166700  0.26420300  1
  C  89  1  0.68599400  0.51479400  0.24250100  1
  C  90  1  0.65592300  0.52070700  0.23239700  1
  C  91  1  0.71146300  0.53222200  0.23280200  1
  C  92  1  0.70732400  0.55333800  0.20879300  1
  C  93  1  0.67924600  0.55414400  0.19184000  1
  C  94  1  0.65279300  0.53942900  0.20533700  1
  C  95  1  0.65238200  0.46732700  0.30127800  1
  C  96  1  0.67872200  0.45261000  0.31497800  1
  C  97  1  0.70688700  0.45314600  0.29817100  1
  C  98  1  0.71123200  0.47414100  0.27408500  1
  C  111  1  0.63383700  0.50334300  0.25321000  1
  C  112  1  0.89527800  0.48252100  0.77058900  1
  C  113  1  0.92537400  0.49269500  0.76496400  1
  C  114  1  0.92535800  0.51394400  0.74137300  1
  C  115  1  0.89525000  0.52408000  0.73575200  1
  C  116  1  0.89212200  0.55156600  0.71772800  1
  C  117  1  0.91835900  0.56464300  0.70233400  1
  C  118  1  0.94606900  0.54703200  0.70176100  1
  C  119  1  0.95050400  0.52332200  0.72327200  1
  C  120  1  0.95055700  0.48329300  0.78300500  1
  C  121  1  0.94617100  0.45936700  0.80426100  1
  C  122  1  0.91841900  0.44184100  0.80382400  1
  C  123  1  0.89213400  0.45503800  0.78861300  1
  C  124  1  0.85139800  0.52083200  0.77415500  1
  C  125  1  0.82122300  0.51517300  0.76422900  1
  C  126  1  0.82105000  0.49208500  0.74246000  1
  C  127  1  0.85113200  0.48599800  0.73247700  1
  C  128  1  0.79555000  0.47475300  0.73264800  1
  C  129  1  0.79966900  0.45373300  0.70854300  1
  C  130  1  0.82782200  0.45284600  0.69171500  1
  C  131  1  0.85428300  0.46739600  0.70534900  1
  C  132  1  0.85482400  0.53915700  0.80143400  1
  C  133  1  0.82858900  0.55398400  0.81519400  1
  C  134  1  0.80036400  0.55358900  0.79845800  1
  C  135  1  0.79592000  0.53262000  0.77435200  1
  C  148  1  0.87325500  0.50334300  0.75323900  1
  C  149  1  0.23565400  0.39512200  0.02391400  1
  C  150  1  0.24149400  0.42517000  0.01371700  1
  C  151  1  0.26513600  0.42499200  0.99251100  1
  C  152  1  0.27073300  0.39481700  0.98256900  1
  C  153  1  0.28862400  0.39153200  0.95502200  1
  C  154  1  0.30415600  0.41764000  0.94186300  1
  C  155  1  0.30487500  0.44541700  0.95936500  1
  C  156  1  0.28331100  0.45004400  0.98300300  1
  C  157  1  0.22346600  0.45042200  0.02295000  1
  C  158  1  0.20192600  0.44617200  0.04666500  1
  C  159  1  0.20239800  0.41854300  0.06441700  1
  C  160  1  0.21767600  0.39218800  0.05145100  1
  C  161  1  0.23238600  0.35082400  0.98607000  1
  C  162  1  0.24232600  0.32075100  0.99225900  1
  C  163  1  0.26397000  0.32095400  0.01546900  1
  C  164  1  0.27393300  0.35113100  0.02105900  1
  C  165  1  0.27400900  0.29569700  0.03302900  1
  C  166  1  0.29806700  0.30017100  0.05404700  1
  C  167  1  0.31483000  0.32838500  0.05439700  1
  C  168  1  0.30115600  0.35459200  0.03945600  1
  C  169  1  0.20531800  0.35395900  0.96737600  1
  C  170  1  0.19169200  0.32749100  0.95282800  1
  C  171  1  0.20844300  0.29929600  0.95391400  1
  C  172  1  0.23242500  0.29518700  0.97508000  1
  C  185  1  0.25316200  0.37296700  0.00337400  1
  C  186  1  0.73580600  0.11188400  0.98254300  1
  C  187  1  0.74109800  0.08171400  0.99266500  1
  C  188  1  0.76461300  0.08146700  0.01399100  1
  C  189  1  0.77051500  0.11149900  0.02420300  1
  C  190  1  0.78866900  0.11442800  0.05163100  1
  C  191  1  0.80367400  0.08796500  0.06472300  1
  C  192  1  0.80405300  0.06035600  0.04695800  1
  C  193  1  0.78262800  0.05618000  0.02314400  1
  C  194  1  0.72293000  0.05669700  0.98306300  1
  C  195  1  0.70183500  0.06132300  0.95903500  1
  C  196  1  0.70260200  0.08913000  0.94160800  1
  C  197  1  0.71800000  0.11523600  0.95494200  1
  C  198  1  0.73254800  0.15576100  0.02091100  1
  C  199  1  0.74260400  0.18585300  0.01501600  1
  C  200  1  0.76435700  0.18578300  0.99192800  1
  C  201  1  0.77431500  0.15563900  0.98614400  1
  C  202  1  0.77432600  0.21116800  0.97452100  1
  C  203  1  0.79846500  0.20685800  0.95358800  1
  C  204  1  0.81521000  0.17865400  0.95296000  1
  C  205  1  0.80147300  0.15230000  0.96760900  1
  C  206  1  0.70542700  0.15257700  0.03953200  1
  C  207  1  0.69185200  0.17902800  0.05416900  1
  C  208  1  0.70879300  0.20711800  0.05352800  1
  C  209  1  0.73285600  0.21128600  0.03247600  1
  C  222  1  0.75330800  0.13370700  0.00345500  1
  C  223  1  0.27050500  0.61156900  0.52414000  1
  C  224  1  0.26469300  0.58148900  0.51402000  1
  C  225  1  0.24104800  0.58158800  0.49283100  1
  C  226  1  0.23556900  0.61171500  0.48268500  1
  C  227  1  0.21764400  0.61491600  0.45514900  1
  C  228  1  0.20217300  0.58875400  0.44202600  1
  C  229  1  0.20149900  0.56102500  0.45959500  1
  C  230  1  0.22290800  0.55649500  0.48338100  1
  C  231  1  0.28282600  0.55629200  0.52320900  1
  C  232  1  0.30444700  0.56065300  0.54683100  1
  C  233  1  0.30396000  0.58829400  0.56452900  1
  C  234  1  0.28874000  0.61465100  0.55149000  1
  C  235  1  0.27409700  0.65541500  0.48579500  1
  C  236  1  0.26414500  0.68561700  0.49126700  1
  C  237  1  0.24248700  0.68590800  0.51445700  1
  C  238  1  0.23249700  0.65586700  0.52073500  1
  C  239  1  0.23273000  0.71151600  0.53165400  1
  C  240  1  0.20882600  0.70751300  0.55293100  1
  C  241  1  0.19192400  0.67941300  0.55394300  1
  C  242  1  0.20545300  0.65283900  0.53949400  1
  C  243  1  0.30138000  0.65186900  0.46749500  1
  C  244  1  0.31520000  0.67804700  0.45264000  1
  C  245  1  0.29853100  0.70630300  0.45292900  1
  C  246  1  0.27426800  0.71083500  0.47369100  1
  C  259  1  0.25316400  0.63365500  0.50338500  1
  C  260  1  0.77038600  0.89526400  0.48248900  1
  C  261  1  0.76461800  0.92535800  0.49258100  1
  C  262  1  0.74109100  0.92531600  0.51389100  1
  C  263  1  0.73547100  0.89519900  0.52400400  1
  C  264  1  0.71758500  0.89207600  0.55158700  1
  C  265  1  0.70221400  0.91830100  0.56471900  1
  C  266  1  0.70169000  0.94602500  0.54714700  1
  C  267  1  0.72295500  0.95045100  0.52323400  1
  C  268  1  0.78276000  0.95053000  0.48337400  1
  C  269  1  0.80414100  0.94615900  0.45956300  1
  C  270  1  0.80375300  0.91847700  0.44191200  1
  C  271  1  0.78850900  0.89217500  0.45506100  1
  C  272  1  0.77410000  0.85156000  0.52097300  1
  C  273  1  0.76420900  0.82132200  0.51560700  1
  C  274  1  0.74255800  0.82092000  0.49242200  1
  C  275  1  0.73243800  0.85090600  0.48610000  1
  C  276  1  0.73302700  0.79526400  0.47517800  1
  C  277  1  0.70914200  0.79914700  0.45387600  1
  C  278  1  0.69209000  0.82715700  0.45271800  1
  C  279  1  0.70549400  0.85380300  0.46717200  1
  C  280  1  0.80142000  0.85519100  0.53919600  1
  C  281  1  0.81525600  0.82909800  0.55419000  1
  C  282  1  0.79863400  0.80081200  0.55400500  1
  C  283  1  0.77441400  0.79616500  0.53322000  1
  C  296  1  0.75309100  0.87322700  0.50334300  1
  C  297  1  0.02404100  0.23587900  0.39512000  1
  C  298  1  0.01368200  0.24158000  0.42514200  1
  C  299  1  0.99238600  0.26512500  0.42495100  1
  C  300  1  0.98244600  0.27066600  0.39476900  1
  C  301  1  0.95497800  0.28866800  0.39142600  1
  C  302  1  0.94171200  0.30420200  0.41748900  1
  C  303  1  0.95916900  0.30477800  0.44530800  1
  C  304  1  0.98295400  0.28340400  0.44994900  1
  C  305  1  0.02297600  0.22365200  0.45044100  1
  C  306  1  0.04695900  0.20242200  0.44626000  1
  C  307  1  0.06464600  0.20277500  0.41860700  1
  C  308  1  0.05157000  0.21787400  0.39219500  1
  C  309  1  0.98606400  0.23231700  0.35087300  1
  C  310  1  0.99212500  0.24222900  0.32076700  1
  C  311  1  0.01521700  0.26398400  0.32086200  1
  C  312  1  0.02090100  0.27401800  0.35100000  1
  C  313  1  0.03265400  0.27396500  0.29549800  1
  C  314  1  0.05347900  0.29820300  0.29980900  1
  C  315  1  0.05400500  0.31498100  0.32799300  1
  C  316  1  0.03928000  0.30128000  0.35432100  1
  C  317  1  0.96733400  0.20528000  0.35409000  1
  C  318  1  0.95269600  0.19165800  0.32766500  1
  C  319  1  0.95356900  0.20847100  0.29949700  1
  C  320  1  0.97471000  0.23245500  0.29531400  1
  C  333  1  0.00336400  0.25319900  0.37293000  1
  C  334  1  0.98268200  0.73572900  0.11173600  1
  C  335  1  0.99264900  0.74133300  0.08157000  1
  C  336  1  0.01393000  0.76490900  0.08144100  1
  C  337  1  0.02415100  0.77063700  0.11150100  1
  C  338  1  0.05159300  0.78873600  0.11454200  1
  C  339  1  0.06464800  0.80407600  0.08826900  1
  C  340  1  0.04703700  0.80435600  0.06055300  1
  C  341  1  0.02323400  0.78293500  0.05621700  1
  C  342  1  0.98309300  0.72321200  0.05650100  1
  C  343  1  0.95925700  0.70186300  0.06109300  1
  C  344  1  0.94180500  0.70247800  0.08890600  1
  C  345  1  0.95507300  0.71793300  0.11500100  1
  C  346  1  0.02088300  0.73259500  0.15571900  1
  C  347  1  0.01495800  0.74267800  0.18579600  1
  C  348  1  0.99176700  0.76433600  0.18568000  1
  C  349  1  0.98596400  0.77420400  0.15551000  1
  C  350  1  0.97431300  0.77436600  0.21101200  1
  C  351  1  0.95326900  0.79841000  0.20660200  1
  C  352  1  0.95270300  0.81511300  0.17836200  1
  C  353  1  0.96750100  0.80138700  0.15209600  1
  C  354  1  0.03951700  0.70549200  0.15253900  1
  C  355  1  0.05419200  0.69192100  0.17896300  1
  C  356  1  0.05335300  0.70876300  0.20711000  1
  C  357  1  0.03229000  0.73282600  0.21127700  1
  C  370  1  0.00343800  0.75330600  0.13362500  1
  C  371  1  0.52419100  0.27059900  0.61163900  1
  C  372  1  0.51404800  0.26489200  0.58154900  1
  C  373  1  0.49273600  0.24137200  0.58158400  1
  C  374  1  0.48260700  0.23577700  0.61169600  1
  C  375  1  0.45508200  0.21780400  0.61483600  1
  C  376  1  0.44188500  0.20254500  0.58857100  1
  C  377  1  0.45950700  0.20193900  0.56088900  1
  C  378  1  0.48342000  0.22320800  0.55645800  1
  C  379  1  0.52324400  0.28305200  0.55638500  1
  C  380  1  0.54704300  0.30444700  0.56075700  1
  C  381  1  0.56473500  0.30401500  0.58841200  1
  C  382  1  0.55162600  0.28872300  0.61470900  1
  C  383  1  0.48585200  0.27419800  0.65552800  1
  C  384  1  0.49138900  0.26417100  0.68569100  1
  C  385  1  0.51453500  0.24248500  0.68589200  1
  C  386  1  0.52067300  0.23246900  0.65583500  1
  C  387  1  0.53181100  0.23275500  0.71145400  1
  C  388  1  0.55299800  0.20879900  0.70739800  1
  C  389  1  0.55405100  0.19192800  0.67927600  1
  C  390  1  0.53948500  0.20546400  0.65276000  1
  C  391  1  0.46733600  0.30135600  0.65210200  1
  C  392  1  0.45250100  0.31504800  0.67837800  1
  C  393  1  0.45283200  0.29820300  0.70652500  1
  C  394  1  0.47374400  0.27405700  0.71094800  1
  C  407  1  0.50336600  0.25326100  0.63368200  1
  C  408  1  0.48249600  0.77060000  0.89521800  1
  C  409  1  0.49257700  0.76506800  0.92536000  1
  C  410  1  0.51382100  0.74147000  0.92547600  1
  C  411  1  0.52403600  0.73574300  0.89541600  1
  C  412  1  0.55154300  0.71772300  0.89242500  1
  C  413  1  0.56458500  0.70246600  0.91875800  1
  C  414  1  0.54691800  0.70200400  0.94643400  1
  C  415  1  0.52316000  0.72348700  0.95072100  1
  C  416  1  0.48313600  0.78321500  0.95045300  1
  C  417  1  0.45925800  0.80449700  0.94592800  1
  C  418  1  0.44179700  0.80396800  0.91813500  1
  C  419  1  0.45503300  0.78863400  0.89194200  1
  C  420  1  0.52107700  0.77414400  0.85160300  1
  C  421  1  0.51574800  0.76417600  0.82138700  1
  C  422  1  0.49262800  0.74244400  0.82100600  1
  C  423  1  0.48620100  0.73248800  0.85103100  1
  C  424  1  0.47541600  0.73280700  0.79536300  1
  C  425  1  0.45418800  0.70885800  0.79928500  1
  C  426  1  0.45298600  0.69194900  0.82737900  1
  C  427  1  0.46738900  0.70547400  0.85398700  1
  C  428  1  0.53924500  0.80150300  0.85517200  1
  C  429  1  0.55429900  0.81527700  0.82907900  1
  C  430  1  0.55425200  0.79851800  0.80086300  1
  C  431  1  0.53340300  0.77433800  0.79624300  1
  C  444  1  0.50340600  0.75321600  0.87330500  1
  C  445  1  0.77430300  0.65580700  0.02054200  1
  C  446  1  0.76440000  0.68586400  0.01421200  1
  C  447  1  0.74271200  0.68559600  0.99104600  1
  C  448  1  0.73275200  0.65540500  0.98554400  1
  C  449  1  0.70543900  0.65193100  0.96727900  1
  C  450  1  0.69173600  0.67810100  0.95229000  1
  C  451  1  0.70850400  0.70631000  0.95252800  1
  C  452  1  0.73262000  0.71082300  0.97347400  1
  C  453  1  0.77410900  0.71144500  0.03148000  1
  C  454  1  0.79792200  0.70740900  0.05285100  1
  C  455  1  0.81482000  0.67929300  0.05389100  1
  C  456  1  0.80132300  0.65276300  0.03932700  1
  C  457  1  0.73599000  0.61181900  0.02414000  1
  C  458  1  0.74142800  0.58162800  0.01415600  1
  C  459  1  0.76509300  0.58137400  0.99298400  1
  C  460  1  0.77102500  0.61139400  0.98275300  1
  C  461  1  0.78298600  0.55603300  0.98374200  1
  C  462  1  0.80454300  0.56018400  0.96003500  1
  C  463  1  0.80420100  0.58780700  0.94227100  1
  C  464  1  0.78907100  0.61424900  0.95524400  1
  C  465  1  0.71808400  0.61520300  0.05166400  1
  C  466  1  0.70252100  0.58915800  0.06490800  1
  C  467  1  0.70190000  0.56130500  0.04754100  1
  C  468  1  0.72323700  0.55661300  0.02373000  1
  C  481  1  0.75355100  0.63361600  0.00326300  1
  C  482  1  0.73258300  0.35111500  0.52086200  1
  C  483  1  0.74261500  0.32094900  0.51533900  1
  C  484  1  0.76430100  0.32073700  0.49218900  1
  C  485  1  0.77428700  0.35079900  0.48601400  1
  C  486  1  0.80124900  0.35388700  0.46714200  1
  C  487  1  0.81478500  0.32733900  0.45263800  1
  C  488  1  0.79782500  0.29926400  0.45354300  1
  C  489  1  0.77391300  0.29521200  0.47479000  1
  C  490  1  0.73264600  0.29567200  0.53290600  1
  C  491  1  0.70844600  0.30008600  0.55375100  1
  C  492  1  0.69168800  0.32828600  0.55416700  1
  C  493  1  0.70540400  0.35455500  0.53934600  1
  C  494  1  0.77101800  0.39496000  0.52402400  1
  C  495  1  0.76536400  0.42506400  0.51389800  1
  C  496  1  0.74177900  0.42506100  0.49264800  1
  C  497  1  0.73613800  0.39496700  0.48249600  1
  C  498  1  0.72364400  0.45021400  0.48337200  1
  C  499  1  0.70226500  0.44579600  0.45956300  1
  C  500  1  0.70272700  0.41811800  0.44190800  1
  C  501  1  0.71807000  0.39186300  0.45503500  1
  C  502  1  0.78890900  0.39186300  0.55160500  1
  C  503  1  0.80412000  0.41815900  0.56479500  1
  C  504  1  0.80477100  0.44582800  0.54713300  1
  C  505  1  0.78346700  0.45021900  0.52324600  1
  C  518  1  0.75350200  0.37295100  0.50332300  1
  C  519  1  0.27413800  0.85100300  0.98577000  1
  C  520  1  0.26409200  0.82090000  0.99163100  1
  C  521  1  0.24243700  0.82093900  0.01481500  1
  C  522  1  0.23249700  0.85107400  0.02066200  1
  C  523  1  0.20535600  0.85439600  0.03921700  1
  C  524  1  0.19167700  0.82804700  0.05392000  1
  C  525  1  0.20844300  0.79985100  0.05329300  1
  C  526  1  0.23245800  0.79553900  0.03219800  1
  C  527  1  0.27384700  0.79549500  0.97413000  1
  C  528  1  0.29782900  0.79972000  0.95298000  1
  C  529  1  0.31476600  0.82780900  0.95240500  1
  C  530  1  0.30120200  0.85423900  0.96707800  1
  C  531  1  0.23593200  0.89512500  0.98258700  1
  C  532  1  0.24162600  0.92518500  0.99281600  1
  C  533  1  0.26528900  0.92510200  0.01398100  1
  C  534  1  0.27094400  0.89496100  0.02400100  1
  C  535  1  0.28338300  0.95023200  0.02343000  1
  C  536  1  0.30482800  0.94572500  0.04718400  1
  C  537  1  0.30417200  0.91799800  0.06474200  1
  C  538  1  0.28886000  0.89177100  0.05155200  1
  C  539  1  0.21793800  0.89211800  0.95506600  1
  C  540  1  0.20266100  0.91842100  0.94197300  1
  C  541  1  0.20222000  0.94606700  0.95969100  1
  C  542  1  0.22354700  0.95039100  0.98356600  1
  C  555  1  0.25338300  0.87303500  0.00325000  1
  C  556  1  0.23254500  0.15550200  0.48597700  1
  C  557  1  0.24252000  0.18561500  0.49190700  1
  C  558  1  0.26427700  0.18557100  0.51500200  1
  C  559  1  0.27420100  0.15542800  0.52085300  1
  C  560  1  0.30134500  0.15210200  0.53939900  1
  C  561  1  0.31493400  0.17840800  0.55425700  1
  C  562  1  0.29812300  0.20658000  0.55365900  1
  C  563  1  0.27412900  0.21091600  0.53253900  1
  C  564  1  0.23263500  0.21104900  0.47452200  1
  C  565  1  0.20848800  0.20683300  0.45357100  1
  C  566  1  0.19169100  0.17865800  0.45282200  1
  C  567  1  0.20539800  0.15225400  0.46741400  1
  C  568  1  0.27095500  0.11158600  0.48249800  1
  C  569  1  0.26545500  0.08144100  0.49258600  1
  C  570  1  0.24181500  0.08129600  0.51377700  1
  C  571  1  0.23604000  0.11134500  0.52399900  1
  C  572  1  0.22381800  0.05604000  0.52303300  1
  C  573  1  0.20246100  0.06031000  0.54688400  1
  C  574  1  0.20278700  0.08797100  0.56457100  1
  C  575  1  0.21793100  0.11434000  0.55144800  1
  C  576  1  0.28888700  0.11481800  0.45496600  1
  C  577  1  0.30440800  0.08868100  0.44184100  1
  C  578  1  0.30500200  0.06092700  0.45936700  1
  C  579  1  0.28363000  0.05636400  0.48316400  1
  C  592  1  0.25342000  0.13347400  0.50331300  1
  C  593  1  0.15565900  0.48598600  0.23249400  1
  C  594  1  0.18578100  0.49175200  0.24253600  1
  C  595  1  0.18579500  0.51480100  0.26434200  1
  C  596  1  0.15566600  0.52070300  0.27427900  1
  C  597  1  0.15236700  0.53932300  0.30137700  1
  C  598  1  0.17871100  0.55406300  0.31503600  1
  C  599  1  0.20691200  0.55330500  0.29827000  1
  C  600  1  0.21118200  0.53227100  0.27420300  1
  C  601  1  0.21120800  0.47446900  0.23245500  1
  C  602  1  0.20695400  0.45368200  0.20817400  1
  C  603  1  0.17872900  0.45302100  0.19146600  1
  C  604  1  0.15234600  0.46754100  0.20527600  1
  C  605  1  0.11165600  0.48256100  0.27082100  1
  C  606  1  0.08155600  0.49267400  0.26514100  1
  C  607  1  0.08156400  0.51396900  0.24159800  1
  C  608  1  0.11166600  0.52411000  0.23595900  1
  C  609  1  0.05639800  0.52336600  0.22354100  1
  C  610  1  0.06080800  0.54730200  0.20230200  1
  C  611  1  0.08851800  0.56490600  0.20280200  1
  C  612  1  0.11475700  0.55171400  0.21811000  1
  C  613  1  0.11476400  0.45508200  0.28886200  1
  C  614  1  0.08852200  0.44195900  0.30422300  1
  C  615  1  0.06083300  0.45962300  0.30471100  1
  C  616  1  0.05642600  0.48342900  0.28332500  1
  C  629  1  0.13366800  0.50333900  0.25339700  1
  C  630  1  0.85112800  0.98563400  0.27409200  1
  C  631  1  0.82098700  0.99148000  0.26415200  1
  C  632  1  0.82095700  0.01464900  0.24246200  1
  C  633  1  0.85107900  0.02056100  0.23250100  1
  C  634  1  0.85437800  0.03914800  0.20538300  1
  C  635  1  0.82801400  0.05383000  0.19172200  1
  C  636  1  0.79979600  0.05305200  0.20844200  1
  C  637  1  0.79552700  0.03200200  0.23250400  1
  C  638  1  0.79563100  0.97398500  0.27405500  1
  C  639  1  0.79996200  0.95290000  0.29808100  1
  C  640  1  0.82815500  0.95227800  0.31486000  1
  C  641  1  0.85444900  0.96714700  0.30127100  1
  C  642  1  0.89524500  0.98259900  0.23594300  1
  C  643  1  0.92528600  0.99283900  0.24173000  1
  C  644  1  0.92511500  0.01399900  0.26540400  1
  C  645  1  0.89494700  0.02397300  0.27096400  1
  C  646  1  0.95015500  0.02347800  0.28360200  1
  C  647  1  0.94552600  0.04721900  0.30504100  1
  C  648  1  0.91774000  0.06471200  0.30439200  1
  C  649  1  0.89164900  0.05150400  0.28887300  1
  C  650  1  0.89227700  0.95512900  0.21787500  1
  C  651  1  0.91858700  0.94213500  0.20254900  1
  C  652  1  0.94626800  0.95980200  0.20228500  1
  C  653  1  0.95055000  0.98358000  0.22373600  1
  C  666  1  0.87309100  0.00320300  0.25336000  1
  C  667  1  0.35098800  0.52069800  0.73240300  1
  C  668  1  0.32082700  0.51501800  0.74237000  1
  C  669  1  0.32069300  0.49201300  0.76420600  1
  C  670  1  0.35077300  0.48601400  0.77424300  1
  C  671  1  0.35390800  0.46735400  0.80134800  1
  C  672  1  0.32741700  0.45282200  0.81496300  1
  C  673  1  0.29931900  0.45360300  0.79805000  1
  C  674  1  0.29520700  0.47463100  0.77395400  1
  C  675  1  0.29551000  0.53252700  0.73240300  1
  C  676  1  0.29988000  0.55339100  0.70821300  1
  C  677  1  0.32807600  0.55388100  0.69145400  1
  C  678  1  0.35439100  0.53919200  0.70522600  1
  C  679  1  0.39475700  0.52423000  0.77087500  1
  C  680  1  0.42490700  0.51409400  0.76550900  1
  C  681  1  0.42507500  0.49276100  0.74199900  1
  C  682  1  0.39502700  0.48254500  0.73619100  1
  C  683  1  0.45034600  0.48349600  0.72402200  1
  C  684  1  0.44608400  0.45967800  0.70262500  1
  C  685  1  0.41841300  0.44200500  0.70287900  1
  C  686  1  0.39205700  0.45509800  0.71807700  1
  C  687  1  0.39146300  0.55180400  0.78873600  1
  C  688  1  0.41761600  0.56511600  0.80407800  1
  C  689  1  0.44535700  0.54759100  0.80486400  1
  C  690  1  0.44994200  0.52361100  0.78369500  1
  C  703  1  0.37287500  0.50334300  0.75341900  1
  C  704  1  0.65578600  0.02054600  0.77424800  1
  C  705  1  0.68583700  0.01431800  0.76426200  1
  C  706  1  0.68560100  0.99108100  0.74266400  1
  C  707  1  0.65542600  0.98557200  0.73266900  1
  C  708  1  0.65197700  0.96712900  0.70547100  1
  C  709  1  0.67817400  0.95212600  0.69182900  1
  C  710  1  0.70635600  0.95242800  0.70864300  1
  C  711  1  0.71083700  0.97345300  0.73269400  1
  C  712  1  0.71140800  0.03163100  0.77390400  1
  C  713  1  0.70737900  0.05288100  0.79781400  1
  C  714  1  0.67928300  0.05395800  0.81472300  1
  C  715  1  0.65273500  0.03943600  0.80120000  1
  C  716  1  0.61195500  0.02422500  0.73572500  1
  C  717  1  0.58172200  0.01431000  0.74098700  1
  C  718  1  0.58128100  0.99310000  0.76460800  1
  C  719  1  0.61125100  0.98283700  0.77077600  1
  C  720  1  0.55582100  0.98404000  0.78242500  1
  C  721  1  0.55975900  0.96018000  0.80382900  1
  C  722  1  0.58734900  0.94238900  0.80380100  1
  C  723  1  0.61393700  0.95534800  0.78890000  1
  C  724  1  0.61542900  0.05179800  0.71791500  1
  C  725  1  0.58950700  0.06507400  0.70215600  1
  C  726  1  0.56171800  0.04759000  0.70116100  1
  C  727  1  0.55685800  0.02389200  0.72260200  1
  C  740  1  0.63360900  0.00331200  0.75342400  1
  C  741  1  0.98576600  0.27405500  0.85098000  1
  C  742  1  0.99170000  0.26409700  0.82086500  1
  C  743  1  0.01487900  0.24242000  0.82090000  1
  C  744  1  0.02077300  0.23251800  0.85104000  1
  C  745  1  0.03922200  0.20530800  0.85435000  1
  C  746  1  0.05393600  0.19163500  0.82801000  1
  C  747  1  0.05338600  0.20842500  0.79982100  1
  C  748  1  0.03226300  0.23242300  0.79550400  1
  C  749  1  0.97423700  0.27391900  0.79545800  1
  C  750  1  0.95304500  0.29786200  0.79970800  1
  C  751  1  0.95239100  0.31473600  0.82785000  1
  C  752  1  0.96719600  0.30119700  0.85421600  1
  C  753  1  0.98264900  0.23586700  0.89507900  1
  C  754  1  0.99285500  0.24156600  0.92515000  1
  C  755  1  0.01399200  0.26526300  0.92506700  1
  C  756  1  0.02400200  0.27092300  0.89492900  1
  C  757  1  0.02344500  0.28337800  0.95017600  1
  C  758  1  0.04712200  0.30490500  0.94564400  1
  C  759  1  0.06470700  0.30426500  0.91790400  1
  C  760  1  0.05153800  0.28884600  0.89173000  1
  C  761  1  0.95516800  0.21782900  0.89203500  1
  C  762  1  0.94216500  0.20244800  0.91830800  1
  C  763  1  0.95980400  0.20204700  0.94599500  1
  C  764  1  0.98357300  0.22349600  0.95035600  1
  C  777  1  0.00329300  0.25333700  0.87299800  1
  C  778  1  0.48568100  0.23253400  0.15539400  1
  C  779  1  0.49120500  0.24258200  0.18555300  1
  C  780  1  0.51434300  0.26427900  0.18575100  1
  C  781  1  0.52050400  0.27425600  0.15568400  1
  C  782  1  0.53936200  0.30122500  0.15258700  1
  C  783  1  0.55387400  0.31476600  0.17913200  1
  C  784  1  0.55300700  0.29779700  0.20720000  1
  C  785  1  0.53176500  0.27388400  0.21126400  1
  C  786  1  0.47367000  0.23258900  0.21084000  1
  C  787  1  0.45282000  0.20839300  0.20642300  1
  C  788  1  0.45239000  0.19161400  0.17823300  1
  C  789  1  0.46722700  0.20533500  0.15197500  1
  C  790  1  0.48259300  0.27081700  0.11138500  1
  C  791  1  0.49278200  0.26494900  0.08133600  1
  C  792  1  0.51406400  0.24139700  0.08152200  1
  C  793  1  0.52415100  0.23596200  0.11167500  1
  C  794  1  0.52350900  0.22318500  0.05648300  1
  C  795  1  0.54737800  0.20190900  0.06107900  1
  C  796  1  0.56489200  0.20251600  0.08884300  1
  C  797  1  0.55164900  0.21798800  0.11496100  1
  C  798  1  0.45505600  0.28881600  0.11431400  1
  C  799  1  0.44195600  0.30386300  0.08788100  1
  C  800  1  0.45965300  0.30425100  0.06023100  1
  C  801  1  0.48352200  0.28289800  0.05604000  1
  C  814  1  0.50324400  0.25341600  0.13354200  1
  C  815  1  0.02049900  0.77428200  0.65582100  1
  C  816  1  0.01427900  0.76433600  0.68588700  1
  C  817  1  0.99110800  0.74266800  0.68567300  1
  C  818  1  0.98561300  0.73262900  0.65550900  1
  C  819  1  0.96717000  0.70542700  0.65207900  1
  C  820  1  0.95222700  0.69175200  0.67829500  1
  C  821  1  0.95259900  0.70854300  0.70648300  1
  C  822  1  0.97354800  0.73265700  0.71093900  1
  C  823  1  0.03159200  0.77404000  0.71143800  1
  C  824  1  0.05288400  0.79791600  0.70737000  1
  C  825  1  0.05378200  0.81484700  0.67928600  1
  C  826  1  0.03935400  0.80125300  0.65272600  1
  C  827  1  0.02415500  0.73583100  0.61192000  1
  C  828  1  0.01415500  0.74116700  0.58172500  1
  C  829  1  0.99299100  0.76482500  0.58140100  1
  C  830  1  0.98272300  0.77084300  0.61139400  1
  C  831  1  0.98386000  0.78269800  0.55600600  1
  C  832  1  0.96012700  0.80423800  0.56007100  1
  C  833  1  0.94227800  0.80394200  0.58762000  1
  C  834  1  0.95521900  0.78892500  0.61415200  1
  C  835  1  0.05173000  0.71799600  0.61530900  1
  C  836  1  0.06504800  0.70242900  0.58928800  1
  C  837  1  0.04757000  0.70164800  0.56150100  1
  C  838  1  0.02367400  0.72287200  0.55677300  1
  C  851  1  0.00325900  0.75344700  0.63366600  1
  C  852  1  0.52040200  0.73241900  0.35083100  1
  C  853  1  0.51416800  0.74239600  0.32077600  1
  C  854  1  0.49107500  0.76415300  0.32103000  1
  C  855  1  0.48553600  0.77409300  0.35122400  1
  C  856  1  0.46716300  0.80133700  0.35470000  1
  C  857  1  0.45218900  0.81500200  0.32850100  1
  C  858  1  0.45241100  0.79820000  0.30031700  1
  C  859  1  0.47341100  0.77413000  0.29581700  1
  C  860  1  0.53144200  0.73268700  0.29520300  1
  C  861  1  0.55257800  0.70867000  0.29921700  1
  C  862  1  0.55360300  0.69179600  0.32733400  1
  C  863  1  0.53918500  0.70539500  0.35389400  1
  C  864  1  0.52427200  0.77084500  0.39468600  1
  C  865  1  0.51440600  0.76552100  0.42493400  1
  C  866  1  0.49313600  0.74194500  0.42532700  1
  C  867  1  0.48273200  0.73600400  0.39536700  1
  C  868  1  0.48398600  0.72411000  0.45073700  1
  C  869  1  0.46008000  0.70276600  0.44672200  1
  C  870  1  0.44226600  0.70289100  0.41914100  1
  C  871  1  0.45527600  0.71785700  0.39261300  1
  C  872  1  0.55186600  0.78860900  0.39113700  1
  C  873  1  0.56529900  0.80418500  0.41707600  1
  C  874  1  0.54809900  0.80491200  0.44503100  1
  C  875  1  0.52420500  0.78369800  0.44987300  1
  C  888  1  0.50325600  0.75329200  0.37301600  1
  C  889  1  0.42244900  0.90963600  0.31040200  1
  C  890  1  0.44597800  0.89413000  0.29364100  1
  C  891  1  0.45635200  0.86477500  0.30172600  1
  C  892  1  0.44301000  0.84684700  0.32571700  1
  C  893  1  0.41880400  0.86179000  0.34199800  1
  C  894  1  0.40931400  0.89214500  0.33482100  1
  C  897  1  0.48359600  0.88285300  0.26446400  1
  C  899  1  0.38375300  0.87461500  0.37320500  1
  C  901  1  0.36089600  0.87303500  0.39840200  1
  C  902  1  0.37613400  0.86670100  0.43001900  1
  C  908  1  0.50870500  0.88581800  0.24166300  1
  C  909  1  0.49654300  0.89306300  0.20893300  1
  C  915  1  0.08391000  0.09702000  0.80997300  1
  C  916  1  0.06037700  0.11248400  0.79317600  1
  C  917  1  0.04995800  0.14184000  0.80120300  1
  C  918  1  0.06323700  0.15982100  0.82519400  1
  C  919  1  0.08736400  0.14488200  0.84159400  1
  C  920  1  0.09688900  0.11452600  0.83446600  1
  C  923  1  0.02282000  0.12368300  0.76389500  1
  C  925  1  0.12233900  0.13210000  0.87290600  1
  C  927  1  0.14516700  0.13373100  0.89812400  1
  C  928  1  0.12987900  0.14009200  0.92971000  1
  C  934  1  0.99787000  0.12071500  0.74092400  1
  C  935  1  0.01027500  0.11360900  0.70825500  1
  C  941  1  0.58490100  0.40915700  0.19698100  1
  C  942  1  0.56166500  0.39374500  0.21422100  1
  C  943  1  0.55105300  0.36440400  0.20640100  1
  C  944  1  0.56378100  0.34640300  0.18211200  1
  C  945  1  0.58757400  0.36132700  0.16521500  1
  C  946  1  0.59728200  0.39166900  0.17216700  1
  C  949  1  0.52433900  0.38282600  0.24393100  1
  C  951  1  0.62188800  0.37411300  0.13317300  1
  C  953  1  0.64443300  0.37237600  0.10770700  1
  C  954  1  0.62888200  0.36535100  0.07639400  1
  C  960  1  0.49875600  0.38647800  0.26610200  1
  C  961  1  0.50992000  0.39697000  0.29830300  1
  C  967  1  0.92254700  0.59707400  0.69630300  1
  C  968  1  0.94605300  0.61257600  0.71309400  1
  C  969  1  0.95637600  0.64197300  0.70509000  1
  C  970  1  0.94302000  0.65991900  0.68111500  1
  C  971  1  0.91892200  0.64493400  0.66471900  1
  C  972  1  0.90946300  0.61455800  0.67185000  1
  C  975  1  0.98353600  0.62389300  0.74241700  1
  C  977  1  0.88394300  0.63210200  0.63344000  1
  C  979  1  0.86110700  0.63369900  0.60822500  1
  C  980  1  0.87636200  0.64012000  0.57663100  1
  C  986  1  0.00856100  0.62094300  0.76530800  1
  C  987  1  0.99623200  0.61415400  0.79807300  1
  C  993  1  0.30973200  0.42176000  0.90935200  1
  C  994  1  0.29244900  0.44499400  0.89399100  1
  C  995  1  0.30025200  0.45566100  0.86466400  1
  C  996  1  0.32451100  0.44295200  0.84661200  1
  C  997  1  0.34141100  0.41911800  0.86146900  1
  C  998  1  0.33448800  0.40935600  0.89179900  1
  C  1001  1  0.26280100  0.48239400  0.88320400  1
  C  1003  1  0.37348900  0.38480800  0.87418100  1
  C  1005  1  0.39904200  0.36236200  0.87243000  1
  C  1006  1  0.43037000  0.37808600  0.86586500  1
  C  1012  1  0.24063000  0.50797500  0.88689300  1
  C  1013  1  0.20848600  0.49683900  0.89757800  1
  C  1019  1  0.80982300  0.08374900  0.09712800  1
  C  1020  1  0.79319600  0.06008100  0.11256700  1
  C  1021  1  0.80131100  0.04968500  0.14190400  1
  C  1022  1  0.82518700  0.06313900  0.15990800  1
  C  1023  1  0.84137700  0.08743500  0.14500800  1
  C  1024  1  0.83417000  0.09695300  0.11466500  1
  C  1027  1  0.76418300  0.02230700  0.12374400  1
  C  1029  1  0.87241600  0.12266600  0.13226300  1
  C  1031  1  0.89753500  0.14560400  0.13387700  1
  C  1032  1  0.92921600  0.13042100  0.14001900  1
  C  1038  1  0.74131000  0.99726400  0.12080700  1
  C  1039  1  0.70851300  0.00957500  0.11413500  1
  C  1045  1  0.19646300  0.58460500  0.40953600  1
  C  1046  1  0.21347500  0.56115200  0.39419100  1
  C  1047  1  0.20557900  0.55058200  0.36485200  1
  C  1048  1  0.18150200  0.56360300  0.34678600  1
  C  1049  1  0.16491000  0.58767100  0.36160700  1
  C  1050  1  0.17188300  0.59731500  0.39196000  1
  C  1053  1  0.24291900  0.52364600  0.38326500  1
  C  1055  1  0.13329000  0.62242400  0.37424000  1
  C  1057  1  0.10800300  0.64516500  0.37245000  1
  C  1058  1  0.07652800  0.62979900  0.36574400  1
  C  1064  1  0.26567700  0.49853900  0.38657100  1
  C  1065  1  0.29831700  0.51070300  0.39420000  1
  C  1071  1  0.69621300  0.92248200  0.59715300  1
  C  1072  1  0.71297600  0.94600400  0.61266700  1
  C  1073  1  0.70495800  0.95632100  0.64205800  1
  C  1074  1  0.68099000  0.94294400  0.65999300  1
  C  1075  1  0.66461700  0.91883200  0.64500800  1
  C  1076  1  0.67176400  0.90938200  0.61463500  1
  C  1079  1  0.74230300  0.98347400  0.62401800  1
  C  1081  1  0.63338000  0.88381800  0.63217200  1
  C  1083  1  0.60819700  0.86095000  0.63376300  1
  C  1084  1  0.57657800  0.87617000  0.64013700  1
  C  1090  1  0.76527800  0.00843200  0.62113900  1
  C  1091  1  0.79804700  0.99598900  0.61458600  1
  C  1097  1  0.90920700  0.30976900  0.42159400  1
  C  1098  1  0.89380400  0.29233600  0.44468000  1
  C  1099  1  0.86444700  0.30007900  0.45530600  1
  C  1100  1  0.84639700  0.32436600  0.44263800  1
  C  1101  1  0.86130500  0.34139500  0.41892600  1
  C  1102  1  0.89165300  0.33452300  0.40919000  1
  C  1105  1  0.88297000  0.26257200  0.48198800  1
  C  1107  1  0.87406500  0.37359600  0.38474600  1
  C  1109  1  0.87234200  0.39921300  0.36237200  1
  C  1110  1  0.86578400  0.43049700  0.37818300  1
  C  1116  1  0.88672400  0.24062800  0.50775500  1
  C  1117  1  0.89844900  0.20870200  0.49704200  1
  C  1123  1  0.09708800  0.81003400  0.08403400  1
  C  1124  1  0.11253100  0.79320100  0.06051200  1
  C  1125  1  0.14187800  0.80121000  0.05005600  1
  C  1126  1  0.15987800  0.82521900  0.06328600  1
  C  1127  1  0.14495500  0.84166100  0.08739500  1
  C  1128  1  0.11460400  0.83455100  0.09695200  1
  C  1131  1  0.12365300  0.76392200  0.02292900  1
  C  1133  1  0.13218800  0.87304900  0.12230500  1
  C  1135  1  0.13383300  0.89831100  0.14508400  1
  C  1136  1  0.14022700  0.92986500  0.12974000  1
  C  1142  1  0.12057200  0.74106800  0.99788400  1
  C  1143  1  0.11306100  0.70842600  0.01011800  1
  C  1149  1  0.40943200  0.19661700  0.58450400  1
  C  1150  1  0.39399700  0.21339700  0.56094000  1
  C  1151  1  0.36467700  0.20533300  0.55044600  1
  C  1152  1  0.34672200  0.18127400  0.56364000  1
  C  1153  1  0.36162800  0.16489100  0.58779800  1
  C  1154  1  0.39196200  0.17203700  0.59737000  1
  C  1157  1  0.38286800  0.24263700  0.52332000  1
  C  1159  1  0.37442300  0.13349200  0.62268900  1
  C  1161  1  0.37277600  0.10827300  0.64551600  1
  C  1162  1  0.36620600  0.07670900  0.63026800  1
  C  1168  1  0.38601600  0.26533000  0.49813700  1
  C  1169  1  0.39346400  0.29805600  0.51019200  1
  C  1175  1  0.59698700  0.69627800  0.92298800  1
  C  1176  1  0.61253700  0.71289300  0.94659100  1
  C  1177  1  0.64194100  0.70480100  0.95682200  1
  C  1178  1  0.65984500  0.68089800  0.94329200  1
  C  1179  1  0.64483000  0.66470300  0.91908000  1
  C  1180  1  0.61445200  0.67192400  0.90969400  1
  C  1183  1  0.62404500  0.74213500  0.98407700  1
  C  1185  1  0.63197500  0.63373600  0.88383000  1
  C  1187  1  0.63354200  0.60868600  0.86081100  1
  C  1188  1  0.63986600  0.57697300  0.87585300  1
  C  1194  1  0.62136400  0.76523400  0.00894000  1
  C  1195  1  0.61522800  0.79802600  0.99633600  1
  C  1201  1  0.58539300  0.09759500  0.69676500  1
  C  1202  1  0.56221900  0.11287800  0.71418400  1
  C  1203  1  0.55148100  0.14219800  0.70645800  1
  C  1204  1  0.56411100  0.16033700  0.68221700  1
  C  1205  1  0.58789500  0.14554000  0.66518800  1
  C  1206  1  0.59772100  0.11521300  0.67202100  1
  C  1209  1  0.52475900  0.12346500  0.74383000  1
  C  1211  1  0.62207700  0.13290300  0.63293600  1
  C  1213  1  0.64441200  0.13469800  0.60729100  1
  C  1214  1  0.62853100  0.14115200  0.57601900  1
  C  1220  1  0.49900100  0.11956800  0.76575900  1
  C  1221  1  0.50983200  0.10833400  0.79782100  1
  C  1227  1  0.92286800  0.90972200  0.19649500  1
  C  1228  1  0.94651300  0.89428000  0.21315800  1
  C  1229  1  0.95692600  0.86494300  0.20505800  1
  C  1230  1  0.94352300  0.84695800  0.18114000  1
  C  1231  1  0.91926900  0.86186200  0.16489900  1
  C  1232  1  0.90975400  0.89220600  0.17208600  1
  C  1235  1  0.98413900  0.88304400  0.24233000  1
  C  1237  1  0.88405600  0.87459400  0.13383600  1
  C  1239  1  0.86109000  0.87294700  0.10874700  1
  C  1240  1  0.87623000  0.86667800  0.07707400  1
  C  1246  1  0.00900700  0.88589700  0.26540700  1
  C  1247  1  0.99643800  0.89242500  0.29813400  1
  C  1253  1  0.42162000  0.59764300  0.80959900  1
  C  1254  1  0.44491500  0.61294600  0.79234900  1
  C  1255  1  0.45564100  0.64225500  0.80014900  1
  C  1256  1  0.44296400  0.66034400  0.82440100  1
  C  1257  1  0.41908600  0.64553300  0.84128300  1
  C  1258  1  0.40928700  0.61521000  0.83438000  1
  C  1261  1  0.48239400  0.62362500  0.76275300  1
  C  1263  1  0.38474800  0.63287900  0.87336100  1
  C  1265  1  0.36223800  0.63469200  0.89885100  1
  C  1266  1  0.37786400  0.64149500  0.93017400  1
  C  1272  1  0.50791000  0.61987100  0.74052500  1
  C  1273  1  0.49652400  0.61019000  0.70814800  1
  C  1279  1  0.08424700  0.40952500  0.31014100  1
  C  1280  1  0.06072700  0.39413600  0.29326700  1
  C  1281  1  0.05025600  0.36478300  0.30122000  1
  C  1282  1  0.06345400  0.34675600  0.32522300  1
  C  1283  1  0.08759400  0.36161200  0.34167900  1
  C  1284  1  0.09719800  0.39195500  0.33460400  1
  C  1287  1  0.02319300  0.38306400  0.26391200  1
  C  1289  1  0.12254600  0.37427900  0.37306200  1
  C  1291  1  0.14531600  0.37257700  0.39832800  1
  C  1292  1  0.12994500  0.36627300  0.42988500  1
  C  1298  1  0.99806600  0.38625600  0.24116400  1
  C  1299  1  0.01022600  0.39351000  0.20843600  1
  C  1305  1  0.69698400  0.58513200  0.09743200  1
  C  1306  1  0.71435800  0.56201600  0.11286900  1
  C  1307  1  0.70655900  0.55138300  0.14220700  1
  C  1308  1  0.68222600  0.56403700  0.16020300  1
  C  1309  1  0.66522700  0.58774700  0.14526200  1
  C  1310  1  0.67215500  0.59747200  0.11492300  1
  C  1313  1  0.74417200  0.52477100  0.12379800  1
  C  1315  1  0.63305200  0.62192300  0.13243600  1
  C  1317  1  0.60746200  0.64433100  0.13412500  1
  C  1318  1  0.57616700  0.62856600  0.14072100  1
  C  1324  1  0.76601700  0.49891500  0.12006100  1
  C  1325  1  0.79779100  0.50939500  0.10772100  1
  C  1331  1  0.19669000  0.92272700  0.90955600  1
  C  1332  1  0.21339000  0.94639000  0.89419000  1
  C  1333  1  0.20531800  0.95686800  0.86486700  1
  C  1334  1  0.18144200  0.94348900  0.84680600  1
  C  1335  1  0.16519700  0.91918300  0.86163100  1
  C  1336  1  0.17234400  0.90960200  0.89196300  1
  C  1339  1  0.24245500  0.98415600  0.88314100  1
  C  1341  1  0.13410500  0.88395400  0.87426200  1
  C  1343  1  0.10898400  0.86102800  0.87256600  1
  C  1344  1  0.07732100  0.87624400  0.86642900  1
  C  1350  1  0.26537900  0.00914300  0.88614700  1
  C  1351  1  0.29816900  0.99673100  0.89266100  1
  C  1357  1  0.80994300  0.42228500  0.59725900  1
  C  1358  1  0.79297200  0.44575200  0.61261800  1
  C  1359  1  0.80091400  0.45630100  0.64194800  1
  C  1360  1  0.82497200  0.44322500  0.65999500  1
  C  1361  1  0.84149000  0.41910400  0.64517200  1
  C  1362  1  0.83446800  0.40946200  0.61482900  1
  C  1365  1  0.76364700  0.48335500  0.62355100  1
  C  1367  1  0.87302400  0.38427700  0.63251800  1
  C  1369  1  0.89829700  0.36151700  0.63426900  1
  C  1370  1  0.92980700  0.37687300  0.64083400  1
  C  1376  1  0.74099400  0.50855200  0.62024100  1
  C  1377  1  0.70829400  0.49651300  0.61266900  1
  C  1383  1  0.31014400  0.08448100  0.40936100  1
  C  1384  1  0.29306400  0.06110600  0.39398300  1
  C  1385  1  0.30091800  0.05056300  0.36462800  1
  C  1386  1  0.32501000  0.06356100  0.34656700  1
  C  1387  1  0.34170900  0.08752800  0.36143800  1
  C  1388  1  0.33473100  0.09718700  0.39178700  1
  C  1391  1  0.26355200  0.02365400  0.38305000  1
  C  1393  1  0.37342900  0.12217400  0.37412200  1
  C  1395  1  0.39883400  0.14478700  0.37239700  1
  C  1396  1  0.43028000  0.12924200  0.36596800  1
  C  1402  1  0.24092800  0.99843800  0.38644100  1
  C  1403  1  0.20830500  0.01041400  0.39443400  1
  C  1409  1  0.09756200  0.69698400  0.58514800  1
  C  1410  1  0.11286900  0.71431800  0.56191900  1
  C  1411  1  0.14219400  0.70655000  0.55122400  1
  C  1412  1  0.16031500  0.68234600  0.56394700  1
  C  1413  1  0.14551800  0.66543700  0.58781600  1
  C  1414  1  0.11518600  0.67230700  0.59760100  1
  C  1417  1  0.12349600  0.74382600  0.52435900  1
  C  1419  1  0.13286200  0.63332000  0.62211900  1
  C  1421  1  0.13462100  0.60772600  0.64451600  1
  C  1422  1  0.14096000  0.57640000  0.62869800  1
  C  1428  1  0.11966800  0.76580300  0.49863100  1
  C  1429  1  0.10907400  0.79803800  0.50959000  1
  C  1435  1  0.90971700  0.19655100  0.92255100  1
  C  1436  1  0.89434700  0.21342600  0.94608700  1
  C  1437  1  0.86502400  0.20544100  0.95663200  1
  C  1438  1  0.84698100  0.18142000  0.94348200  1
  C  1439  1  0.86182700  0.16494700  0.91934700  1
  C  1440  1  0.89215900  0.17202600  0.90971000  1
  C  1443  1  0.88334500  0.24275300  0.98366600  1
  C  1445  1  0.87448800  0.13353500  0.88441900  1
  C  1447  1  0.87276500  0.10828100  0.86163800  1
  C  1448  1  0.86631600  0.07675000  0.87699700  1
  C  1454  1  0.88650700  0.26562800  0.00868200  1
  C  1455  1  0.89410000  0.29823800  0.99640500  1
  C  1461  1  0.59788100  0.80946800  0.42093100  1
  C  1462  1  0.61329000  0.79176200  0.44381400  1
  C  1463  1  0.64256700  0.79949300  0.45466600  1
  C  1464  1  0.66055000  0.82408300  0.44248800  1
  C  1465  1  0.64565700  0.84136100  0.41894900  1
  C  1466  1  0.61534100  0.83455400  0.40907400  1
  C  1469  1  0.62413500  0.76147100  0.48073600  1
  C  1471  1  0.63287900  0.87401200  0.38520100  1
  C  1473  1  0.63471000  0.89969400  0.36290500  1
  C  1474  1  0.64191700  0.93083500  0.37871200  1
  C  1480  1  0.62001900  0.74003500  0.50687500  1
  C  1481  1  0.60615500  0.70870100  0.49698900  1
  C  1487  1  0.40956200  0.31011600  0.08368600  1
  C  1488  1  0.39400900  0.29357700  0.06003000  1
  C  1489  1  0.36461200  0.30170500  0.04981800  1
  C  1490  1  0.34671200  0.32556200  0.06342600  1
  C  1491  1  0.36173400  0.34170400  0.08767300  1
  C  1492  1  0.39210800  0.33444400  0.09704200  1
  C  1495  1  0.38251000  0.26447100  0.02242700  1
  C  1497  1  0.37462100  0.37260700  0.12296600  1
  C  1499  1  0.37310400  0.39765600  0.14598600  1
  C  1500  1  0.36688800  0.42938600  0.13093400  1
  C  1506  1  0.38522400  0.24151000  0.99744000  1
  C  1507  1  0.39144700  0.20866700  0.00985800  1
  C  1513  1  0.92245700  0.40937500  0.80975400  1
  C  1514  1  0.94586800  0.39383500  0.79286400  1
  C  1515  1  0.95622800  0.36444800  0.80084700  1
  C  1516  1  0.94298300  0.34651100  0.82489100  1
  C  1517  1  0.91901500  0.36155200  0.84143700  1
  C  1518  1  0.90954400  0.39193000  0.83432500  1
  C  1521  1  0.98344600  0.38263400  0.76360100  1
  C  1523  1  0.88431700  0.37451500  0.87298200  1
  C  1525  1  0.86164300  0.37300700  0.89834800  1
  C  1526  1  0.87709400  0.36662400  0.92984900  1
  C  1532  1  0.00873500  0.38578100  0.74102400  1
  C  1533  1  0.99693400  0.39411500  0.70842300  1
  C  1539  1  0.58440700  0.59735200  0.30949700  1
  C  1540  1  0.56102100  0.61271700  0.29242400  1
  C  1541  1  0.55045700  0.64206300  0.30029900  1
  C  1542  1  0.56345100  0.66014100  0.32438700  1
  C  1543  1  0.58742300  0.64526700  0.34108300  1
  C  1544  1  0.59711100  0.61493000  0.33407700  1
  C  1547  1  0.52341500  0.62356000  0.26306400  1
  C  1549  1  0.62207000  0.63256000  0.37279600  1
  C  1551  1  0.64466400  0.63425500  0.39822000  1
  C  1552  1  0.62906500  0.64066100  0.42964000  1
  C  1558  1  0.49801000  0.62006800  0.24066500  1
  C  1559  1  0.50955500  0.61068200  0.20825800  1
  C  1565  1  0.08496800  0.90923000  0.69689200  1
  C  1566  1  0.06179400  0.89387300  0.71426100  1
  C  1567  1  0.05111100  0.86453500  0.70651500  1
  C  1568  1  0.06372000  0.84647800  0.68220100  1
  C  1569  1  0.08752000  0.86132100  0.66524300  1
  C  1570  1  0.09727200  0.89166700  0.67209500  1
  C  1573  1  0.02450500  0.88309500  0.74405400  1
  C  1575  1  0.12178900  0.87399200  0.63310300  1
  C  1577  1  0.14430000  0.87216200  0.60761500  1
  C  1578  1  0.12869700  0.86510100  0.57633800  1
  C  1584  1  0.99898500  0.88684600  0.76628100  1
  C  1585  1  0.01028300  0.89716700  0.79848800  1
  C  1591  1  0.42258700  0.09699100  0.19634500  1
  C  1592  1  0.44617700  0.11247900  0.21303900  1
  C  1593  1  0.45652500  0.14184400  0.20497600  1
  C  1594  1  0.44312800  0.15979400  0.18103200  1
  C  1595  1  0.41895600  0.14483300  0.16472100  1
  C  1596  1  0.40946900  0.11447800  0.17190900  1
  C  1599  1  0.48377100  0.12376400  0.24224200  1
  C  1601  1  0.38387300  0.13201900  0.13355000  1
  C  1603  1  0.36099000  0.13361000  0.10837900  1
  C  1604  1  0.37619900  0.13995300  0.07674800  1
  C  1610  1  0.50889000  0.12078000  0.26502800  1
  C  1611  1  0.49670000  0.11394300  0.29783400  1
  C  1617  1  0.80988800  0.92263900  0.40950400  1
  C  1618  1  0.79323800  0.94623500  0.39398300  1
  C  1619  1  0.80136900  0.95655400  0.36462400  1
  C  1620  1  0.82527700  0.94306800  0.34668900  1
  C  1621  1  0.84145800  0.91880900  0.36165500  1
  C  1622  1  0.83424000  0.90937300  0.39202000  1
  C  1625  1  0.76430600  0.98405400  0.38272900  1
  C  1627  1  0.87255700  0.88367700  0.37454000  1
  C  1629  1  0.89772900  0.86078800  0.37303200  1
  C  1630  1  0.92938900  0.87600100  0.36686200  1
  C  1636  1  0.74174900  0.00937300  0.38576000  1
  C  1637  1  0.70892500  0.99751600  0.39307500  1
  C  1643  1  0.30998900  0.58410600  0.59695900  1
  C  1644  1  0.29327200  0.56047500  0.61235700  1
  C  1645  1  0.30135000  0.54998100  0.64166800  1
  C  1646  1  0.32534100  0.56325000  0.65965800  1
  C  1647  1  0.34164400  0.58749300  0.64479800  1
  C  1648  1  0.33447000  0.59708800  0.61447500  1
  C  1651  1  0.26411300  0.52278600  0.62344000  1
  C  1653  1  0.37287300  0.62256000  0.63207900  1
  C  1655  1  0.39807200  0.64540600  0.63373600  1
  C  1656  1  0.42967200  0.63012300  0.64003700  1
  C  1662  1  0.24135100  0.49766100  0.62031900  1
  C  1663  1  0.20868000  0.50977900  0.61273600  1
  C  1669  1  0.69708600  0.08518100  0.90906600  1
  C  1670  1  0.71437100  0.06194400  0.89370900  1
  C  1671  1  0.70655700  0.05125700  0.86439100  1
  C  1672  1  0.68225800  0.06392100  0.84634800  1
  C  1673  1  0.66537500  0.08776900  0.86120400  1
  C  1674  1  0.67228900  0.09752600  0.89153600  1
  C  1677  1  0.74402400  0.02453200  0.88293300  1
  C  1679  1  0.63329000  0.12207000  0.87392900  1
  C  1681  1  0.60779300  0.14457500  0.87216000  1
  C  1682  1  0.57648800  0.12894200  0.86529200  1
  C  1688  1  0.76606800  0.99885800  0.88671500  1
  C  1689  1  0.79828700  0.00990100  0.89728000  1
  C  1695  1  0.19642500  0.42289700  0.09684200  1
  C  1696  1  0.21327500  0.44644900  0.11220400  1
  C  1697  1  0.20536700  0.45688300  0.14158300  1
  C  1698  1  0.18145700  0.44360600  0.15967400  1
  C  1699  1  0.16500800  0.41945100  0.14483100  1
  C  1700  1  0.17204500  0.40986700  0.11447000  1
  C  1703  1  0.24266300  0.48394700  0.12328800  1
  C  1705  1  0.13373300  0.38437200  0.13225300  1
  C  1707  1  0.10855600  0.36150800  0.13402900  1
  C  1708  1  0.07695900  0.37677000  0.14040700  1
  C  1714  1  0.26567200  0.50885000  0.12023700  1
  C  1715  1  0.29841800  0.49630500  0.11375300  1
  C  1721  1  0.40931000  0.80978600  0.92211900  1
  C  1722  1  0.39379200  0.79275700  0.94544100  1
  C  1723  1  0.36442500  0.80070800  0.95588400  1
  C  1724  1  0.34649800  0.82487500  0.94284400  1
  C  1725  1  0.36150300  0.84151800  0.91892500  1
  C  1726  1  0.39186700  0.83445000  0.90938000  1
  C  1729  1  0.38268500  0.76339300  0.98297500  1
  C  1731  1  0.37445500  0.87327800  0.88441200  1
  C  1733  1  0.37291200  0.89872200  0.86182700  1
  C  1734  1  0.36645600  0.93016300  0.87737300  1
  C  1740  1  0.38605800  0.74112300  0.00851100  1
  C  1741  1  0.39567900  0.70870300  0.99720700  1
  C  1747  1  0.59714800  0.31011100  0.58420600  1
  C  1748  1  0.61258600  0.29343300  0.56057000  1
  C  1749  1  0.64190400  0.30155700  0.55012200  1
  C  1750  1  0.65987300  0.32551600  0.56347100  1
  C  1751  1  0.64498000  0.34175500  0.58773800  1
  C  1752  1  0.61465300  0.33454100  0.59729800  1
  C  1755  1  0.62373800  0.26437600  0.52281900  1
  C  1757  1  0.63221600  0.37291200  0.62285300  1
  C  1759  1  0.63382100  0.39810000  0.64571700  1
  C  1760  1  0.64002800  0.42973000  0.63045800  1
  C  1766  1  0.62066800  0.24167700  0.49762900  1
  C  1767  1  0.61320500  0.20894900  0.50965900  1
  C  1773  1  0.90928300  0.69697300  0.08482700  1
  C  1774  1  0.89390800  0.71425800  0.06160000  1
  C  1775  1  0.86454200  0.70650600  0.05099300  1
  C  1776  1  0.84647300  0.68228200  0.06375200  1
  C  1777  1  0.86136100  0.66535900  0.08754900  1
  C  1778  1  0.89172300  0.67222600  0.09723800  1
  C  1781  1  0.88308800  0.74393700  0.02423500  1
  C  1783  1  0.87407200  0.63331100  0.12188900  1
  C  1785  1  0.87229100  0.60784600  0.14442900  1
  C  1786  1  0.86527100  0.57654800  0.12885300  1
  C  1792  1  0.88674000  0.76624400  0.99877300  1
  C  1793  1  0.89651600  0.79857200  0.01021600  1
  C  1799  1  0.09706700  0.19669400  0.42284400  1
  C  1800  1  0.11253500  0.21346000  0.44638900  1
  C  1801  1  0.14191400  0.20546200  0.45675600  1
  C  1802  1  0.15990800  0.18151400  0.44341400  1
  C  1803  1  0.14495600  0.16512100  0.41928900  1
  C  1804  1  0.11459500  0.17226200  0.40977200  1
  C  1807  1  0.12375100  0.24273200  0.48394900  1
  C  1809  1  0.13218100  0.13387300  0.38425600  1
  C  1811  1  0.13380400  0.10866600  0.36141500  1
  C  1812  1  0.14011200  0.07706500  0.37669300  1
  C  1818  1  0.12072100  0.26555000  0.50903300  1
  C  1819  1  0.11377500  0.29831400  0.49679000  1
  C  1825  1  0.08438400  0.59735400  0.19692700  1
  C  1826  1  0.06097500  0.61281200  0.21388700  1
  C  1827  1  0.05053900  0.64218100  0.20593900  1
  C  1828  1  0.06372300  0.66018500  0.18190800  1
  C  1829  1  0.08773500  0.64523700  0.16534400  1
  C  1830  1  0.09728900  0.61487500  0.17240800  1
  C  1833  1  0.02333200  0.62384700  0.24312500  1
  C  1835  1  0.12245200  0.63239800  0.13376100  1
  C  1837  1  0.14509000  0.63398300  0.10836800  1
  C  1838  1  0.12957200  0.64027500  0.07688100  1
  C  1844  1  0.99798300  0.62056200  0.26561500  1
  C  1845  1  0.00970400  0.61216500  0.29822900  1
  C  1851  1  0.42260100  0.40960500  0.69668000  1
  C  1852  1  0.44616700  0.39408300  0.71337600  1
  C  1853  1  0.45655800  0.36475300  0.70523300  1
  C  1854  1  0.44322900  0.34686000  0.68120500  1
  C  1855  1  0.41902800  0.36183300  0.66494300  1
  C  1856  1  0.40951100  0.39216500  0.67219600  1
  C  1859  1  0.48381500  0.38278900  0.74251400  1
  C  1861  1  0.38397900  0.37470700  0.63375900  1
  C  1863  1  0.36112400  0.37316100  0.60855700  1
  C  1864  1  0.37637000  0.36685500  0.57693800  1
  C  1870  1  0.50899600  0.38579000  0.76523200  1
  C  1871  1  0.49700500  0.39362300  0.79789000  1
  C  1877  1  0.92186500  0.09721700  0.30995400  1
  C  1878  1  0.94521000  0.11255800  0.29279600  1
  C  1879  1  0.95584500  0.14189000  0.30063100  1
  C  1880  1  0.94299400  0.15995800  0.32480500  1
  C  1881  1  0.91902900  0.14513800  0.34154700  1
  C  1882  1  0.90933400  0.11479200  0.33462400  1
  C  1885  1  0.98265400  0.12338500  0.26323100  1
  C  1887  1  0.88446500  0.13249400  0.37337400  1
  C  1889  1  0.86181600  0.13429700  0.39874200  1
  C  1890  1  0.87728800  0.14117900  0.43012500  1
  C  1896  1  0.00794600  0.11985600  0.24071100  1
  C  1897  1  0.99615300  0.11104400  0.20823200  1
  C  1903  1  0.58304600  0.91007100  0.81042600  1
  C  1904  1  0.55924000  0.89441200  0.79419200  1
  C  1905  1  0.54915200  0.86502200  0.80251000  1
  C  1906  1  0.56301600  0.84723800  0.82629600  1
  C  1907  1  0.58742800  0.86233300  0.84211400  1
  C  1908  1  0.59669300  0.89269300  0.83465300  1
  C  1911  1  0.52162200  0.88257800  0.76522700  1
  C  1913  1  0.62311700  0.87529000  0.87251800  1
  C  1915  1  0.64642700  0.87383000  0.89730100  1
  C  1916  1  0.63176100  0.86757400  0.92920600  1
  C  1922  1  0.49678800  0.88492700  0.74206300  1
  C  1923  1  0.50945300  0.89049400  0.70919500  1
  C  1929  1  0.19665800  0.08376700  0.59697300  1
  C  1930  1  0.21335700  0.06019700  0.61247900  1
  C  1931  1  0.20527200  0.04987200  0.64184800  1
  C  1932  1  0.18136400  0.06332800  0.65980300  1
  C  1933  1  0.16514200  0.08757100  0.64485600  1
  C  1934  1  0.17232000  0.09701700  0.61448700  1
  C  1937  1  0.24245000  0.02251800  0.62376600  1
  C  1939  1  0.13405200  0.12273300  0.63204200  1
  C  1941  1  0.10891400  0.14565400  0.63362000  1
  C  1942  1  0.07725200  0.13047700  0.63987100  1
  C  1948  1  0.26532800  0.99747200  0.62087600  1
  C  1949  1  0.29811600  0.00977200  0.61415200  1
  C  1955  1  0.69675600  0.42229400  0.40947400  1
  C  1956  1  0.71359300  0.44582800  0.39406000  1
  C  1957  1  0.70556100  0.45632400  0.36473700  1
  C  1958  1  0.68153100  0.44313200  0.34674000  1
  C  1959  1  0.66512600  0.41896800  0.36161900  1
  C  1960  1  0.67226100  0.40935600  0.39194600  1
  C  1963  1  0.74278400  0.48350600  0.38302000  1
  C  1965  1  0.63375600  0.38403000  0.37436000  1
  C  1967  1  0.60847400  0.36127400  0.37272200  1
  C  1968  1  0.57692700  0.37667700  0.36645800  1
  C  1974  1  0.76537300  0.50877400  0.38626100  1
  C  1975  1  0.79797100  0.49693100  0.39456100  1
  C  1981  1  0.31001400  0.92204300  0.09721700  1
  C  1982  1  0.29312100  0.94552200  0.11265700  1
  C  1983  1  0.30113000  0.95603200  0.14198500  1
  C  1984  1  0.32524800  0.94293900  0.15994200  1
  C  1985  1  0.34174400  0.91886700  0.14502600  1
  C  1986  1  0.33464800  0.90928100  0.11468400  1
  C  1989  1  0.26379200  0.98308600  0.12373600  1
  C  1991  1  0.37330200  0.88412300  0.13221400  1
  C  1993  1  0.39859200  0.86137500  0.13386800  1
  C  1994  1  0.43009000  0.87670800  0.14055300  1
  C  2000  1  0.24125400  0.00839300  0.12044800  1
  C  2001  1  0.20862400  0.99658500  0.11223200  1
  C  2007  1  0.81043500  0.58346600  0.90988800  1
  C  2008  1  0.79386800  0.55979200  0.89439800  1
  C  2009  1  0.80197200  0.54950800  0.86501700  1
  C  2010  1  0.82582000  0.56306500  0.84706400  1
  C  2011  1  0.84197600  0.58734500  0.86201700  1
  C  2012  1  0.83474300  0.59678300  0.89237600  1
  C  2015  1  0.76468900  0.52222500  0.88298000  1
  C  2017  1  0.87284600  0.62271700  0.87476500  1
  C  2019  1  0.89783500  0.64579600  0.87313200  1
  C  2020  1  0.92958100  0.63081600  0.86683100  1
  C  2026  1  0.74158300  0.49737200  0.88568900  1
  C  2027  1  0.70876800  0.51001000  0.89162600  1
  C  2033  1  0.59737000  0.19679200  0.08477300  1
  C  2034  1  0.61281200  0.21398300  0.06152600  1
  C  2035  1  0.64217400  0.20613100  0.05100000  1
  C  2036  1  0.66017500  0.18195000  0.06391700  1
  C  2037  1  0.64523500  0.16514100  0.08776300  1
  C  2038  1  0.61488200  0.17212200  0.09740300  1
  C  2041  1  0.62376100  0.24347100  0.02404200  1
  C  2043  1  0.63240300  0.13321500  0.12216700  1
  C  2045  1  0.63404100  0.10769700  0.14466200  1
  C  2046  1  0.64052900  0.07632100  0.12900200  1
  C  2052  1  0.62022000  0.26564500  0.99844300  1
  C  2053  1  0.61001500  0.29794000  0.00959800  1
  C  2059  1  0.40992200  0.69645800  0.42344000  1
  C  2060  1  0.39437600  0.71283500  0.44721600  1
  C  2061  1  0.36502100  0.70458200  0.45745600  1
  C  2062  1  0.34713100  0.68077100  0.44376000  1
  C  2063  1  0.36210800  0.66485800  0.41933300  1
  C  2064  1  0.39245600  0.67221000  0.40995000  1
  C  2067  1  0.38282600  0.74181100  0.48491000  1
  C  2069  1  0.37492400  0.63424200  0.38376900  1
  C  2071  1  0.37336500  0.60934500  0.36058800  1
  C  2072  1  0.36715100  0.57752300  0.37544600  1
  C  2078  1  0.38536000  0.76497100  0.50973000  1
  C  2079  1  0.39127100  0.79777900  0.49706300  1
  C  2085  1  0.09719900  0.30988500  0.92211900  1
  C  2086  1  0.11250900  0.29276300  0.94550800  1
  C  2087  1  0.14185700  0.30059000  0.95610300  1
  C  2088  1  0.15998800  0.32464800  0.94312400  1
  C  2089  1  0.14520900  0.34130500  0.91907300  1
  C  2090  1  0.11484900  0.33440300  0.90939800  1
  C  2093  1  0.12328500  0.26335100  0.98308100  1
  C  2095  1  0.13264000  0.37299700  0.88435400  1
  C  2097  1  0.13445900  0.39833800  0.86167700  1
  C  2098  1  0.14107200  0.42977600  0.87715200  1
  C  2104  1  0.11980100  0.24077800  0.00833100  1
  C  2105  1  0.11183300  0.20813900  0.99638700  1
  C  2111  1  0.90995300  0.81047900  0.58326800  1
  C  2112  1  0.89440900  0.79429600  0.55935500  1
  C  2113  1  0.86508000  0.80265300  0.54913400  1
  C  2114  1  0.84722400  0.82643000  0.56293800  1
  C  2115  1  0.86216000  0.84209100  0.58755000  1
  C  2116  1  0.89249000  0.83463900  0.59692000  1
  C  2119  1  0.88276900  0.76542400  0.52161300  1
  C  2121  1  0.87493600  0.87239800  0.62338500  1
  C  2123  1  0.87336800  0.89713700  0.64673800  1
  C  2124  1  0.86724900  0.92907200  0.63208600  1
  C  2130  1  0.88522300  0.74228500  0.49676200  1
  C  2131  1  0.89060900  0.70938400  0.50942500  1
  N  895  1  0.48007300  0.85834900  0.28310300  1
  N  898  1  0.38749700  0.89963900  0.35510200  1
  N  921  1  0.02626800  0.14820800  0.78251700  1
  N  924  1  0.11866400  0.10706400  0.85480700  1
  N  947  1  0.52743900  0.35828300  0.22527000  1
  N  950  1  0.61862400  0.39913200  0.15137400  1
  N  973  1  0.98004100  0.64840400  0.72378000  1
  N  976  1  0.88768000  0.60706700  0.65152900  1
  N  999  1  0.28138700  0.47929200  0.85860000  1
  N  1002  1  0.35530500  0.38802100  0.89921600  1
  N  1025  1  0.78279700  0.02585800  0.14825700  1
  N  1028  1  0.85434800  0.11888500  0.10722300  1
  N  1051  1  0.22433800  0.52689800  0.35868300  1
  N  1054  1  0.15135800  0.61894700  0.39932400  1
  N  1077  1  0.72365300  0.97997400  0.64851700  1
  N  1080  1  0.65146900  0.88757600  0.60713900  1
  N  1103  1  0.85838100  0.28117700  0.47890600  1
  N  1106  1  0.89910500  0.35541600  0.38794500  1
  N  1129  1  0.14819500  0.78252900  0.02634900  1
  N  1132  1  0.10715200  0.85494100  0.11868400  1
  N  1155  1  0.35837100  0.22396700  0.52670200  1
  N  1158  1  0.39943200  0.15164600  0.61909500  1
  N  1181  1  0.64850100  0.72345000  0.98048300  1
  N  1184  1  0.60694700  0.65179700  0.88773300  1
  N  1207  1  0.52779900  0.14812100  0.72530400  1
  N  1210  1  0.61896600  0.10783900  0.65109700  1
  N  1233  1  0.98065600  0.85854500  0.22368200  1
  N  1236  1  0.88782800  0.89963900  0.15190000  1
  N  1259  1  0.47934300  0.64822600  0.78134400  1
  N  1262  1  0.38793100  0.60783200  0.85518900  1
  N  1285  1  0.02655200  0.35851400  0.28251900  1
  N  1288  1  0.11895700  0.39934500  0.35498700  1
  N  1311  1  0.72547800  0.52781000  0.14832500  1
  N  1314  1  0.65127500  0.61871600  0.10743000  1
  N  1337  1  0.22386600  0.98068800  0.85859600  1
  N  1340  1  0.15213900  0.88767300  0.89933600  1
  N  1363  1  0.78223600  0.48005200  0.64812000  1
  N  1366  1  0.85494100  0.38778800  0.60744600  1
  N  1389  1  0.28212800  0.02690000  0.35846100  1
  N  1392  1  0.35532200  0.11874700  0.39918500  1
  N  1415  1  0.14815000  0.72531600  0.52748700  1
  N  1418  1  0.10780000  0.65146900  0.61892400  1
  N  1441  1  0.85878300  0.22415800  0.98033300  1
  N  1444  1  0.89954900  0.15162000  0.88797400  1
  N  1467  1  0.64851900  0.78041300  0.47814900  1
  N  1470  1  0.60788300  0.85572000  0.38809800  1
  N  1493  1  0.35805700  0.28314900  0.02608200  1
  N  1496  1  0.39963600  0.35453200  0.11902900  1
  N  1519  1  0.97994000  0.35808700  0.78218700  1
  N  1522  1  0.88795100  0.39950600  0.85481700  1
  N  1545  1  0.52671500  0.64818000  0.28158800  1
  N  1548  1  0.61865600  0.60751100  0.35467300  1
  N  1571  1  0.02751800  0.85850600  0.72543800  1
  N  1574  1  0.11858500  0.89905700  0.65124500  1
  N  1597  1  0.48026000  0.14825600  0.22358800  1
  N  1600  1  0.38762200  0.10699500  0.15165300  1
  N  1623  1  0.78291500  0.98041300  0.35822300  1
  N  1626  1  0.85445400  0.88750500  0.39955000  1
  N  1649  1  0.28273600  0.52621400  0.64797000  1
  N  1652  1  0.35476500  0.61891500  0.60704900  1
  N  1675  1  0.72538100  0.02758400  0.85836900  1
  N  1678  1  0.65147100  0.11885500  0.89896200  1
  N  1701  1  0.22409100  0.48056700  0.14785800  1
  N  1704  1  0.15173000  0.38802400  0.10714000  1
  N  1727  1  0.35813700  0.78200200  0.97958200  1
  N  1730  1  0.39943700  0.85507100  0.88790900  1
  N  1753  1  0.64825100  0.28300600  0.52632000  1
  N  1756  1  0.60719900  0.35479500  0.61915500  1
  N  1779  1  0.85847600  0.72536900  0.02736200  1
  N  1782  1  0.89914000  0.65143700  0.11859800  1
  N  1805  1  0.14826900  0.22410700  0.48047900  1
  N  1808  1  0.10714100  0.15196000  0.38795900  1
  N  1831  1  0.02678100  0.64843400  0.22458000  1
  N  1834  1  0.11888700  0.60737400  0.15189500  1
  N  1857  1  0.48029700  0.35831800  0.72383500  1
  N  1860  1  0.38769600  0.39968900  0.65192400  1
  N  1883  1  0.97950300  0.14798300  0.28181200  1
  N  1886  1  0.88782800  0.10741600  0.35528000  1
  N  1909  1  0.52542000  0.85824500  0.78403000  1
  N  1912  1  0.61894300  0.90026500  0.85443500  1
  N  1935  1  0.22383400  0.02610300  0.64827200  1
  N  1938  1  0.15211200  0.11890700  0.60700300  1
  N  1961  1  0.72418900  0.48008900  0.35847000  1
  N  1964  1  0.65187800  0.38761700  0.39939100  1
  N  1987  1  0.28244700  0.97975000  0.14825300  1
  N  1990  1  0.35513900  0.88765300  0.10720300  1
  N  2013  1  0.78336700  0.52579400  0.85851500  1
  N  2016  1  0.85481000  0.61882300  0.89981400  1
  N  2039  1  0.64835300  0.22490700  0.02732900  1
  N  2042  1  0.60738400  0.15139500  0.11879700  1
  N  2065  1  0.35841500  0.72308700  0.48121900  1
  N  2068  1  0.39994300  0.65229400  0.38779300  1
  N  2091  1  0.14791800  0.28186500  0.97984500  1
  N  2094  1  0.10752200  0.35497300  0.88779600  1
  N  2117  1  0.85842700  0.78422900  0.52532300  1
  N  2120  1  0.89994800  0.85435900  0.61926100  1
  O  896  1  0.46295800  0.90605600  0.26988800  1
  O  900  1  0.40216500  0.84987800  0.36577900  1
  O  922  1  0.04349900  0.10053100  0.76936500  1
  O  926  1  0.10392400  0.15681600  0.86541900  1
  O  948  1  0.54493200  0.40594700  0.23800600  1
  O  952  1  0.60359100  0.34941700  0.14101100  1
  O  974  1  0.96294800  0.60065900  0.73691000  1
  O  978  1  0.90231800  0.65684900  0.64091700  1
  O  1000  1  0.26870800  0.46173200  0.90626400  1
  O  1004  1  0.36562400  0.40314000  0.84951800  1
  O  1026  1  0.76948000  0.04306100  0.10061900  1
  O  1030  1  0.86507500  0.10416300  0.15696000  1
  O  1052  1  0.23724400  0.54435900  0.40633900  1
  O  1056  1  0.14097600  0.60400700  0.34958600  1
  O  1078  1  0.73680600  0.96289900  0.60077000  1
  O  1082  1  0.64083200  0.90220300  0.65691800  1
  O  1104  1  0.90608600  0.26859900  0.46142000  1
  O  1108  1  0.84937900  0.36567000  0.40302200  1
  O  1130  1  0.10053100  0.76941300  0.04363500  1
  O  1134  1  0.15689600  0.86552300  0.10389400  1
  O  1156  1  0.40600400  0.23715100  0.54401900  1
  O  1160  1  0.34971300  0.14099900  0.60427400  1
  O  1182  1  0.60074300  0.73673200  0.96353900  1
  O  1186  1  0.65673400  0.64104900  0.90225600  1
  O  1208  1  0.54546500  0.10046100  0.73784100  1
  O  1212  1  0.60374300  0.15753300  0.64090800  1
  O  1234  1  0.96343300  0.90619500  0.23695700  1
  O  1238  1  0.90255200  0.84989900  0.14120000  1
  O  1260  1  0.46164200  0.60063200  0.76861600  1
  O  1264  1  0.40311900  0.65751200  0.86549100  1
  O  1286  1  0.04389100  0.40618200  0.26947200  1
  O  1290  1  0.10407900  0.34961600  0.36552500  1
  O  1312  1  0.73812200  0.54528300  0.10063500  1
  O  1316  1  0.64093800  0.60366000  0.15714400  1
  O  1338  1  0.23710500  0.96335400  0.90621300  1
  O  1342  1  0.14149800  0.90250100  0.84961200  1
  O  1364  1  0.76924200  0.46261400  0.60048400  1
  O  1368  1  0.86540500  0.40272400  0.65717200  1
  O  1390  1  0.26926000  0.04435700  0.40612700  1
  O  1394  1  0.36572100  0.10378000  0.34945400  1
  O  1416  1  0.10049900  0.73795800  0.54510500  1
  O  1420  1  0.15750100  0.64121800  0.60376400  1
  O  1442  1  0.90641400  0.23721400  0.96291500  1
  O  1446  1  0.84982700  0.14108700  0.90288700  1
  O  1468  1  0.60097800  0.76786800  0.46030900  1
  O  1472  1  0.65754900  0.86588800  0.40341000  1
  O  1494  1  0.40579600  0.26978900  0.04300100  1
  O  1498  1  0.34985400  0.36534200  0.10453300  1
  O  1520  1  0.96283700  0.40583100  0.76914000  1
  O  1524  1  0.90259600  0.34972200  0.86541200  1
  O  1546  1  0.54415800  0.60051600  0.26873100  1
  O  1550  1  0.60366200  0.65722600  0.36511600  1
  O  1572  1  0.04513800  0.90615800  0.73805300  1
  O  1576  1  0.10347200  0.84933500  0.64103000  1
  O  1598  1  0.46312200  0.10056600  0.23682300  1
  O  1602  1  0.40230400  0.15674900  0.14095400  1
  O  1624  1  0.76958600  0.96335700  0.40591000  1
  O  1628  1  0.86520400  0.90209200  0.34978200  1
  O  1650  1  0.26952800  0.54354400  0.60034800  1
  O  1654  1  0.36543900  0.60407100  0.65675900  1
  O  1676  1  0.73810400  0.04519600  0.90599100  1
  O  1680  1  0.64115300  0.10374000  0.84926100  1
  O  1702  1  0.23709400  0.46325400  0.10016500  1
  O  1706  1  0.14126100  0.40287200  0.15689200  1
  O  1728  1  0.40585900  0.76904300  0.96237000  1
  O  1732  1  0.34967600  0.86561100  0.90267200  1
  O  1754  1  0.60061600  0.26972400  0.54356000  1
  O  1758  1  0.65691600  0.36552500  0.60437400  1
  O  1780  1  0.90616700  0.73801400  0.04487300  1
  O  1784  1  0.84939100  0.64119700  0.10358800  1
  O  1806  1  0.10058200  0.23726000  0.46328600  1
  O  1810  1  0.15689200  0.14132200  0.40269400  1
  O  1832  1  0.04401500  0.60072200  0.23756700  1
  O  1836  1  0.10410800  0.65713500  0.14137000  1
  O  1858  1  0.46315000  0.40597400  0.73714300  1
  O  1862  1  0.40240500  0.34996500  0.64113200  1
  O  1884  1  0.96195200  0.10033500  0.26903100  1
  O  1888  1  0.90284700  0.15714700  0.36559400  1
  O  1910  1  0.54213200  0.90596800  0.77034400  1
  O  1914  1  0.60461400  0.85049500  0.86553500  1
  O  1936  1  0.23709100  0.04317700  0.60056700  1
  O  1940  1  0.14142900  0.10430000  0.65678000  1
  O  1962  1  0.73730200  0.46277100  0.40611700  1
  O  1966  1  0.64125500  0.40248400  0.34967400  1
  O  1988  1  0.26937300  0.96241200  0.10060200  1
  O  1992  1  0.36570900  0.90249200  0.15693300  1
  O  2014  1  0.77004100  0.54284100  0.90622200  1
  O  2018  1  0.86557200  0.60420700  0.85005600  1
  O  2040  1  0.60062700  0.23768000  0.04465800  1
  O  2044  1  0.65712900  0.14099400  0.10388200  1
  O  2066  1  0.40609700  0.73662800  0.46428900  1
  O  2070  1  0.35018700  0.64136500  0.40229900  1
  O  2092  1  0.10026400  0.26905600  0.96232000  1
  O  2096  1  0.15726800  0.36525700  0.90278700  1
  O  2118  1  0.90605800  0.77049200  0.54224800  1
  O  2122  1  0.85022700  0.86544700  0.60475700  1
