# generated using pymatgen
data_H36C53
_symmetry_space_group_name_H-M   'P 1'
_cell_length_a   28.62360000
_cell_length_b   58.38090000
_cell_length_c   58.38080000
_cell_angle_alpha   119.99983001
_cell_angle_beta   89.97390000
_cell_angle_gamma   89.99999991
_symmetry_Int_Tables_number   1
_chemical_formula_structural   H36C53
_chemical_formula_sum   'H432 C636'
_cell_volume   84488.26609356
_cell_formula_units_Z   12
loop_
 _symmetry_equiv_pos_site_id
 _symmetry_equiv_pos_as_xyz
  1  'x, y, z'
loop_
 _atom_site_type_symbol
 _atom_site_label
 _atom_site_symmetry_multiplicity
 _atom_site_fract_x
 _atom_site_fract_y
 _atom_site_fract_z
 _atom_site_occupancy
  H  4  1  0.05993300  0.99036200  0.52323100  1
  H  6  1  0.86927400  0.98485800  0.47544400  1
  H  8  1  0.62282500  0.97866900  0.46272700  1
  H  9  1  0.48704900  0.97874400  0.53597000  1
  H  35  1  0.82041000  0.64197500  0.46510700  1
  H  36  1  0.82116400  0.59790300  0.45698800  1
  H  37  1  0.67589300  0.63592400  0.44927100  1
  H  38  1  0.67624000  0.59204100  0.44172100  1
  H  39  1  0.67803300  0.54400500  0.40146200  1
  H  40  1  0.68048600  0.53647300  0.35766100  1
  H  41  1  0.82529200  0.55177700  0.36521200  1
  H  42  1  0.82311400  0.55881800  0.40879500  1
  H  43  1  0.80238800  0.51446700  0.41320400  1
  H  44  1  0.86551400  0.49950000  0.42846700  1
  H  45  1  0.84994800  0.56582200  0.50482700  1
  H  46  1  0.78702700  0.58109000  0.48938800  1
  H  47  1  0.69667300  0.58598900  0.48571800  1
  H  48  1  0.70922600  0.51087300  0.41730000  1
  H  49  1  0.64702900  0.49494800  0.43255900  1
  H  50  1  0.63449000  0.57027600  0.50074300  1
  H  76  1  0.82017300  0.82241200  0.35757500  1
  H  77  1  0.82088700  0.85836400  0.40163400  1
  H  78  1  0.67564200  0.81263800  0.36364300  1
  H  79  1  0.67594900  0.84898200  0.40751300  1
  H  80  1  0.67770800  0.85672300  0.45553900  1
  H  81  1  0.68014500  0.82045200  0.46305600  1
  H  82  1  0.82498900  0.81275200  0.44777500  1
  H  83  1  0.82280200  0.84929900  0.44075000  1
  H  84  1  0.80197400  0.89807300  0.48510400  1
  H  85  1  0.86508400  0.92831400  0.50007700  1
  H  86  1  0.84969900  0.93830700  0.43372600  1
  H  87  1  0.78679400  0.90759000  0.41845600  1
  H  88  1  0.69644700  0.89905800  0.41359400  1
  H  89  1  0.70882400  0.90570800  0.48868700  1
  H  90  1  0.64664500  0.93690000  0.50462300  1
  H  91  1  0.63428400  0.92980400  0.42931400  1
  H  117  1  0.82055100  0.53447400  0.17712400  1
  H  118  1  0.82125300  0.54257700  0.14117400  1
  H  119  1  0.67599700  0.55024600  0.18692500  1
  H  120  1  0.67629500  0.55776700  0.15057900  1
  H  121  1  0.67797300  0.59806100  0.14279800  1
  H  122  1  0.68029200  0.64184600  0.17906900  1
  H  123  1  0.82512100  0.63435000  0.18684000  1
  H  124  1  0.82306100  0.59078100  0.15029300  1
  H  125  1  0.80239000  0.58636100  0.10153200  1
  H  126  1  0.86555700  0.57112600  0.07130100  1
  H  127  1  0.85014000  0.49474900  0.06122700  1
  H  128  1  0.78717800  0.51016100  0.09193300  1
  H  129  1  0.69680300  0.51380500  0.10050800  1
  H  130  1  0.70924600  0.58223100  0.09382800  1
  H  131  1  0.64713400  0.56695500  0.06262200  1
  H  132  1  0.63469600  0.49876000  0.06975000  1
  H  158  1  0.32038600  0.35725500  0.53470900  1
  H  159  1  0.32108800  0.40131200  0.54281400  1
  H  160  1  0.17589000  0.36332300  0.55066300  1
  H  161  1  0.17618600  0.40719000  0.55819700  1
  H  162  1  0.17788100  0.45525000  0.59845600  1
  H  163  1  0.18034700  0.46275000  0.64224600  1
  H  164  1  0.32515800  0.44739300  0.63458100  1
  H  165  1  0.32296100  0.44038000  0.59101800  1
  H  166  1  0.30225400  0.48476900  0.58667100  1
  H  167  1  0.36539100  0.49974500  0.57140400  1
  H  168  1  0.34990000  0.43345100  0.49503200  1
  H  169  1  0.28696600  0.41817500  0.51047200  1
  H  170  1  0.19659600  0.41324600  0.51415300  1
  H  171  1  0.20907500  0.48835400  0.58257000  1
  H  172  1  0.14691700  0.50429400  0.56732300  1
  H  173  1  0.13444800  0.42897000  0.49913900  1
  H  199  1  0.32004000  0.17670600  0.64227300  1
  H  200  1  0.32073200  0.14077900  0.59820700  1
  H  201  1  0.17558600  0.18667100  0.63627800  1
  H  202  1  0.17584100  0.15034400  0.59239500  1
  H  203  1  0.17758700  0.14250800  0.54431500  1
  H  204  1  0.18007800  0.17878400  0.53679900  1
  H  205  1  0.32487900  0.18647800  0.55211600  1
  H  206  1  0.32265700  0.14994200  0.55914900  1
  H  207  1  0.30202000  0.10120900  0.51478600  1
  H  208  1  0.36516000  0.07096900  0.49982000  1
  H  209  1  0.34949100  0.06088000  0.56610500  1
  H  210  1  0.28655700  0.09159500  0.58137200  1
  H  211  1  0.19619800  0.10024100  0.58632900  1
  H  212  1  0.20883100  0.09350500  0.51120200  1
  H  213  1  0.14665800  0.06232800  0.49527600  1
  H  214  1  0.13403600  0.06951100  0.57061600  1
  H  240  1  0.32067900  0.46475300  0.82271900  1
  H  241  1  0.32140600  0.45663200  0.85865500  1
  H  242  1  0.17614800  0.44897900  0.81297500  1
  H  243  1  0.17646200  0.44143100  0.84931600  1
  H  244  1  0.17814600  0.40118000  0.85714500  1
  H  245  1  0.18046600  0.35738700  0.82087000  1
  H  246  1  0.32525600  0.36486800  0.81295700  1
  H  247  1  0.32320900  0.40843700  0.84950500  1
  H  248  1  0.30269100  0.41284000  0.89827500  1
  H  249  1  0.36583400  0.42808200  0.92848600  1
  H  250  1  0.35028100  0.50447000  0.93859600  1
  H  251  1  0.28734300  0.48905300  0.90791300  1
  H  252  1  0.19697700  0.48542200  0.89935700  1
  H  253  1  0.20949500  0.41703100  0.90609900  1
  H  254  1  0.14731500  0.43231200  0.93730400  1
  H  255  1  0.13481200  0.50046600  0.93011200  1
  H  262  1  0.86957200  0.52410500  0.50964700  1
  H  269  1  0.06034500  0.47635800  0.46738800  1
  H  270  1  0.12308300  0.46237100  0.48366600  1
  H  271  1  0.05751900  0.49497700  0.55804900  1
  H  272  1  0.95035800  0.51889700  0.44693200  1
  H  275  1  0.98738100  0.53567800  0.55683300  1
  H  276  1  0.97703900  0.50940000  0.56302300  1
  H  277  1  0.90676900  0.52054100  0.54506000  1
  H  278  1  0.92471900  0.48729800  0.52507200  1
  H  279  1  0.01543100  0.50453500  0.46131100  1
  H  289  1  0.12267500  0.02062900  0.53722300  1
  H  290  1  0.05723900  0.06239700  0.50459700  1
  H  291  1  0.94998500  0.92735900  0.48067500  1
  H  294  1  0.98715300  0.02047800  0.46389200  1
  H  295  1  0.97678100  0.05294700  0.49016600  1
  H  296  1  0.90650600  0.02383800  0.47901500  1
  H  297  1  0.92438800  0.03709600  0.51226000  1
  H  298  1  0.01505400  0.95610400  0.49504600  1
  H  305  1  0.86981600  0.48994800  0.01471000  1
  H  312  1  0.06053700  0.53224600  0.00924800  1
  H  313  1  0.12334500  0.51597000  0.97899900  1
  H  314  1  0.05793800  0.44157200  0.93723000  1
  H  315  1  0.95043700  0.55268600  0.07223000  1
  H  318  1  0.98772700  0.44279100  0.97913300  1
  H  319  1  0.97744800  0.43658800  0.94665800  1
  H  320  1  0.90710500  0.45454800  0.97573800  1
  H  321  1  0.92506500  0.47453200  0.96248300  1
  H  322  1  0.01556400  0.53832100  0.04349600  1
  H  329  1  0.36956500  0.47517400  0.49022900  1
  H  336  1  0.56027900  0.52288600  0.53248800  1
  H  337  1  0.62306300  0.53687000  0.51621400  1
  H  338  1  0.55762400  0.50429500  0.44183600  1
  H  339  1  0.45024000  0.48033800  0.55292500  1
  H  342  1  0.48745800  0.46360200  0.44304100  1
  H  343  1  0.47714500  0.48989200  0.43686600  1
  H  344  1  0.40683200  0.47875500  0.45482600  1
  H  345  1  0.42476500  0.51199000  0.47482300  1
  H  346  1  0.51534700  0.49470200  0.53855100  1
  H  353  1  0.36921600  0.01435200  0.52438000  1
  H  358  1  0.56004100  0.00892700  0.47670900  1
  H  359  1  0.55726700  0.93684900  0.49527900  1
  H  360  1  0.44995400  0.07189700  0.51924000  1
  H  363  1  0.47676700  0.94628000  0.50967900  1
  H  364  1  0.40645500  0.97537200  0.52080600  1
  H  365  1  0.42445700  0.96213600  0.48757300  1
  H  366  1  0.51507100  0.04316800  0.50488800  1
  H  373  1  0.36988000  0.50926500  0.98510300  1
  H  380  1  0.56059700  0.46700100  0.99060800  1
  H  381  1  0.62331800  0.48328100  0.02088000  1
  H  382  1  0.55777000  0.55766500  0.06265300  1
  H  383  1  0.45067300  0.44655500  0.92759700  1
  H  386  1  0.48769200  0.55644500  0.02072900  1
  H  387  1  0.47731200  0.56263600  0.05319500  1
  H  388  1  0.40705900  0.54467100  0.02408800  1
  H  389  1  0.42497800  0.52468100  0.03734100  1
  H  390  1  0.51572100  0.46092600  0.95634900  1
  H  397  1  0.74966300  0.49937600  0.19279100  1
  H  404  1  0.78231300  0.58115400  0.30745300  1
  H  405  1  0.78172300  0.58092000  0.34782600  1
  H  406  1  0.72609400  0.50379300  0.30935900  1
  H  407  1  0.74735200  0.58263900  0.23262400  1
  H  410  1  0.68503300  0.49826700  0.25698200  1
  H  411  1  0.72658600  0.47818800  0.26108400  1
  H  412  1  0.73443500  0.47663200  0.21757600  1
  H  413  1  0.78606000  0.48738200  0.23672000  1
  H  414  1  0.74845800  0.58422800  0.27397600  1
  H  421  1  0.74944400  0.69269400  0.50016000  1
  H  428  1  0.78210000  0.72558900  0.41837600  1
  H  429  1  0.78146500  0.76619700  0.41861000  1
  H  430  1  0.72573900  0.80483300  0.49574000  1
  H  431  1  0.74725600  0.64926100  0.41689600  1
  H  434  1  0.68472700  0.75796200  0.50126900  1
  H  435  1  0.72623700  0.78216400  0.52134500  1
  H  436  1  0.73413700  0.74021500  0.52290200  1
  H  437  1  0.78575900  0.74863500  0.51215100  1
  H  438  1  0.74830000  0.68902500  0.41530700  1
  H  445  1  0.74935600  0.80674400  0.30686500  1
  H  452  1  0.78195900  0.69207500  0.27398500  1
  H  453  1  0.78143500  0.65170200  0.23337400  1
  H  454  1  0.72588600  0.69018300  0.19471100  1
  H  455  1  0.74693400  0.76691100  0.35029300  1
  H  458  1  0.68475700  0.74257400  0.24156600  1
  H  459  1  0.72634400  0.73845900  0.21738300  1
  H  460  1  0.73414300  0.78196500  0.25933700  1
  H  461  1  0.78577600  0.76280600  0.25094000  1
  H  462  1  0.74805000  0.72555900  0.31053000  1
  H  469  1  0.24976900  0.49983500  0.80706500  1
  H  476  1  0.28234700  0.41803100  0.69238000  1
  H  477  1  0.28165200  0.41824900  0.65199800  1
  H  478  1  0.22597800  0.49538200  0.69050300  1
  H  479  1  0.24753000  0.41657400  0.76725500  1
  H  482  1  0.18503600  0.50093200  0.74293200  1
  H  483  1  0.22654700  0.52100100  0.73877700  1
  H  484  1  0.23448800  0.52257200  0.78228600  1
  H  485  1  0.28608900  0.51181000  0.76308900  1
  H  486  1  0.24857800  0.41497400  0.72589700  1
  H  493  1  0.24945800  0.30654000  0.49971500  1
  H  500  1  0.28206800  0.27363400  0.58148500  1
  H  501  1  0.28139000  0.23303000  0.58125500  1
  H  502  1  0.22569800  0.19441400  0.50415200  1
  H  503  1  0.24726100  0.34997600  0.58297900  1
  H  506  1  0.18472800  0.24130000  0.49864000  1
  H  507  1  0.22623600  0.21708100  0.47854300  1
  H  508  1  0.23416700  0.25902400  0.47697900  1
  H  509  1  0.28577400  0.25058400  0.48770700  1
  H  510  1  0.24830200  0.31021200  0.58456800  1
  H  517  1  0.24931100  0.19247400  0.69303000  1
  H  524  1  0.28203300  0.30712200  0.72586800  1
  H  525  1  0.28155800  0.34749800  0.76647800  1
  H  526  1  0.22601300  0.30905500  0.80519600  1
  H  527  1  0.24688700  0.23229900  0.64959500  1
  H  530  1  0.18481200  0.25668900  0.75838000  1
  H  531  1  0.22641400  0.26078100  0.78252700  1
  H  532  1  0.23416300  0.21726800  0.74057200  1
  H  533  1  0.28581300  0.23639600  0.74891900  1
  H  534  1  0.24807800  0.27365500  0.68935400  1
  H  538  1  0.05993300  0.81907300  0.84868070  1
  H  540  1  0.86927400  0.81356900  0.80089400  1
  H  542  1  0.62282500  0.80738000  0.78817700  1
  H  543  1  0.48704900  0.80745500  0.86141970  1
  H  569  1  0.82041000  0.47068600  0.79055700  1
  H  570  1  0.82116400  0.42661400  0.78243800  1
  H  571  1  0.67589300  0.46463500  0.77472100  1
  H  572  1  0.67624000  0.42075200  0.76717100  1
  H  573  1  0.67803300  0.37271600  0.72691200  1
  H  574  1  0.68048600  0.36518400  0.68311100  1
  H  575  1  0.82529200  0.38048800  0.69066200  1
  H  576  1  0.82311400  0.38752900  0.73424500  1
  H  577  1  0.80238800  0.34317800  0.73865400  1
  H  578  1  0.86551400  0.32821100  0.75391700  1
  H  579  1  0.84994800  0.39453300  0.83027700  1
  H  580  1  0.78702700  0.40980100  0.81483800  1
  H  581  1  0.69667300  0.41470000  0.81116800  1
  H  582  1  0.70922600  0.33958400  0.74275000  1
  H  583  1  0.64702900  0.32365900  0.75800900  1
  H  584  1  0.63449000  0.39898700  0.82619300  1
  H  610  1  0.82017300  0.65112300  0.68302470  1
  H  611  1  0.82088700  0.68707500  0.72708370  1
  H  612  1  0.67564200  0.64134900  0.68909270  1
  H  613  1  0.67594900  0.67769300  0.73296270  1
  H  614  1  0.67770800  0.68543400  0.78098870  1
  H  615  1  0.68014500  0.64916300  0.78850600  1
  H  616  1  0.82498900  0.64146300  0.77322500  1
  H  617  1  0.82280200  0.67801000  0.76619970  1
  H  618  1  0.80197400  0.72678400  0.81055370  1
  H  619  1  0.86508400  0.75702500  0.82552670  1
  H  620  1  0.84969900  0.76701800  0.75917600  1
  H  621  1  0.78679400  0.73630100  0.74390565  1
  H  622  1  0.69644700  0.72776900  0.73904370  1
  H  623  1  0.70882400  0.73441900  0.81413670  1
  H  624  1  0.64664500  0.76561100  0.83007270  1
  H  625  1  0.63428400  0.75851500  0.75476400  1
  H  651  1  0.82055100  0.36318500  0.50257400  1
  H  652  1  0.82125300  0.37128800  0.46662370  1
  H  653  1  0.67599700  0.37895700  0.51237500  1
  H  654  1  0.67629500  0.38647800  0.47602870  1
  H  655  1  0.67797300  0.42677200  0.46824770  1
  H  656  1  0.68029200  0.47055700  0.50451870  1
  H  657  1  0.82512100  0.46306100  0.51228970  1
  H  658  1  0.82306100  0.41949200  0.47574270  1
  H  659  1  0.80239000  0.41507200  0.42698170  1
  H  660  1  0.86555700  0.39983700  0.39675100  1
  H  661  1  0.85014000  0.32346000  0.38667670  1
  H  662  1  0.78717800  0.33887200  0.41738270  1
  H  663  1  0.69680300  0.34251600  0.42595770  1
  H  664  1  0.70924600  0.41094200  0.41927765  1
  H  665  1  0.64713400  0.39566600  0.38807200  1
  H  666  1  0.63469600  0.32747100  0.39519970  1
  H  692  1  0.32038600  0.18596600  0.86015900  1
  H  693  1  0.32108800  0.23002300  0.86826400  1
  H  694  1  0.17589000  0.19203400  0.87611300  1
  H  695  1  0.17618600  0.23590100  0.88364700  1
  H  696  1  0.17788100  0.28396100  0.92390600  1
  H  697  1  0.18034700  0.29146100  0.96769600  1
  H  698  1  0.32515800  0.27610400  0.96003100  1
  H  699  1  0.32296100  0.26909100  0.91646800  1
  H  700  1  0.30225400  0.31348000  0.91212100  1
  H  701  1  0.36539100  0.32845600  0.89685400  1
  H  702  1  0.34990000  0.26216200  0.82048200  1
  H  703  1  0.28696600  0.24688600  0.83592200  1
  H  704  1  0.19659600  0.24195700  0.83960300  1
  H  705  1  0.20907500  0.31706500  0.90802000  1
  H  706  1  0.14691700  0.33300500  0.89277300  1
  H  707  1  0.13444800  0.25768100  0.82458900  1
  H  733  1  0.32004000  0.00541700  0.96772300  1
  H  734  1  0.32073200  0.96949040  0.92365740  1
  H  735  1  0.17558600  0.01538200  0.96172800  1
  H  736  1  0.17584100  0.97905540  0.91784540  1
  H  737  1  0.17758700  0.97121940  0.86976540  1
  H  738  1  0.18007800  0.00749500  0.86224900  1
  H  739  1  0.32487900  0.01518900  0.87756600  1
  H  740  1  0.32265700  0.97865340  0.88459940  1
  H  741  1  0.30202000  0.92992040  0.84023640  1
  H  742  1  0.36516000  0.89968000  0.82527000  1
  H  743  1  0.34949100  0.88959100  0.89155465  1
  H  744  1  0.28655700  0.92030640  0.90682240  1
  H  745  1  0.19619800  0.92895240  0.91177940  1
  H  746  1  0.20883100  0.92221640  0.83665240  1
  H  747  1  0.14665800  0.89103900  0.82072600  1
  H  748  1  0.13403600  0.89822200  0.89606600  1
  H  774  1  0.32067900  0.29346400  0.14816900  1
  H  775  1  0.32140600  0.28534300  0.18410500  1
  H  776  1  0.17614800  0.27769000  0.13842500  1
  H  777  1  0.17646200  0.27014200  0.17476600  1
  H  778  1  0.17814600  0.22989100  0.18259500  1
  H  779  1  0.18046600  0.18609800  0.14632000  1
  H  780  1  0.32525600  0.19357900  0.13840700  1
  H  781  1  0.32320900  0.23714800  0.17495500  1
  H  782  1  0.30269100  0.24155100  0.22372500  1
  H  783  1  0.36583400  0.25679300  0.25393600  1
  H  784  1  0.35028100  0.33318100  0.26404600  1
  H  785  1  0.28734300  0.31776400  0.23336300  1
  H  786  1  0.19697700  0.31413300  0.22480700  1
  H  787  1  0.20949500  0.24574200  0.23154900  1
  H  788  1  0.14731500  0.26102300  0.26275365  1
  H  789  1  0.13481200  0.32917700  0.25556200  1
  H  796  1  0.86957200  0.35281600  0.83509700  1
  H  803  1  0.06034500  0.30506900  0.79283800  1
  H  804  1  0.12308300  0.29108200  0.80911600  1
  H  805  1  0.05751900  0.32368800  0.88349900  1
  H  806  1  0.95035800  0.34760800  0.77238200  1
  H  809  1  0.98738100  0.36438900  0.88228300  1
  H  810  1  0.97703900  0.33811100  0.88847300  1
  H  811  1  0.90676900  0.34925200  0.87051000  1
  H  812  1  0.92471900  0.31600900  0.85052200  1
  H  813  1  0.01543100  0.33324600  0.78676100  1
  H  823  1  0.12267500  0.84934000  0.86267270  1
  H  824  1  0.05723900  0.89110800  0.83004700  1
  H  825  1  0.94998500  0.75607000  0.80612470  1
  H  828  1  0.98715300  0.84918900  0.78934200  1
  H  829  1  0.97678100  0.88165800  0.81561600  1
  H  830  1  0.90650600  0.85254900  0.80446500  1
  H  831  1  0.92438800  0.86580700  0.83771000  1
  H  832  1  0.01505400  0.78481500  0.82049570  1
  H  839  1  0.86981600  0.31865900  0.34015970  1
  H  846  1  0.06053700  0.36095700  0.33469800  1
  H  847  1  0.12334500  0.34468100  0.30444900  1
  H  848  1  0.05793800  0.27028300  0.26268000  1
  H  849  1  0.95043700  0.38139700  0.39767970  1
  H  852  1  0.98772700  0.27150200  0.30458270  1
  H  853  1  0.97744800  0.26529900  0.27210765  1
  H  854  1  0.90710500  0.28325900  0.30118770  1
  H  855  1  0.92506500  0.30324300  0.28793300  1
  H  856  1  0.01556400  0.36703200  0.36894565  1
  H  863  1  0.36956500  0.30388500  0.81567900  1
  H  870  1  0.56027900  0.35159700  0.85793800  1
  H  871  1  0.62306300  0.36558100  0.84166400  1
  H  872  1  0.55762400  0.33300600  0.76728600  1
  H  873  1  0.45024000  0.30904900  0.87837500  1
  H  876  1  0.48745800  0.29231300  0.76849100  1
  H  877  1  0.47714500  0.31860300  0.76231600  1
  H  878  1  0.40683200  0.30746600  0.78027600  1
  H  879  1  0.42476500  0.34070100  0.80027300  1
  H  880  1  0.51534700  0.32341300  0.86400100  1
  H  887  1  0.36921600  0.84306300  0.84982965  1
  H  892  1  0.56004100  0.83763800  0.80215900  1
  H  893  1  0.55726700  0.76556000  0.82072870  1
  H  894  1  0.44995400  0.90060840  0.84469040  1
  H  897  1  0.47676700  0.77499100  0.83512870  1
  H  898  1  0.40645500  0.80408300  0.84625570  1
  H  899  1  0.42445700  0.79084700  0.81302270  1
  H  900  1  0.51507100  0.87187900  0.83033800  1
  H  907  1  0.36988000  0.33797600  0.31055300  1
  H  914  1  0.56059700  0.29571200  0.31605770  1
  H  915  1  0.62331800  0.31199200  0.34632970  1
  H  916  1  0.55777000  0.38637600  0.38810265  1
  H  917  1  0.45067300  0.27526600  0.25304700  1
  H  920  1  0.48769200  0.38515600  0.34617900  1
  H  921  1  0.47731200  0.39134700  0.37864500  1
  H  922  1  0.40705900  0.37338200  0.34953800  1
  H  923  1  0.42497800  0.35339200  0.36279065  1
  H  924  1  0.51572100  0.28963700  0.28179900  1
  H  931  1  0.74966300  0.32808700  0.51824100  1
  H  938  1  0.78231300  0.40986500  0.63290300  1
  H  939  1  0.78172300  0.40963100  0.67327600  1
  H  940  1  0.72609400  0.33250400  0.63480900  1
  H  941  1  0.74735200  0.41135000  0.55807400  1
  H  944  1  0.68503300  0.32697800  0.58243200  1
  H  945  1  0.72658600  0.30689900  0.58653400  1
  H  946  1  0.73443500  0.30534300  0.54302600  1
  H  947  1  0.78606000  0.31609300  0.56217000  1
  H  948  1  0.74845800  0.41293900  0.59942600  1
  H  955  1  0.74944400  0.52140500  0.82561000  1
  H  962  1  0.78210000  0.55430000  0.74382600  1
  H  963  1  0.78146500  0.59490800  0.74406000  1
  H  964  1  0.72573900  0.63354400  0.82119000  1
  H  965  1  0.74725600  0.47797200  0.74234600  1
  H  968  1  0.68472700  0.58667300  0.82671900  1
  H  969  1  0.72623700  0.61087500  0.84679500  1
  H  970  1  0.73413700  0.56892600  0.84835200  1
  H  971  1  0.78575900  0.57734600  0.83760100  1
  H  972  1  0.74830000  0.51773600  0.74075700  1
  H  979  1  0.74935600  0.63545500  0.63231500  1
  H  986  1  0.78195900  0.52078600  0.59943470  1
  H  987  1  0.78143500  0.48041300  0.55882370  1
  H  988  1  0.72588600  0.51889400  0.52016065  1
  H  989  1  0.74693400  0.59562200  0.67574270  1
  H  992  1  0.68475700  0.57128500  0.56701600  1
  H  993  1  0.72634400  0.56717000  0.54283300  1
  H  994  1  0.73414300  0.61067600  0.58478700  1
  H  995  1  0.78577600  0.59151700  0.57639000  1
  H  996  1  0.74805000  0.55427000  0.63597970  1
  H  1003  1  0.24976900  0.32854600  0.13251500  1
  H  1010  1  0.28234700  0.24674200  0.01783000  1
  H  1011  1  0.28165200  0.24696000  0.97744800  1
  H  1012  1  0.22597800  0.32409300  0.01595300  1
  H  1013  1  0.24753000  0.24528500  0.09270500  1
  H  1016  1  0.18503600  0.32964300  0.06838200  1
  H  1017  1  0.22654700  0.34971200  0.06422700  1
  H  1018  1  0.23448800  0.35128300  0.10773600  1
  H  1019  1  0.28608900  0.34052100  0.08853900  1
  H  1020  1  0.24857800  0.24368500  0.05134700  1
  H  1027  1  0.24945800  0.13525100  0.82516500  1
  H  1034  1  0.28206800  0.10234500  0.90693500  1
  H  1035  1  0.28139000  0.06174100  0.90670500  1
  H  1036  1  0.22569800  0.02312500  0.82960200  1
  H  1037  1  0.24726100  0.17868700  0.90842900  1
  H  1040  1  0.18472800  0.07001100  0.82409000  1
  H  1041  1  0.22623600  0.04579200  0.80399300  1
  H  1042  1  0.23416700  0.08773500  0.80242900  1
  H  1043  1  0.28577400  0.07929500  0.81315700  1
  H  1044  1  0.24830200  0.13892300  0.91001800  1
  H  1051  1  0.24931100  0.02118500  0.01848000  1
  H  1058  1  0.28203300  0.13583300  0.05131800  1
  H  1059  1  0.28155800  0.17620900  0.09192800  1
  H  1060  1  0.22601300  0.13776600  0.13064600  1
  H  1061  1  0.24688700  0.06101000  0.97504500  1
  H  1064  1  0.18481200  0.08540000  0.08383000  1
  H  1065  1  0.22641400  0.08949200  0.10797670  1
  H  1066  1  0.23416300  0.04597900  0.06602170  1
  H  1067  1  0.28581300  0.06510700  0.07436865  1
  H  1068  1  0.24807800  0.10236600  0.01480400  1
  C  1  1  0.93870300  0.99640500  0.48849400  1
  C  2  1  0.55893400  0.99444200  0.48163100  1
  C  3  1  0.98164100  0.98887100  0.49523800  1
  C  5  1  0.52070000  0.99229200  0.49589500  1
  C  7  1  0.90020900  0.97885500  0.47954900  1
  C  10  1  0.63372500  0.53115100  0.46790800  1
  C  11  1  0.65629000  0.51444000  0.44359800  1
  C  12  1  0.69310000  0.52392300  0.43461400  1
  C  13  1  0.70763800  0.55077400  0.44875300  1
  C  14  1  0.68594400  0.56694200  0.47368100  1
  C  15  1  0.64955800  0.55752600  0.48292300  1
  C  16  1  0.74911600  0.56049100  0.43945700  1
  C  17  1  0.78993900  0.55062100  0.44906700  1
  C  18  1  0.80352100  0.56401900  0.47610000  1
  C  19  1  0.84040500  0.55488700  0.48537300  1
  C  20  1  0.86482900  0.53150600  0.46800700  1
  C  21  1  0.84987000  0.51705700  0.44143400  1
  C  22  1  0.81260100  0.52612700  0.43241000  1
  C  23  1  0.75082900  0.55065100  0.40971500  1
  C  24  1  0.74819900  0.59037700  0.45006300  1
  C  25  1  0.78951300  0.60597900  0.45701700  1
  C  26  1  0.78936900  0.63205800  0.46162400  1
  C  27  1  0.74774000  0.64344900  0.45902200  1
  C  28  1  0.70618600  0.62855600  0.45239300  1
  C  29  1  0.70661000  0.60260600  0.44800800  1
  C  30  1  0.71002700  0.54406800  0.39375900  1
  C  31  1  0.71124000  0.53977100  0.36778600  1
  C  32  1  0.75330900  0.54272500  0.35689900  1
  C  33  1  0.79433500  0.54897000  0.37225600  1
  C  34  1  0.79293100  0.55290900  0.39802100  1
  C  51  1  0.63342500  0.93606900  0.46842900  1
  C  52  1  0.65593700  0.92845700  0.48513200  1
  C  53  1  0.69274300  0.90998800  0.47564300  1
  C  54  1  0.70731300  0.89726800  0.44878900  1
  C  55  1  0.68568300  0.90605700  0.43263800  1
  C  56  1  0.64931400  0.92472500  0.44205900  1
  C  57  1  0.74880600  0.87827000  0.43907100  1
  C  58  1  0.78963200  0.89774400  0.44893000  1
  C  59  1  0.80324800  0.91138200  0.43553300  1
  C  60  1  0.84012300  0.92979300  0.44466600  1
  C  61  1  0.86449600  0.93582200  0.46805300  1
  C  62  1  0.84948500  0.92371000  0.48251200  1
  C  63  1  0.81222200  0.90561400  0.47344100  1
  C  64  1  0.75051100  0.85837600  0.44891600  1
  C  65  1  0.74791200  0.85899900  0.40918700  1
  C  66  1  0.78923500  0.85031700  0.39357400  1
  C  67  1  0.78911700  0.82886400  0.36748500  1
  C  68  1  0.74750500  0.81485100  0.35611100  1
  C  69  1  0.70595800  0.82309200  0.37102700  1
  C  70  1  0.70634800  0.84469200  0.39695900  1
  C  71  1  0.70970300  0.84896100  0.45546800  1
  C  72  1  0.71090700  0.82726500  0.45973600  1
  C  73  1  0.75298600  0.81345100  0.45680600  1
  C  74  1  0.79401200  0.82257900  0.45056300  1
  C  75  1  0.79260500  0.84441700  0.44664600  1
  C  92  1  0.63388600  0.53159700  0.06346300  1
  C  93  1  0.65639800  0.55591300  0.07107200  1
  C  94  1  0.69316600  0.56490500  0.08954900  1
  C  95  1  0.70769800  0.55078000  0.10227900  1
  C  96  1  0.68607100  0.52584000  0.09349600  1
  C  97  1  0.64973600  0.51658200  0.07482000  1
  C  98  1  0.74915600  0.56007800  0.12128400  1
  C  99  1  0.79001800  0.55049300  0.10181800  1
  C  100  1  0.80364800  0.52345900  0.08815800  1
  C  101  1  0.84055800  0.51420200  0.06975600  1
  C  102  1  0.86495700  0.53157900  0.06375100  1
  C  103  1  0.84993800  0.55815000  0.07588500  1
  C  104  1  0.81264200  0.56715600  0.09397700  1
  C  105  1  0.75078700  0.58981700  0.14118500  1
  C  106  1  0.74826700  0.54945200  0.14054600  1
  C  107  1  0.78959600  0.54253600  0.14921700  1
  C  108  1  0.78947700  0.53786600  0.17064900  1
  C  109  1  0.74786700  0.54051100  0.18468300  1
  C  110  1  0.70630200  0.54715000  0.17644100  1
  C  111  1  0.70669800  0.55150500  0.15485600  1
  C  112  1  0.70994100  0.60575300  0.15059800  1
  C  113  1  0.71107400  0.63172800  0.17227500  1
  C  114  1  0.75311200  0.64263900  0.18610700  1
  C  115  1  0.79417200  0.62729100  0.17700300  1
  C  116  1  0.79283500  0.60153200  0.15516600  1
  C  133  1  0.13365200  0.46809700  0.53197500  1
  C  134  1  0.15618200  0.48480000  0.55628100  1
  C  135  1  0.19297700  0.47530900  0.56525700  1
  C  136  1  0.20752100  0.44845100  0.55111900  1
  C  137  1  0.18586000  0.43229400  0.52619300  1
  C  138  1  0.14949500  0.44171800  0.51695600  1
  C  139  1  0.24900800  0.43874700  0.56040600  1
  C  140  1  0.28984100  0.44862700  0.55080200  1
  C  141  1  0.30342400  0.43525300  0.52376000  1
  C  142  1  0.34033100  0.44438100  0.51448800  1
  C  143  1  0.36474100  0.46775300  0.53185500  1
  C  144  1  0.34974300  0.48219800  0.55843100  1
  C  145  1  0.31247600  0.47312000  0.56745700  1
  C  146  1  0.25067000  0.44858800  0.59014700  1
  C  147  1  0.24812000  0.40885900  0.54978000  1
  C  148  1  0.28943900  0.39325000  0.54282000  1
  C  149  1  0.28933400  0.36717000  0.53821000  1
  C  150  1  0.24772900  0.35578500  0.54085000  1
  C  151  1  0.20616500  0.37068200  0.54750800  1
  C  152  1  0.20655700  0.39662000  0.55185700  1
  C  153  1  0.20987500  0.45515900  0.60612700  1
  C  154  1  0.21108100  0.45936800  0.63206800  1
  C  155  1  0.25316100  0.45643800  0.64294100  1
  C  156  1  0.29418000  0.45018800  0.62755500  1
  C  157  1  0.29276500  0.44627500  0.60180200  1
  C  174  1  0.13331300  0.06320300  0.53148300  1
  C  175  1  0.15589600  0.07078900  0.51477200  1
  C  176  1  0.19269400  0.08925100  0.52425500  1
  C  177  1  0.20719900  0.10198000  0.55111300  1
  C  178  1  0.18549000  0.09322500  0.56727900  1
  C  179  1  0.14911400  0.07457200  0.55786400  1
  C  180  1  0.24869300  0.12096600  0.56080700  1
  C  181  1  0.28951600  0.10147600  0.55092400  1
  C  182  1  0.30304300  0.08780100  0.56429400  1
  C  183  1  0.33993300  0.06938800  0.55516200  1
  C  184  1  0.36441600  0.06340100  0.53180300  1
  C  185  1  0.34947000  0.07553700  0.51736100  1
  C  186  1  0.31220700  0.09364300  0.52643500  1
  C  187  1  0.25037700  0.14085600  0.55095400  1
  C  188  1  0.24776400  0.14025000  0.59069100  1
  C  189  1  0.28908600  0.14885200  0.60628400  1
  C  190  1  0.28898200  0.17029500  0.63237900  1
  C  191  1  0.24740400  0.18436200  0.64378800  1
  C  192  1  0.20586100  0.17616200  0.62888400  1
  C  193  1  0.20620700  0.15456000  0.60295200  1
  C  194  1  0.20959200  0.15026400  0.54439000  1
  C  195  1  0.21080800  0.17198900  0.54017100  1
  C  196  1  0.25289600  0.18578500  0.54307100  1
  C  197  1  0.29389700  0.17665700  0.54932700  1
  C  198  1  0.29247200  0.15482400  0.55325400  1
  C  215  1  0.13403900  0.46765100  0.93643400  1
  C  216  1  0.15661200  0.44335300  0.92885700  1
  C  217  1  0.19339600  0.43435100  0.91037000  1
  C  218  1  0.20793000  0.44847000  0.89763100  1
  C  219  1  0.18625900  0.47339900  0.90638600  1
  C  220  1  0.14988300  0.48265400  0.92505700  1
  C  221  1  0.24936700  0.43914500  0.87858500  1
  C  222  1  0.29024300  0.44871800  0.89802100  1
  C  223  1  0.30381900  0.47575500  0.91168600  1
  C  224  1  0.34071500  0.48501500  0.93007600  1
  C  225  1  0.36515300  0.46763700  0.93605900  1
  C  226  1  0.35018300  0.44106300  0.92392000  1
  C  227  1  0.31291300  0.43204800  0.90583200  1
  C  228  1  0.25095300  0.40939900  0.85869800  1
  C  229  1  0.24842100  0.44974200  0.85929800  1
  C  230  1  0.28974000  0.45672900  0.85066700  1
  C  231  1  0.28961000  0.46136100  0.82920900  1
  C  232  1  0.24800100  0.45870700  0.81518700  1
  C  233  1  0.20644500  0.45206600  0.82344700  1
  C  234  1  0.20684000  0.44771300  0.84503200  1
  C  235  1  0.21011700  0.39347000  0.84934000  1
  C  236  1  0.21124500  0.36749400  0.82766100  1
  C  237  1  0.25326600  0.35658000  0.81377400  1
  C  238  1  0.29432000  0.37192700  0.82283200  1
  C  239  1  0.29299600  0.39768800  0.84467100  1
  C  256  1  0.90355600  0.52265300  0.47682600  1
  C  257  1  0.94642400  0.51650200  0.46304200  1
  C  258  1  0.98491400  0.50776100  0.47153300  1
  C  259  1  0.98198200  0.50433300  0.49388100  1
  C  260  1  0.93901900  0.51106800  0.50815200  1
  C  261  1  0.90052200  0.52000700  0.49954300  1
  C  263  1  0.02100300  0.49557100  0.50321200  1
  C  264  1  0.05922300  0.48129100  0.48679600  1
  C  265  1  0.09617900  0.47248000  0.49626200  1
  C  266  1  0.09659100  0.47756300  0.52258600  1
  C  267  1  0.05844400  0.49154600  0.53905500  1
  C  268  1  0.02069900  0.50013800  0.52959000  1
  C  273  1  0.98073000  0.51443200  0.54741200  1
  C  274  1  0.93427200  0.50782700  0.53177300  1
  C  280  1  0.90322200  0.95349400  0.47690600  1
  C  281  1  0.94606600  0.94586300  0.48306600  1
  C  282  1  0.98455300  0.96309500  0.49181100  1
  C  283  1  0.02065700  0.00696900  0.50400900  1
  C  284  1  0.05884300  0.00483700  0.51829500  1
  C  285  1  0.09579500  0.02311400  0.52711100  1
  C  286  1  0.09624500  0.04435100  0.52202200  1
  C  287  1  0.05813700  0.04683400  0.50803100  1
  C  288  1  0.02039200  0.02877800  0.49943900  1
  C  292  1  0.98046200  0.03230300  0.48513500  1
  C  293  1  0.93397800  0.02326600  0.49173200  1
  C  299  1  0.90371300  0.52277800  0.04608500  1
  C  300  1  0.94654800  0.53657500  0.05372400  1
  C  301  1  0.98507100  0.52809400  0.03649700  1
  C  302  1  0.98220500  0.50574300  0.01072100  1
  C  303  1  0.93927300  0.49146300  0.00317800  1
  C  304  1  0.90074300  0.50006000  0.02071900  1
  C  306  1  0.02126500  0.49641700  0.99264000  1
  C  307  1  0.05946500  0.51283500  0.99477800  1
  C  308  1  0.09645900  0.50337100  0.97651100  1
  C  309  1  0.09694100  0.47704300  0.95527900  1
  C  310  1  0.05881500  0.46057000  0.95279000  1
  C  311  1  0.02103100  0.47003400  0.97083600  1
  C  316  1  0.98108600  0.45220500  0.96730000  1
  C  317  1  0.93459700  0.46783700  0.97631700  1
  C  323  1  0.40349200  0.47660400  0.52303900  1
  C  324  1  0.44633800  0.48274200  0.53681900  1
  C  325  1  0.48484800  0.49148400  0.52833300  1
  C  326  1  0.48195900  0.49492600  0.50599300  1
  C  327  1  0.43901900  0.48820300  0.49172500  1
  C  328  1  0.40050100  0.47926300  0.50033000  1
  C  330  1  0.52100000  0.50369000  0.49666700  1
  C  331  1  0.55919600  0.51796000  0.51308300  1
  C  332  1  0.59617600  0.52676900  0.50361900  1
  C  333  1  0.59664000  0.52169000  0.47729700  1
  C  334  1  0.55851400  0.50772000  0.46082900  1
  C  335  1  0.52074500  0.49913200  0.47029300  1
  C  340  1  0.48080200  0.48485000  0.45247100  1
  C  341  1  0.43431600  0.49145900  0.46811300  1
  C  347  1  0.40317100  0.04573700  0.52296100  1
  C  348  1  0.44604100  0.05338700  0.51683400  1
  C  349  1  0.48455500  0.03616300  0.50809800  1
  C  350  1  0.48165100  0.01038000  0.50465300  1
  C  351  1  0.43869000  0.00282900  0.51136700  1
  C  352  1  0.40016600  0.02036800  0.52029800  1
  C  354  1  0.59591000  0.97617200  0.47282300  1
  C  355  1  0.59634300  0.95492400  0.47789500  1
  C  356  1  0.55818300  0.95242000  0.49185800  1
  C  357  1  0.52041300  0.97047200  0.50044600  1
  C  361  1  0.48043200  0.96692600  0.51472100  1
  C  362  1  0.43397400  0.97595700  0.50810600  1
  C  367  1  0.40386900  0.47644900  0.95373200  1
  C  368  1  0.44673300  0.46266300  0.94610500  1
  C  369  1  0.48520400  0.47114800  0.96334000  1
  C  370  1  0.48226600  0.49349300  0.98911900  1
  C  371  1  0.43930900  0.50776700  0.99665300  1
  C  372  1  0.40083000  0.49916100  0.97909900  1
  C  374  1  0.52126900  0.50282500  0.00721700  1
  C  375  1  0.55947900  0.48641100  0.00508800  1
  C  376  1  0.59641700  0.49587700  0.02336700  1
  C  377  1  0.59683300  0.52220100  0.04460600  1
  C  378  1  0.55870000  0.53866700  0.04708800  1
  C  379  1  0.52096900  0.52920100  0.02902800  1
  C  384  1  0.48101500  0.54702500  0.03255400  1
  C  385  1  0.43455400  0.53138500  0.02351500  1
  C  391  1  0.74913200  0.54079900  0.20902200  1
  C  392  1  0.74867200  0.56522200  0.23285800  1
  C  393  1  0.75008500  0.56606100  0.25729500  1
  C  394  1  0.75189900  0.54256100  0.25877100  1
  C  395  1  0.75041900  0.51788000  0.23463800  1
  C  396  1  0.75001800  0.51718400  0.21005100  1
  C  398  1  0.75244400  0.54288400  0.28360600  1
  C  399  1  0.76920300  0.56479600  0.30726600  1
  C  400  1  0.76981900  0.56451300  0.33115800  1
  C  401  1  0.75351100  0.54232700  0.33236500  1
  C  402  1  0.73739800  0.52018000  0.30886000  1
  C  403  1  0.73784800  0.52002000  0.28453400  1
  C  408  1  0.72219600  0.49611500  0.25979200  1
  C  409  1  0.74997300  0.49280300  0.23548700  1
  C  415  1  0.74898400  0.66750200  0.45873700  1
  C  416  1  0.74854100  0.66691300  0.43431300  1
  C  417  1  0.74991500  0.69051200  0.43347300  1
  C  418  1  0.75167700  0.71548800  0.45697100  1
  C  419  1  0.75018100  0.71603600  0.48165400  1
  C  420  1  0.74981400  0.69214700  0.48235200  1
  C  422  1  0.75218800  0.74000200  0.45664900  1
  C  423  1  0.76895800  0.74175500  0.43473400  1
  C  424  1  0.76954700  0.76593100  0.43501700  1
  C  425  1  0.75320100  0.78931600  0.45720400  1
  C  426  1  0.73707100  0.78795100  0.47935300  1
  C  427  1  0.73754800  0.76378700  0.47951300  1
  C  432  1  0.72188300  0.76294300  0.50341800  1
  C  433  1  0.74968400  0.74196400  0.50673100  1
  C  439  1  0.74877000  0.79051400  0.33205600  1
  C  440  1  0.74827600  0.76667700  0.33264400  1
  C  441  1  0.74969700  0.74223900  0.30904500  1
  C  442  1  0.75154900  0.74076400  0.28407000  1
  C  443  1  0.75009400  0.76489800  0.28352200  1
  C  444  1  0.74969000  0.78948400  0.30741200  1
  C  446  1  0.75212200  0.71592900  0.25955700  1
  C  447  1  0.76887700  0.69226500  0.25781200  1
  C  448  1  0.76953300  0.66837400  0.23363600  1
  C  449  1  0.75327400  0.66717200  0.21024000  1
  C  450  1  0.73715900  0.69068100  0.21159800  1
  C  451  1  0.73757000  0.71500500  0.23576300  1
  C  456  1  0.72192700  0.73975100  0.23660100  1
  C  457  1  0.74968100  0.76404800  0.25759500  1
  C  463  1  0.24929400  0.45841600  0.79084700  1
  C  464  1  0.24883300  0.43398800  0.76701600  1
  C  465  1  0.25020900  0.43314200  0.74257200  1
  C  466  1  0.25198100  0.45663700  0.74108800  1
  C  467  1  0.25050600  0.48132200  0.76521900  1
  C  468  1  0.25013900  0.48202500  0.78980900  1
  C  470  1  0.25246600  0.45630700  0.71624800  1
  C  471  1  0.26920800  0.43438900  0.69257500  1
  C  472  1  0.26976000  0.43466200  0.66867600  1
  C  473  1  0.25340900  0.45684400  0.66747800  1
  C  474  1  0.23731400  0.47899800  0.69099700  1
  C  475  1  0.23782400  0.47916700  0.71532600  1
  C  480  1  0.22218700  0.50307900  0.74008100  1
  C  481  1  0.25001400  0.50639500  0.76436000  1
  C  487  1  0.24899700  0.33173300  0.54113600  1
  C  488  1  0.24855000  0.33232300  0.56556100  1
  C  489  1  0.24992300  0.30872500  0.56640200  1
  C  490  1  0.25168400  0.28374700  0.54290100  1
  C  491  1  0.25019900  0.28319800  0.51822000  1
  C  492  1  0.24983200  0.30708700  0.51752200  1
  C  494  1  0.25217600  0.25923400  0.54322400  1
  C  495  1  0.26892800  0.25747500  0.56513400  1
  C  496  1  0.26949100  0.23329900  0.56485200  1
  C  497  1  0.25314400  0.20992200  0.54267400  1
  C  498  1  0.23703500  0.21129000  0.52053200  1
  C  499  1  0.23753400  0.23545500  0.52037100  1
  C  504  1  0.22188300  0.23630400  0.49647100  1
  C  505  1  0.24969900  0.25727000  0.49314500  1
  C  511  1  0.24871400  0.20870000  0.66783500  1
  C  512  1  0.24824600  0.23253500  0.66724400  1
  C  513  1  0.24971000  0.25697300  0.69083900  1
  C  514  1  0.25158200  0.25845300  0.71581600  1
  C  515  1  0.25010800  0.23432100  0.71636800  1
  C  516  1  0.24966100  0.20973200  0.69247900  1
  C  518  1  0.25219000  0.28328800  0.74032400  1
  C  519  1  0.26896000  0.30694200  0.74205500  1
  C  520  1  0.26964800  0.33083500  0.76622900  1
  C  521  1  0.25340200  0.33204900  0.78963900  1
  C  522  1  0.23727200  0.30855000  0.78829800  1
  C  523  1  0.23765300  0.28422400  0.76413300  1
  C  528  1  0.22198800  0.25948900  0.76331200  1
  C  529  1  0.24971300  0.23517500  0.74229700  1
  C  535  1  0.93870300  0.82511600  0.81394400  1
  C  536  1  0.55893400  0.82315300  0.80708100  1
  C  537  1  0.98164100  0.81758200  0.82068765  1
  C  539  1  0.52070000  0.82100300  0.82134465  1
  C  541  1  0.90020900  0.80756600  0.80499900  1
  C  544  1  0.63372500  0.35986200  0.79335800  1
  C  545  1  0.65629000  0.34315100  0.76904800  1
  C  546  1  0.69310000  0.35263400  0.76006400  1
  C  547  1  0.70763800  0.37948500  0.77420300  1
  C  548  1  0.68594400  0.39565300  0.79913100  1
  C  549  1  0.64955800  0.38623700  0.80837300  1
  C  550  1  0.74911600  0.38920200  0.76490700  1
  C  551  1  0.78993900  0.37933200  0.77451700  1
  C  552  1  0.80352100  0.39273000  0.80155000  1
  C  553  1  0.84040500  0.38359800  0.81082300  1
  C  554  1  0.86482900  0.36021700  0.79345700  1
  C  555  1  0.84987000  0.34576800  0.76688400  1
  C  556  1  0.81260100  0.35483800  0.75786000  1
  C  557  1  0.75082900  0.37936200  0.73516500  1
  C  558  1  0.74819900  0.41908800  0.77551300  1
  C  559  1  0.78951300  0.43469000  0.78246700  1
  C  560  1  0.78936900  0.46076900  0.78707400  1
  C  561  1  0.74774000  0.47216000  0.78447200  1
  C  562  1  0.70618600  0.45726700  0.77784300  1
  C  563  1  0.70661000  0.43131700  0.77345800  1
  C  564  1  0.71002700  0.37277900  0.71920900  1
  C  565  1  0.71124000  0.36848200  0.69323600  1
  C  566  1  0.75330900  0.37143600  0.68234900  1
  C  567  1  0.79433500  0.37768100  0.69770600  1
  C  568  1  0.79293100  0.38162000  0.72347100  1
  C  585  1  0.63342500  0.76478000  0.79387870  1
  C  586  1  0.65593700  0.75716800  0.81058170  1
  C  587  1  0.69274300  0.73869900  0.80109270  1
  C  588  1  0.70731300  0.72597900  0.77423870  1
  C  589  1  0.68568300  0.73476800  0.75808770  1
  C  590  1  0.64931400  0.75343600  0.76750870  1
  C  591  1  0.74880600  0.70698100  0.76452070  1
  C  592  1  0.78963200  0.72645500  0.77437970  1
  C  593  1  0.80324800  0.74009300  0.76098270  1
  C  594  1  0.84012300  0.75850400  0.77011570  1
  C  595  1  0.86449600  0.76453300  0.79350270  1
  C  596  1  0.84948500  0.75242100  0.80796170  1
  C  597  1  0.81222200  0.73432500  0.79889070  1
  C  598  1  0.75051100  0.68708700  0.77436570  1
  C  599  1  0.74791200  0.68771000  0.73463670  1
  C  600  1  0.78923500  0.67902800  0.71902370  1
  C  601  1  0.78911700  0.65757500  0.69293470  1
  C  602  1  0.74750500  0.64356200  0.68156070  1
  C  603  1  0.70595800  0.65180300  0.69647670  1
  C  604  1  0.70634800  0.67340300  0.72240870  1
  C  605  1  0.70970300  0.67767200  0.78091800  1
  C  606  1  0.71090700  0.65597600  0.78518600  1
  C  607  1  0.75298600  0.64216200  0.78225600  1
  C  608  1  0.79401200  0.65129000  0.77601300  1
  C  609  1  0.79260500  0.67312800  0.77209570  1
  C  626  1  0.63388600  0.36030800  0.38891270  1
  C  627  1  0.65639800  0.38462400  0.39652170  1
  C  628  1  0.69316600  0.39361600  0.41499870  1
  C  629  1  0.70769800  0.37949100  0.42772870  1
  C  630  1  0.68607100  0.35455100  0.41894570  1
  C  631  1  0.64973600  0.34529300  0.40026970  1
  C  632  1  0.74915600  0.38878900  0.44673370  1
  C  633  1  0.79001800  0.37920400  0.42726770  1
  C  634  1  0.80364800  0.35217000  0.41360770  1
  C  635  1  0.84055800  0.34291300  0.39520570  1
  C  636  1  0.86495700  0.36029000  0.38920070  1
  C  637  1  0.84993800  0.38686100  0.40133470  1
  C  638  1  0.81264200  0.39586700  0.41942670  1
  C  639  1  0.75078700  0.41852800  0.46663470  1
  C  640  1  0.74826700  0.37816300  0.46599570  1
  C  641  1  0.78959600  0.37124700  0.47466700  1
  C  642  1  0.78947700  0.36657700  0.49609900  1
  C  643  1  0.74786700  0.36922200  0.51013300  1
  C  644  1  0.70630200  0.37586100  0.50189100  1
  C  645  1  0.70669800  0.38021600  0.48030600  1
  C  646  1  0.70994100  0.43446400  0.47604770  1
  C  647  1  0.71107400  0.46043900  0.49772470  1
  C  648  1  0.75311200  0.47135000  0.51155670  1
  C  649  1  0.79417200  0.45600200  0.50245270  1
  C  650  1  0.79283500  0.43024300  0.48061570  1
  C  667  1  0.13365200  0.29680800  0.85742500  1
  C  668  1  0.15618200  0.31351100  0.88173100  1
  C  669  1  0.19297700  0.30402000  0.89070700  1
  C  670  1  0.20752100  0.27716200  0.87656900  1
  C  671  1  0.18586000  0.26100500  0.85164300  1
  C  672  1  0.14949500  0.27042900  0.84240600  1
  C  673  1  0.24900800  0.26745800  0.88585600  1
  C  674  1  0.28984100  0.27733800  0.87625200  1
  C  675  1  0.30342400  0.26396400  0.84921000  1
  C  676  1  0.34033100  0.27309200  0.83993800  1
  C  677  1  0.36474100  0.29646400  0.85730500  1
  C  678  1  0.34974300  0.31090900  0.88388100  1
  C  679  1  0.31247600  0.30183100  0.89290700  1
  C  680  1  0.25067000  0.27729900  0.91559700  1
  C  681  1  0.24812000  0.23757000  0.87523000  1
  C  682  1  0.28943900  0.22196100  0.86827000  1
  C  683  1  0.28933400  0.19588100  0.86366000  1
  C  684  1  0.24772900  0.18449600  0.86630000  1
  C  685  1  0.20616500  0.19939300  0.87295800  1
  C  686  1  0.20655700  0.22533100  0.87730700  1
  C  687  1  0.20987500  0.28387000  0.93157700  1
  C  688  1  0.21108100  0.28807900  0.95751800  1
  C  689  1  0.25316100  0.28514900  0.96839100  1
  C  690  1  0.29418000  0.27889900  0.95300500  1
  C  691  1  0.29276500  0.27498600  0.92725200  1
  C  708  1  0.13331300  0.89191400  0.85693300  1
  C  709  1  0.15589600  0.89950000  0.84022200  1
  C  710  1  0.19269400  0.91796240  0.84970540  1
  C  711  1  0.20719900  0.93069140  0.87656340  1
  C  712  1  0.18549000  0.92193640  0.89272940  1
  C  713  1  0.14911400  0.90328340  0.88331440  1
  C  714  1  0.24869300  0.94967740  0.88625740  1
  C  715  1  0.28951600  0.93018740  0.87637440  1
  C  716  1  0.30304300  0.91651240  0.88974440  1
  C  717  1  0.33993300  0.89809900  0.88061200  1
  C  718  1  0.36441600  0.89211200  0.85725300  1
  C  719  1  0.34947000  0.90424840  0.84281140  1
  C  720  1  0.31220700  0.92235440  0.85188540  1
  C  721  1  0.25037700  0.96956740  0.87640440  1
  C  722  1  0.24776400  0.96896140  0.91614140  1
  C  723  1  0.28908600  0.97756340  0.93173440  1
  C  724  1  0.28898200  0.99900640  0.95782940  1
  C  725  1  0.24740400  0.01307300  0.96923800  1
  C  726  1  0.20586100  0.00487300  0.95433400  1
  C  727  1  0.20620700  0.98327140  0.92840240  1
  C  728  1  0.20959200  0.97897540  0.86984040  1
  C  729  1  0.21080800  0.00070000  0.86562100  1
  C  730  1  0.25289600  0.01449600  0.86852100  1
  C  731  1  0.29389700  0.00536800  0.87477700  1
  C  732  1  0.29247200  0.98353540  0.87870440  1
  C  749  1  0.13403900  0.29636200  0.26188400  1
  C  750  1  0.15661200  0.27206400  0.25430700  1
  C  751  1  0.19339600  0.26306200  0.23582000  1
  C  752  1  0.20793000  0.27718100  0.22308100  1
  C  753  1  0.18625900  0.30211000  0.23183600  1
  C  754  1  0.14988300  0.31136500  0.25050700  1
  C  755  1  0.24936700  0.26785600  0.20403500  1
  C  756  1  0.29024300  0.27742900  0.22347100  1
  C  757  1  0.30381900  0.30446600  0.23713600  1
  C  758  1  0.34071500  0.31372600  0.25552600  1
  C  759  1  0.36515300  0.29634800  0.26150900  1
  C  760  1  0.35018300  0.26977400  0.24937000  1
  C  761  1  0.31291300  0.26075900  0.23128200  1
  C  762  1  0.25095300  0.23811000  0.18414800  1
  C  763  1  0.24842100  0.27845300  0.18474800  1
  C  764  1  0.28974000  0.28544000  0.17611700  1
  C  765  1  0.28961000  0.29007200  0.15465900  1
  C  766  1  0.24800100  0.28741800  0.14063700  1
  C  767  1  0.20644500  0.28077700  0.14889700  1
  C  768  1  0.20684000  0.27642400  0.17048200  1
  C  769  1  0.21011700  0.22218100  0.17479000  1
  C  770  1  0.21124500  0.19620500  0.15311100  1
  C  771  1  0.25326600  0.18529100  0.13922400  1
  C  772  1  0.29432000  0.20063800  0.14828200  1
  C  773  1  0.29299600  0.22639900  0.17012100  1
  C  790  1  0.90355600  0.35136400  0.80227600  1
  C  791  1  0.94642400  0.34521300  0.78849200  1
  C  792  1  0.98491400  0.33647200  0.79698300  1
  C  793  1  0.98198200  0.33304400  0.81933100  1
  C  794  1  0.93901900  0.33977900  0.83360200  1
  C  795  1  0.90052200  0.34871800  0.82499300  1
  C  797  1  0.02100300  0.32428200  0.82866200  1
  C  798  1  0.05922300  0.31000200  0.81224600  1
  C  799  1  0.09617900  0.30119100  0.82171200  1
  C  800  1  0.09659100  0.30627400  0.84803600  1
  C  801  1  0.05844400  0.32025700  0.86450500  1
  C  802  1  0.02069900  0.32884900  0.85504000  1
  C  807  1  0.98073000  0.34314300  0.87286200  1
  C  808  1  0.93427200  0.33653800  0.85722300  1
  C  814  1  0.90322200  0.78220500  0.80235570  1
  C  815  1  0.94606600  0.77457400  0.80851570  1
  C  816  1  0.98455300  0.79180600  0.81726070  1
  C  817  1  0.02065700  0.83568000  0.82945900  1
  C  818  1  0.05884300  0.83354800  0.84374470  1
  C  819  1  0.09579500  0.85182500  0.85256065  1
  C  820  1  0.09624500  0.87306200  0.84747200  1
  C  821  1  0.05813700  0.87554500  0.83348100  1
  C  822  1  0.02039200  0.85748900  0.82488900  1
  C  826  1  0.98046200  0.86101400  0.81058500  1
  C  827  1  0.93397800  0.85197700  0.81718200  1
  C  833  1  0.90371300  0.35148900  0.37153470  1
  C  834  1  0.94654800  0.36528600  0.37917370  1
  C  835  1  0.98507100  0.35680500  0.36194665  1
  C  836  1  0.98220500  0.33445400  0.33617065  1
  C  837  1  0.93927300  0.32017400  0.32862765  1
  C  838  1  0.90074300  0.32877100  0.34616870  1
  C  840  1  0.02126500  0.32512800  0.31809000  1
  C  841  1  0.05946500  0.34154600  0.32022800  1
  C  842  1  0.09645900  0.33208200  0.30196100  1
  C  843  1  0.09694100  0.30575400  0.28072900  1
  C  844  1  0.05881500  0.28928100  0.27824000  1
  C  845  1  0.02103100  0.29874500  0.29628600  1
  C  850  1  0.98108600  0.28091600  0.29274970  1
  C  851  1  0.93459700  0.29654800  0.30176665  1
  C  857  1  0.40349200  0.30531500  0.84848900  1
  C  858  1  0.44633800  0.31145300  0.86226900  1
  C  859  1  0.48484800  0.32019500  0.85378300  1
  C  860  1  0.48195900  0.32363700  0.83144300  1
  C  861  1  0.43901900  0.31691400  0.81717500  1
  C  862  1  0.40050100  0.30797400  0.82578000  1
  C  864  1  0.52100000  0.33240100  0.82211700  1
  C  865  1  0.55919600  0.34667100  0.83853300  1
  C  866  1  0.59617600  0.35548000  0.82906900  1
  C  867  1  0.59664000  0.35040100  0.80274700  1
  C  868  1  0.55851400  0.33643100  0.78627900  1
  C  869  1  0.52074500  0.32784300  0.79574300  1
  C  874  1  0.48080200  0.31356100  0.77792100  1
  C  875  1  0.43431600  0.32017000  0.79356300  1
  C  881  1  0.40317100  0.87444800  0.84841100  1
  C  882  1  0.44604100  0.88209800  0.84228400  1
  C  883  1  0.48455500  0.86487400  0.83354800  1
  C  884  1  0.48165100  0.83909100  0.83010300  1
  C  885  1  0.43869000  0.83154000  0.83681665  1
  C  886  1  0.40016600  0.84907900  0.84574800  1
  C  888  1  0.59591000  0.80488300  0.79827300  1
  C  889  1  0.59634300  0.78363500  0.80334470  1
  C  890  1  0.55818300  0.78113100  0.81730770  1
  C  891  1  0.52041300  0.79918300  0.82589570  1
  C  895  1  0.48043200  0.79563700  0.84017070  1
  C  896  1  0.43397400  0.80466800  0.83355570  1
  C  901  1  0.40386900  0.30516000  0.27918200  1
  C  902  1  0.44673300  0.29137400  0.27155500  1
  C  903  1  0.48520400  0.29985900  0.28879000  1
  C  904  1  0.48226600  0.32220400  0.31456900  1
  C  905  1  0.43930900  0.33647800  0.32210300  1
  C  906  1  0.40083000  0.32787200  0.30454900  1
  C  908  1  0.52126900  0.33153600  0.33266665  1
  C  909  1  0.55947900  0.31512200  0.33053770  1
  C  910  1  0.59641700  0.32458800  0.34881670  1
  C  911  1  0.59683300  0.35091200  0.37005570  1
  C  912  1  0.55870000  0.36737800  0.37253765  1
  C  913  1  0.52096900  0.35791200  0.35447800  1
  C  918  1  0.48101500  0.37573600  0.35800400  1
  C  919  1  0.43455400  0.36009600  0.34896500  1
  C  925  1  0.74913200  0.36951000  0.53447200  1
  C  926  1  0.74867200  0.39393300  0.55830800  1
  C  927  1  0.75008500  0.39477200  0.58274500  1
  C  928  1  0.75189900  0.37127200  0.58422100  1
  C  929  1  0.75041900  0.34659100  0.56008800  1
  C  930  1  0.75001800  0.34589500  0.53550100  1
  C  932  1  0.75244400  0.37159500  0.60905600  1
  C  933  1  0.76920300  0.39350700  0.63271600  1
  C  934  1  0.76981900  0.39322400  0.65660800  1
  C  935  1  0.75351100  0.37103800  0.65781500  1
  C  936  1  0.73739800  0.34889100  0.63431000  1
  C  937  1  0.73784800  0.34873100  0.60998400  1
  C  942  1  0.72219600  0.32482600  0.58524200  1
  C  943  1  0.74997300  0.32151400  0.56093700  1
  C  949  1  0.74898400  0.49621300  0.78418700  1
  C  950  1  0.74854100  0.49562400  0.75976300  1
  C  951  1  0.74991500  0.51922300  0.75892300  1
  C  952  1  0.75167700  0.54419900  0.78242100  1
  C  953  1  0.75018100  0.54474700  0.80710400  1
  C  954  1  0.74981400  0.52085800  0.80780200  1
  C  956  1  0.75218800  0.56871300  0.78209900  1
  C  957  1  0.76895800  0.57046600  0.76018400  1
  C  958  1  0.76954700  0.59464200  0.76046700  1
  C  959  1  0.75320100  0.61802700  0.78265400  1
  C  960  1  0.73707100  0.61666200  0.80480300  1
  C  961  1  0.73754800  0.59249800  0.80496300  1
  C  966  1  0.72188300  0.59165400  0.82886800  1
  C  967  1  0.74968400  0.57067500  0.83218100  1
  C  973  1  0.74877000  0.61922500  0.65750570  1
  C  974  1  0.74827600  0.59538800  0.65809370  1
  C  975  1  0.74969700  0.57095000  0.63449470  1
  C  976  1  0.75154900  0.56947500  0.60951970  1
  C  977  1  0.75009400  0.59360900  0.60897170  1
  C  978  1  0.74969000  0.61819500  0.63286170  1
  C  980  1  0.75212200  0.54464000  0.58500670  1
  C  981  1  0.76887700  0.52097600  0.58326170  1
  C  982  1  0.76953300  0.49708500  0.55908570  1
  C  983  1  0.75327400  0.49588300  0.53568970  1
  C  984  1  0.73715900  0.51939200  0.53704770  1
  C  985  1  0.73757000  0.54371600  0.56121270  1
  C  990  1  0.72192700  0.56846200  0.56205100  1
  C  991  1  0.74968100  0.59275900  0.58304500  1
  C  997  1  0.24929400  0.28712700  0.11629700  1
  C  998  1  0.24883300  0.26269900  0.09246600  1
  C  999  1  0.25020900  0.26185300  0.06802200  1
  C  1000  1  0.25198100  0.28534800  0.06653800  1
  C  1001  1  0.25050600  0.31003300  0.09066900  1
  C  1002  1  0.25013900  0.31073600  0.11525900  1
  C  1004  1  0.25246600  0.28501800  0.04169800  1
  C  1005  1  0.26920800  0.26310000  0.01802500  1
  C  1006  1  0.26976000  0.26337300  0.99412600  1
  C  1007  1  0.25340900  0.28555500  0.99292800  1
  C  1008  1  0.23731400  0.30770900  0.01644700  1
  C  1009  1  0.23782400  0.30787800  0.04077600  1
  C  1014  1  0.22218700  0.33179000  0.06553100  1
  C  1015  1  0.25001400  0.33510600  0.08981000  1
  C  1021  1  0.24899700  0.16044400  0.86658600  1
  C  1022  1  0.24855000  0.16103400  0.89101100  1
  C  1023  1  0.24992300  0.13743600  0.89185200  1
  C  1024  1  0.25168400  0.11245800  0.86835100  1
  C  1025  1  0.25019900  0.11190900  0.84367000  1
  C  1026  1  0.24983200  0.13579800  0.84297200  1
  C  1028  1  0.25217600  0.08794500  0.86867400  1
  C  1029  1  0.26892800  0.08618600  0.89058400  1
  C  1030  1  0.26949100  0.06201000  0.89030200  1
  C  1031  1  0.25314400  0.03863300  0.86812400  1
  C  1032  1  0.23703500  0.04000100  0.84598200  1
  C  1033  1  0.23753400  0.06416600  0.84582100  1
  C  1038  1  0.22188300  0.06501500  0.82192100  1
  C  1039  1  0.24969900  0.08598100  0.81859500  1
  C  1045  1  0.24871400  0.03741100  0.99328500  1
  C  1046  1  0.24824600  0.06124600  0.99269400  1
  C  1047  1  0.24971000  0.08568400  0.01628900  1
  C  1048  1  0.25158200  0.08716400  0.04126600  1
  C  1049  1  0.25010800  0.06303200  0.04181800  1
  C  1050  1  0.24966100  0.03844300  0.01792900  1
  C  1052  1  0.25219000  0.11199900  0.06577400  1
  C  1053  1  0.26896000  0.13565300  0.06750500  1
  C  1054  1  0.26964800  0.15954600  0.09167900  1
  C  1055  1  0.25340200  0.16076000  0.11508900  1
  C  1056  1  0.23727200  0.13726100  0.11374800  1
  C  1057  1  0.23765300  0.11293500  0.08958300  1
  C  1062  1  0.22198800  0.08820000  0.08876165  1
  C  1063  1  0.24971300  0.06388600  0.06774665  1
