# generated using pymatgen
data_H26C41N3
_symmetry_space_group_name_H-M   'P 1'
_cell_length_a   48.19040000
_cell_length_b   48.18220000
_cell_length_c   48.21000000
_cell_angle_alpha   89.99550000
_cell_angle_beta   89.98570000
_cell_angle_gamma   89.98130000
_symmetry_Int_Tables_number   1
_chemical_formula_structural   H26C41N3
_chemical_formula_sum   'H312 C492 N36'
_cell_volume   111939.72886236
_cell_formula_units_Z   12
loop_
 _symmetry_equiv_pos_site_id
 _symmetry_equiv_pos_as_xyz
  1  'x, y, z'
loop_
 _atom_site_type_symbol
 _atom_site_label
 _atom_site_symmetry_multiplicity
 _atom_site_fract_x
 _atom_site_fract_y
 _atom_site_fract_z
 _atom_site_occupancy
  H  25  1  0.07313000  0.90855800  0.32851900  1
  H  26  1  0.04377500  0.93738500  0.35632000  1
  H  27  1  0.06371700  0.96395100  0.26129200  1
  H  28  1  0.03462400  0.99259200  0.28874700  1
  H  29  1  0.96325400  0.00942200  0.28875500  1
  H  30  1  0.93415300  0.03804200  0.26129600  1
  H  31  1  0.95406100  0.06464300  0.35630600  1
  H  32  1  0.92469900  0.09344800  0.32850000  1
  H  33  1  0.96016000  0.02159200  0.41898200  1
  H  34  1  0.96021100  0.02149500  0.46836300  1
  H  35  1  0.03765900  0.98057400  0.46834700  1
  H  36  1  0.03770400  0.98046800  0.41896500  1
  H  61  1  0.07313800  0.09345000  0.64738900  1
  H  62  1  0.04380500  0.06462200  0.61959800  1
  H  63  1  0.06366200  0.03811500  0.71465500  1
  H  64  1  0.03459300  0.00947400  0.68721200  1
  H  65  1  0.96331500  0.99255600  0.68722300  1
  H  66  1  0.93422800  0.96392600  0.71468200  1
  H  67  1  0.95412600  0.93738900  0.61963700  1
  H  68  1  0.92477600  0.90857400  0.64744200  1
  H  69  1  0.96019100  0.98045500  0.55699200  1
  H  70  1  0.96023300  0.98056500  0.50760800  1
  H  71  1  0.03764700  0.02149900  0.50758100  1
  H  72  1  0.03770300  0.02159200  0.55696500  1
  H  97  1  0.09133800  0.34153900  0.91382900  1
  H  98  1  0.06252600  0.36934900  0.94319200  1
  H  99  1  0.03607200  0.27422300  0.92340600  1
  H  100  1  0.00744900  0.30168000  0.95250000  1
  H  101  1  0.99031000  0.30167100  0.02352500  1
  H  102  1  0.96168800  0.27419400  0.05259100  1
  H  103  1  0.93517700  0.36932900  0.03282100  1
  H  104  1  0.90636700  0.34150200  0.06215600  1
  H  105  1  0.97634900  0.43207400  0.02570800  1
  H  106  1  0.97652800  0.48151300  0.02570300  1
  H  107  1  0.02120500  0.48152400  0.95041300  1
  H  108  1  0.02138400  0.43208400  0.95038200  1
  H  133  1  0.90642700  0.66051300  0.91386200  1
  H  134  1  0.93523600  0.63269700  0.94321300  1
  H  135  1  0.96165000  0.72785100  0.92349100  1
  H  136  1  0.99027100  0.70038800  0.95256800  1
  H  137  1  0.00750000  0.70038500  0.02349400  1
  H  138  1  0.03613500  0.72784600  0.05254200  1
  H  139  1  0.06255200  0.63267100  0.03283900  1
  H  140  1  0.09137800  0.66048300  0.06215800  1
  H  141  1  0.02139600  0.56995500  0.02570500  1
  H  142  1  0.02121200  0.52051500  0.02569100  1
  H  143  1  0.97652100  0.52053600  0.95043200  1
  H  144  1  0.97634700  0.56997500  0.95041100  1
  H  169  1  0.65844700  0.92742900  0.89514000  1
  H  170  1  0.63065900  0.95669700  0.92407000  1
  H  171  1  0.72558400  0.93622700  0.95071800  1
  H  172  1  0.69814400  0.96525300  0.97945500  1
  H  173  1  0.69813300  0.03687200  0.99643000  1
  H  174  1  0.72558200  0.06586200  0.02516300  1
  H  175  1  0.63066500  0.04544600  0.05187200  1
  H  176  1  0.65846200  0.07467900  0.08079700  1
  H  177  1  0.56795200  0.04016100  0.00793300  1
  H  178  1  0.51855800  0.04010100  0.00787900  1
  H  179  1  0.51858400  0.96205800  0.96812300  1
  H  180  1  0.56797500  0.96199800  0.96804200  1
  H  205  1  0.33934000  0.92735400  0.08076800  1
  H  206  1  0.36713100  0.95662600  0.05185500  1
  H  207  1  0.27222200  0.93620100  0.02516600  1
  H  208  1  0.29966200  0.96522600  0.99644700  1
  H  209  1  0.29962700  0.03681000  0.97944000  1
  H  210  1  0.27218200  0.06581400  0.95069700  1
  H  211  1  0.36715000  0.04544300  0.92408200  1
  H  212  1  0.33935700  0.07469300  0.89514200  1
  H  213  1  0.42981500  0.04014700  0.96804600  1
  H  214  1  0.47920900  0.04009800  0.96812300  1
  H  215  1  0.47923300  0.96205300  0.00788500  1
  H  216  1  0.42984100  0.96198200  0.00794500  1
  H  247  1  0.94526200  0.27461900  0.10487600  1
  H  248  1  0.91736700  0.24186500  0.12937100  1
  H  249  1  0.87709600  0.29441600  0.05348100  1
  H  250  1  0.84919400  0.26138400  0.07776700  1
  H  251  1  0.88480500  0.17221800  0.16753500  1
  H  252  1  0.82751500  0.18052400  0.10217300  1
  H  253  1  0.81931500  0.11502900  0.15936800  1
  H  254  1  0.75752100  0.14260600  0.06996800  1
  H  255  1  0.90917800  0.15057300  0.24835500  1
  H  256  1  0.93344000  0.12264400  0.28138100  1
  H  257  1  0.88186100  0.05456200  0.26175100  1
  H  258  1  0.85739000  0.08248300  0.22900000  1
  H  259  1  0.72479000  0.11814700  0.04203000  1
  H  260  1  0.70585000  0.06583200  0.10974000  1
  H  261  1  0.73887000  0.09007800  0.13768200  1
  H  262  1  0.86409400  0.15497000  0.21939600  1
  H  263  1  0.86863900  0.10679800  0.18385400  1
  H  264  1  0.84484300  0.23237800  0.12278200  1
  H  265  1  0.89298400  0.19676300  0.11827100  1
  H  266  1  0.76755100  0.13533200  0.14229600  1
  H  267  1  0.80288400  0.13142100  0.09392500  1
  H  298  1  0.05249900  0.72740500  0.10482000  1
  H  299  1  0.08038400  0.76013900  0.12933200  1
  H  300  1  0.12071000  0.70756200  0.05347500  1
  H  301  1  0.14861000  0.74057800  0.07778200  1
  H  302  1  0.11298300  0.82974000  0.16753500  1
  H  303  1  0.17026600  0.82144300  0.10214000  1
  H  304  1  0.17851300  0.88688500  0.15936200  1
  H  305  1  0.24030000  0.85940100  0.06992000  1
  H  306  1  0.08862800  0.85140900  0.24837000  1
  H  307  1  0.06437600  0.87935200  0.28139800  1
  H  308  1  0.11600800  0.94740100  0.26175300  1
  H  309  1  0.14046900  0.91946400  0.22900000  1
  H  310  1  0.27303400  0.88389200  0.04199100  1
  H  311  1  0.29194000  0.93615500  0.10973500  1
  H  312  1  0.25892000  0.91188000  0.13766400  1
  H  313  1  0.13369800  0.84697200  0.21941100  1
  H  314  1  0.12921700  0.89515400  0.18386300  1
  H  315  1  0.15292100  0.76958800  0.12279300  1
  H  316  1  0.10480900  0.80523100  0.11821400  1
  H  317  1  0.23026400  0.86661500  0.14225900  1
  H  318  1  0.19493100  0.87052800  0.09390500  1
  H  349  1  0.94532200  0.72740400  0.87119100  1
  H  350  1  0.91743900  0.76014300  0.84665000  1
  H  351  1  0.87708900  0.70761000  0.92251200  1
  H  352  1  0.84919700  0.74062500  0.89817900  1
  H  353  1  0.88486600  0.82977200  0.80842200  1
  H  354  1  0.82753400  0.82149200  0.87377500  1
  H  355  1  0.81933400  0.88696700  0.81655300  1
  H  356  1  0.75748900  0.85942200  0.90595300  1
  H  357  1  0.90923400  0.85140400  0.72757500  1
  H  358  1  0.93351000  0.87932900  0.69454900  1
  H  359  1  0.88192600  0.94743900  0.71420900  1
  H  360  1  0.85744400  0.91952400  0.74695500  1
  H  361  1  0.72475600  0.88392300  0.93388500  1
  H  362  1  0.70586200  0.93623400  0.86616300  1
  H  363  1  0.73888800  0.91194700  0.83822500  1
  H  364  1  0.86414200  0.84702500  0.75651900  1
  H  365  1  0.86868000  0.89517400  0.79209100  1
  H  366  1  0.84489800  0.76963400  0.85315500  1
  H  367  1  0.89300600  0.80525000  0.85770800  1
  H  368  1  0.76755300  0.86667400  0.83362000  1
  H  369  1  0.80286300  0.87058600  0.88198900  1
  H  400  1  0.05245700  0.27465900  0.87112600  1
  H  401  1  0.08035300  0.24191000  0.84660900  1
  H  402  1  0.12064700  0.29443500  0.92247500  1
  H  403  1  0.14854800  0.26141200  0.89816600  1
  H  404  1  0.11294800  0.17228300  0.80838200  1
  H  405  1  0.17024300  0.18055700  0.87372800  1
  H  406  1  0.17846900  0.11509500  0.81651700  1
  H  407  1  0.24023900  0.14259900  0.90593700  1
  H  408  1  0.08859800  0.15062900  0.72751900  1
  H  409  1  0.06436300  0.12269400  0.69449700  1
  H  410  1  0.11594900  0.05460300  0.71419400  1
  H  411  1  0.14039400  0.08252800  0.74694300  1
  H  412  1  0.27297300  0.11811800  0.93387300  1
  H  413  1  0.29197100  0.06584900  0.86614400  1
  H  414  1  0.25894600  0.09011500  0.83820200  1
  H  415  1  0.13369100  0.15502100  0.75647600  1
  H  416  1  0.12912700  0.10687700  0.79206400  1
  H  417  1  0.15288800  0.23241700  0.85314300  1
  H  418  1  0.10476600  0.19680900  0.85765200  1
  H  419  1  0.23024900  0.13538200  0.83360300  1
  H  420  1  0.19489400  0.13144500  0.88195600  1
  H  445  1  0.05237900  0.90855800  0.78485600  1
  H  446  1  0.02302400  0.93738500  0.81265700  1
  H  447  1  0.04296600  0.96395100  0.71762900  1
  H  448  1  0.01387300  0.99259200  0.74508400  1
  H  449  1  0.94250300  0.00942200  0.74509200  1
  H  450  1  0.91340200  0.03804200  0.71763300  1
  H  451  1  0.93331000  0.06464300  0.81264300  1
  H  452  1  0.90394800  0.09344800  0.78483700  1
  H  453  1  0.93940900  0.02159200  0.87531900  1
  H  454  1  0.93946000  0.02149500  0.92470000  1
  H  455  1  0.01690800  0.98057400  0.92468400  1
  H  456  1  0.01695300  0.98046800  0.87530200  1
  H  481  1  0.05238700  0.09345000  0.10372600  1
  H  482  1  0.02305400  0.06462200  0.07593490  1
  H  483  1  0.04291100  0.03811500  0.17099200  1
  H  484  1  0.01384200  0.00947400  0.14354900  1
  H  485  1  0.94256400  0.99255600  0.14356000  1
  H  486  1  0.91347700  0.96392600  0.17101900  1
  H  487  1  0.93337500  0.93738900  0.07597390  1
  H  488  1  0.90402500  0.90857400  0.10377900  1
  H  489  1  0.93944000  0.98045500  0.01332890  1
  H  490  1  0.93948200  0.98056500  0.96394500  1
  H  491  1  0.01689600  0.02149900  0.96391800  1
  H  492  1  0.01695200  0.02159200  0.01330190  1
  H  517  1  0.07058700  0.34153900  0.37016600  1
  H  518  1  0.04177500  0.36934900  0.39952900  1
  H  519  1  0.01532100  0.27422300  0.37974300  1
  H  520  1  0.98669800  0.30168000  0.40883700  1
  H  521  1  0.96955900  0.30167100  0.47986200  1
  H  522  1  0.94093700  0.27419400  0.50892800  1
  H  523  1  0.91442600  0.36932900  0.48915800  1
  H  524  1  0.88561600  0.34150200  0.51849300  1
  H  525  1  0.95559800  0.43207400  0.48204500  1
  H  526  1  0.95577700  0.48151300  0.48204000  1
  H  527  1  0.00045400  0.48152400  0.40675000  1
  H  528  1  0.00063300  0.43208400  0.40671900  1
  H  553  1  0.88567600  0.66051300  0.37019900  1
  H  554  1  0.91448500  0.63269700  0.39955000  1
  H  555  1  0.94089900  0.72785100  0.37982800  1
  H  556  1  0.96952000  0.70038800  0.40890500  1
  H  557  1  0.98674900  0.70038500  0.47983100  1
  H  558  1  0.01538400  0.72784600  0.50887900  1
  H  559  1  0.04180100  0.63267100  0.48917600  1
  H  560  1  0.07062700  0.66048300  0.51849500  1
  H  561  1  0.00064500  0.56995500  0.48204200  1
  H  562  1  0.00046100  0.52051500  0.48202800  1
  H  563  1  0.95577000  0.52053600  0.40676900  1
  H  564  1  0.95559600  0.56997500  0.40674800  1
  H  589  1  0.63769600  0.92742900  0.35147700  1
  H  590  1  0.60990800  0.95669700  0.38040700  1
  H  591  1  0.70483300  0.93622700  0.40705500  1
  H  592  1  0.67739300  0.96525300  0.43579200  1
  H  593  1  0.67738200  0.03687200  0.45276700  1
  H  594  1  0.70483100  0.06586200  0.48150000  1
  H  595  1  0.60991400  0.04544600  0.50820900  1
  H  596  1  0.63771100  0.07467900  0.53713400  1
  H  597  1  0.54720100  0.04016100  0.46427000  1
  H  598  1  0.49780700  0.04010100  0.46421600  1
  H  599  1  0.49783300  0.96205800  0.42446000  1
  H  600  1  0.54722400  0.96199800  0.42437900  1
  H  625  1  0.31858900  0.92735400  0.53710500  1
  H  626  1  0.34638000  0.95662600  0.50819200  1
  H  627  1  0.25147100  0.93620100  0.48150300  1
  H  628  1  0.27891100  0.96522600  0.45278400  1
  H  629  1  0.27887600  0.03681000  0.43577700  1
  H  630  1  0.25143100  0.06581400  0.40703400  1
  H  631  1  0.34639900  0.04544300  0.38041900  1
  H  632  1  0.31860600  0.07469300  0.35147900  1
  H  633  1  0.40906400  0.04014700  0.42438300  1
  H  634  1  0.45845800  0.04009800  0.42446000  1
  H  635  1  0.45848200  0.96205300  0.46422200  1
  H  636  1  0.40909000  0.96198200  0.46428200  1
  H  667  1  0.92451100  0.27461900  0.56121300  1
  H  668  1  0.89661600  0.24186500  0.58570800  1
  H  669  1  0.85634500  0.29441600  0.50981800  1
  H  670  1  0.82844300  0.26138400  0.53410400  1
  H  671  1  0.86405400  0.17221800  0.62387200  1
  H  672  1  0.80676400  0.18052400  0.55851000  1
  H  673  1  0.79856400  0.11502900  0.61570500  1
  H  674  1  0.73677000  0.14260600  0.52630500  1
  H  675  1  0.88842700  0.15057300  0.70469200  1
  H  676  1  0.91268900  0.12264400  0.73771800  1
  H  677  1  0.86111000  0.05456200  0.71808800  1
  H  678  1  0.83663900  0.08248300  0.68533700  1
  H  679  1  0.70403900  0.11814700  0.49836700  1
  H  680  1  0.68509900  0.06583200  0.56607700  1
  H  681  1  0.71811900  0.09007800  0.59401900  1
  H  682  1  0.84334300  0.15497000  0.67573300  1
  H  683  1  0.84788800  0.10679800  0.64019100  1
  H  684  1  0.82409200  0.23237800  0.57911900  1
  H  685  1  0.87223300  0.19676300  0.57460800  1
  H  686  1  0.74680000  0.13533200  0.59863300  1
  H  687  1  0.78213300  0.13142100  0.55026200  1
  H  718  1  0.03174800  0.72740500  0.56115700  1
  H  719  1  0.05963300  0.76013900  0.58566900  1
  H  720  1  0.09995900  0.70756200  0.50981200  1
  H  721  1  0.12785900  0.74057800  0.53411900  1
  H  722  1  0.09223200  0.82974000  0.62387200  1
  H  723  1  0.14951500  0.82144300  0.55847700  1
  H  724  1  0.15776200  0.88688500  0.61569900  1
  H  725  1  0.21954900  0.85940100  0.52625700  1
  H  726  1  0.06787700  0.85140900  0.70470700  1
  H  727  1  0.04362500  0.87935200  0.73773500  1
  H  728  1  0.09525700  0.94740100  0.71809000  1
  H  729  1  0.11971800  0.91946400  0.68533700  1
  H  730  1  0.25228300  0.88389200  0.49832800  1
  H  731  1  0.27118900  0.93615500  0.56607200  1
  H  732  1  0.23816900  0.91188000  0.59400100  1
  H  733  1  0.11294700  0.84697200  0.67574800  1
  H  734  1  0.10846600  0.89515400  0.64020000  1
  H  735  1  0.13217000  0.76958800  0.57913000  1
  H  736  1  0.08405800  0.80523100  0.57455100  1
  H  737  1  0.20951300  0.86661500  0.59859600  1
  H  738  1  0.17418000  0.87052800  0.55024200  1
  H  769  1  0.92457100  0.72740400  0.32752800  1
  H  770  1  0.89668800  0.76014300  0.30298700  1
  H  771  1  0.85633800  0.70761000  0.37884900  1
  H  772  1  0.82844600  0.74062500  0.35451600  1
  H  773  1  0.86411500  0.82977200  0.26475900  1
  H  774  1  0.80678300  0.82149200  0.33011200  1
  H  775  1  0.79858300  0.88696700  0.27289000  1
  H  776  1  0.73673800  0.85942200  0.36229000  1
  H  777  1  0.88848300  0.85140400  0.18391200  1
  H  778  1  0.91275900  0.87932900  0.15088600  1
  H  779  1  0.86117500  0.94743900  0.17054600  1
  H  780  1  0.83669300  0.91952400  0.20329200  1
  H  781  1  0.70400500  0.88392300  0.39022200  1
  H  782  1  0.68511100  0.93623400  0.32250000  1
  H  783  1  0.71813700  0.91194700  0.29456200  1
  H  784  1  0.84339100  0.84702500  0.21285600  1
  H  785  1  0.84792900  0.89517400  0.24842800  1
  H  786  1  0.82414700  0.76963400  0.30949200  1
  H  787  1  0.87225500  0.80525000  0.31404500  1
  H  788  1  0.74680200  0.86667400  0.28995700  1
  H  789  1  0.78211200  0.87058600  0.33832600  1
  H  820  1  0.03170600  0.27465900  0.32746300  1
  H  821  1  0.05960200  0.24191000  0.30294600  1
  H  822  1  0.09989600  0.29443500  0.37881200  1
  H  823  1  0.12779700  0.26141200  0.35450300  1
  H  824  1  0.09219700  0.17228300  0.26471900  1
  H  825  1  0.14949200  0.18055700  0.33006500  1
  H  826  1  0.15771800  0.11509500  0.27285400  1
  H  827  1  0.21948800  0.14259900  0.36227400  1
  H  828  1  0.06784700  0.15062900  0.18385600  1
  H  829  1  0.04361200  0.12269400  0.15083400  1
  H  830  1  0.09519800  0.05460300  0.17053100  1
  H  831  1  0.11964300  0.08252800  0.20328000  1
  H  832  1  0.25222200  0.11811800  0.39021000  1
  H  833  1  0.27122000  0.06584900  0.32248100  1
  H  834  1  0.23819500  0.09011500  0.29453900  1
  H  835  1  0.11294000  0.15502100  0.21281300  1
  H  836  1  0.10837600  0.10687700  0.24840100  1
  H  837  1  0.13213700  0.23241700  0.30948000  1
  H  838  1  0.08401500  0.19680900  0.31398900  1
  H  839  1  0.20949800  0.13538200  0.28994000  1
  H  840  1  0.17414300  0.13144500  0.33829300  1
  C  1  1  0.01749500  0.98460900  0.34114700  1
  C  3  1  0.99893100  0.00102600  0.38403900  1
  C  5  1  0.98036600  0.01742500  0.34114500  1
  C  7  1  0.99893300  0.00103100  0.41366700  1
  C  8  1  0.02110700  0.98918100  0.42893800  1
  C  9  1  0.02125700  0.98941800  0.45814200  1
  C  10  1  0.99893500  0.00103500  0.47320700  1
  C  11  1  0.97661300  0.01265000  0.45815200  1
  C  12  1  0.97676300  0.01288700  0.42894800  1
  C  13  1  0.03618100  0.96797100  0.32544900  1
  C  14  1  0.04816200  0.94351200  0.33647200  1
  C  15  1  0.06522600  0.92634900  0.32001700  1
  C  16  1  0.07154100  0.93354300  0.29227300  1
  C  17  1  0.06011600  0.95829100  0.28145000  1
  C  18  1  0.04263000  0.97504900  0.29765800  1
  C  19  1  0.96167900  0.03405500  0.32544500  1
  C  20  1  0.95523700  0.02696300  0.29766200  1
  C  21  1  0.93774000  0.04370400  0.28145200  1
  C  22  1  0.92630600  0.06845300  0.29226500  1
  C  23  1  0.93261300  0.07565800  0.32000400  1
  C  24  1  0.94967900  0.05850900  0.33646300  1
  C  37  1  0.01750300  0.01742800  0.63480000  1
  C  39  1  0.99895200  0.00101700  0.59191300  1
  C  41  1  0.98041300  0.98459100  0.63481000  1
  C  43  1  0.99894600  0.00102500  0.56228400  1
  C  44  1  0.02110200  0.01288900  0.54700100  1
  C  45  1  0.02125100  0.01265400  0.51779700  1
  C  46  1  0.99893700  0.00103600  0.50274400  1
  C  47  1  0.97662400  0.98941900  0.51781400  1
  C  48  1  0.97678200  0.98917100  0.54701500  1
  C  49  1  0.03616900  0.03407300  0.65049600  1
  C  50  1  0.04814300  0.05852900  0.63946500  1
  C  51  1  0.06521700  0.07567600  0.65590300  1
  C  52  1  0.07150800  0.06849800  0.68365500  1
  C  53  1  0.06007300  0.04376700  0.69449300  1
  C  54  1  0.04259900  0.02700900  0.67829100  1
  C  55  1  0.96174400  0.96794900  0.65051700  1
  C  56  1  0.95530700  0.97502000  0.67831200  1
  C  57  1  0.93782800  0.95826700  0.69452400  1
  C  58  1  0.92639300  0.93353600  0.68369600  1
  C  59  1  0.93269500  0.92634900  0.65594900  1
  C  60  1  0.94975500  0.94350300  0.63949200  1
  C  73  1  0.01534200  0.35415000  0.96952300  1
  C  75  1  0.99886400  0.39708200  0.98803400  1
  C  77  1  0.98238700  0.35414400  0.00651100  1
  C  79  1  0.99886400  0.42674400  0.98804200  1
  C  80  1  0.01181700  0.44204400  0.96650500  1
  C  81  1  0.01159300  0.47126700  0.96634300  1
  C  82  1  0.99886700  0.48627400  0.98805900  1
  C  83  1  0.98614000  0.47126000  0.00976800  1
  C  84  1  0.98591000  0.44203800  0.00958700  1
  C  85  1  0.03200600  0.33843200  0.95087300  1
  C  86  1  0.05643100  0.34947500  0.93884900  1
  C  87  1  0.07358400  0.33301400  0.92178000  1
  C  88  1  0.06642000  0.30524600  0.91550300  1
  C  89  1  0.04171500  0.29439800  0.92698200  1
  C  90  1  0.02496700  0.31061200  0.94447000  1
  C  91  1  0.96572200  0.33841800  0.02514800  1
  C  92  1  0.97278300  0.31059600  0.03154900  1
  C  93  1  0.95604000  0.29437400  0.04902800  1
  C  94  1  0.93131700  0.30521100  0.06049100  1
  C  95  1  0.92413500  0.33298300  0.05421700  1
  C  96  1  0.94128600  0.34945400  0.03716400  1
  C  109  1  0.98239700  0.64790100  0.96956000  1
  C  111  1  0.99887700  0.60496300  0.98805200  1
  C  113  1  0.01537300  0.64789100  0.00651500  1
  C  115  1  0.99887000  0.57530100  0.98805900  1
  C  116  1  0.98590500  0.56000600  0.96653200  1
  C  117  1  0.98613300  0.53078600  0.96636000  1
  C  118  1  0.99886300  0.51576800  0.98806300  1
  C  119  1  0.01159100  0.53077500  0.00976900  1
  C  120  1  0.01182600  0.55999700  0.00959200  1
  C  121  1  0.96572700  0.66362700  0.95092900  1
  C  122  1  0.94130400  0.65258800  0.93891300  1
  C  123  1  0.92416800  0.66904300  0.92182800  1
  C  124  1  0.93132400  0.69681900  0.91556500  1
  C  125  1  0.95601300  0.70767300  0.92705700  1
  C  126  1  0.97275900  0.69145500  0.94453900  1
  C  127  1  0.03205200  0.66361400  0.02513300  1
  C  128  1  0.02501800  0.69144800  0.03151600  1
  C  129  1  0.04177600  0.70766500  0.04897400  1
  C  130  1  0.06647600  0.69680400  0.06045300  1
  C  131  1  0.07363200  0.66902000  0.05419900  1
  C  132  1  0.05648200  0.65256600  0.03714300  1
  C  145  1  0.64579700  0.98259200  0.97147500  1
  C  147  1  0.60289200  0.00107800  0.98797800  1
  C  149  1  0.64579400  0.01955200  0.00444900  1
  C  151  1  0.57326000  0.00107800  0.98798800  1
  C  152  1  0.55799000  0.97873100  0.97648600  1
  C  153  1  0.52877500  0.97859100  0.97672700  1
  C  154  1  0.51368200  0.00107900  0.98800300  1
  C  155  1  0.52876100  0.02356800  0.99927000  1
  C  156  1  0.55797600  0.02342400  0.99950200  1
  C  157  1  0.66149100  0.96398000  0.95475200  1
  C  158  1  0.65048500  0.95220100  0.93020800  1
  C  159  1  0.66693400  0.93519300  0.91298500  1
  C  160  1  0.69464300  0.92872600  0.92020800  1
  C  161  1  0.70544800  0.93995300  0.94503200  1
  C  162  1  0.68925200  0.95739500  0.96184800  1
  C  163  1  0.66149000  0.03815100  0.02116500  1
  C  164  1  0.68924600  0.04472700  0.01404800  1
  C  165  1  0.70544600  0.06215600  0.03085600  1
  C  166  1  0.69464900  0.07337400  0.05569800  1
  C  167  1  0.66694300  0.06691900  0.06293900  1
  C  168  1  0.65049400  0.04992000  0.04572900  1
  C  181  1  0.35199700  0.98255500  0.00445500  1
  C  183  1  0.39489900  0.00105300  0.98798400  1
  C  185  1  0.35199400  0.01951500  0.97147300  1
  C  187  1  0.42453100  0.00106500  0.98799600  1
  C  188  1  0.43981500  0.97872400  0.99951500  1
  C  189  1  0.46903100  0.97858600  0.99928000  1
  C  190  1  0.48410900  0.00107800  0.98800900  1
  C  191  1  0.46901600  0.02356800  0.97673900  1
  C  192  1  0.43980000  0.02341600  0.97649000  1
  C  193  1  0.33630500  0.96394200  0.02116800  1
  C  194  1  0.34729700  0.95216600  0.04572700  1
  C  195  1  0.33085700  0.93513100  0.06292300  1
  C  196  1  0.30315500  0.92867100  0.05568600  1
  C  197  1  0.29235200  0.93991900  0.03086300  1
  C  198  1  0.30855000  0.95736400  0.01405800  1
  C  199  1  0.33629600  0.03811200  0.95474400  1
  C  200  1  0.30852300  0.04467400  0.96183400  1
  C  201  1  0.29232300  0.06210100  0.94501100  1
  C  202  1  0.30314000  0.07334500  0.92019300  1
  C  203  1  0.33086100  0.06690700  0.91297900  1
  C  204  1  0.34730400  0.04989700  0.93019500  1
  C  217  1  0.91388400  0.28784400  0.07686100  1
  C  218  1  0.92494200  0.27226600  0.09914500  1
  C  219  1  0.90850200  0.25293800  0.11355900  1
  C  220  1  0.88060300  0.24813500  0.10575200  1
  C  221  1  0.86925700  0.26438700  0.08410200  1
  C  222  1  0.88564500  0.28396400  0.06987600  1
  C  223  1  0.86449400  0.22772700  0.11839200  1
  C  224  1  0.87355200  0.20174200  0.12320300  1
  C  225  1  0.85733500  0.18076300  0.13438200  1
  C  226  1  0.83360800  0.17096000  0.12018500  1
  C  227  1  0.81903700  0.14730200  0.12959300  1
  C  228  1  0.82886200  0.13305800  0.15328400  1
  C  229  1  0.85253700  0.14244700  0.16781900  1
  C  230  1  0.86675500  0.16616900  0.15801500  1
  C  231  1  0.86370700  0.12623900  0.18880600  1
  C  232  1  0.86849900  0.13531500  0.21476900  1
  C  233  1  0.88110600  0.11920500  0.23518800  1
  C  234  1  0.90281500  0.13051600  0.25137500  1
  C  235  1  0.87323700  0.09132500  0.24003500  1
  C  236  1  0.88762400  0.07487500  0.25937400  1
  C  237  1  0.90995100  0.08590400  0.27490100  1
  C  238  1  0.91698500  0.11413500  0.27099800  1
  C  239  1  0.79800600  0.13616400  0.11342200  1
  C  240  1  0.77211100  0.13112800  0.12259200  1
  C  241  1  0.75168500  0.11852000  0.10649900  1
  C  242  1  0.74664200  0.12660000  0.07872700  1
  C  243  1  0.73570600  0.09659200  0.11770500  1
  C  244  1  0.71610700  0.08241600  0.10131300  1
  C  245  1  0.71199700  0.08968500  0.07318700  1
  C  246  1  0.72731800  0.11221700  0.06226700  1
  C  268  1  0.08390700  0.71415200  0.07683600  1
  C  269  1  0.07283000  0.72973400  0.09911200  1
  C  270  1  0.08926200  0.74906000  0.11352800  1
  C  271  1  0.11717400  0.75385000  0.10573700  1
  C  272  1  0.12853000  0.73760100  0.08408700  1
  C  273  1  0.11215700  0.71800900  0.06987300  1
  C  274  1  0.13327700  0.77424600  0.11839100  1
  C  275  1  0.12422900  0.80024100  0.12317200  1
  C  276  1  0.14043900  0.82121600  0.13435800  1
  C  277  1  0.16418100  0.83099900  0.12016000  1
  C  278  1  0.17878600  0.85462900  0.12957900  1
  C  279  1  0.16896200  0.86885700  0.15328600  1
  C  280  1  0.14527800  0.85948300  0.16783100  1
  C  281  1  0.13103100  0.83579500  0.15800300  1
  C  282  1  0.13412900  0.87570700  0.18881700  1
  C  283  1  0.12934200  0.86663800  0.21478500  1
  C  284  1  0.11672800  0.88275700  0.23520000  1
  C  285  1  0.09500800  0.87146000  0.25139400  1
  C  286  1  0.12461200  0.91063400  0.24003900  1
  C  287  1  0.11022700  0.92709500  0.25937600  1
  C  288  1  0.08789500  0.91607800  0.27491800  1
  C  289  1  0.08083000  0.88785900  0.27100000  1
  C  290  1  0.19981100  0.86577900  0.11339800  1
  C  291  1  0.22570100  0.87083000  0.12256000  1
  C  292  1  0.24612600  0.88345500  0.10646800  1
  C  293  1  0.25116500  0.87541100  0.07868300  1
  C  294  1  0.26211400  0.90536200  0.11769300  1
  C  295  1  0.28168300  0.91958200  0.10129100  1
  C  296  1  0.28581300  0.91233100  0.07316300  1
  C  297  1  0.27049500  0.88980800  0.06223100  1
  C  319  1  0.91390300  0.71417500  0.89916400  1
  C  320  1  0.92498800  0.72974900  0.87689100  1
  C  321  1  0.90856300  0.74908900  0.86246600  1
  C  322  1  0.88064100  0.75387700  0.87022800  1
  C  323  1  0.86927200  0.73762000  0.89186500  1
  C  324  1  0.88564100  0.71802500  0.90609400  1
  C  325  1  0.86453700  0.77428500  0.85757500  1
  C  326  1  0.87358700  0.80026500  0.85275300  1
  C  327  1  0.85736700  0.82124600  0.84156400  1
  C  328  1  0.83361000  0.83103000  0.85574400  1
  C  329  1  0.81903900  0.85469100  0.84632400  1
  C  330  1  0.82885600  0.86891100  0.82261600  1
  C  331  1  0.85256400  0.85953200  0.80810600  1
  C  332  1  0.86678800  0.83580600  0.81791100  1
  C  333  1  0.86374600  0.87574100  0.78712700  1
  C  334  1  0.86852500  0.86668000  0.76115500  1
  C  335  1  0.88116300  0.88278900  0.74075500  1
  C  336  1  0.90287600  0.87146800  0.72455900  1
  C  337  1  0.87329500  0.91067600  0.73591400  1
  C  338  1  0.88770200  0.92712700  0.71659200  1
  C  339  1  0.91002800  0.91608800  0.70104800  1
  C  340  1  0.91708300  0.88786100  0.70497800  1
  C  341  1  0.79799800  0.86584400  0.86249300  1
  C  342  1  0.77209900  0.87085700  0.85332700  1
  C  343  1  0.75167300  0.88349800  0.86941500  1
  C  344  1  0.74660900  0.87542600  0.89718700  1
  C  345  1  0.73570000  0.90543300  0.85820000  1
  C  346  1  0.71610700  0.91963900  0.87459200  1
  C  347  1  0.71197500  0.91238000  0.90271900  1
  C  348  1  0.72729000  0.88984100  0.91364500  1
  C  370  1  0.08385300  0.28789700  0.89910400  1
  C  371  1  0.07278800  0.27232000  0.87682900  1
  C  372  1  0.08922400  0.25298500  0.86240800  1
  C  373  1  0.11713200  0.24817800  0.87019300  1
  C  374  1  0.12848400  0.26442600  0.89183800  1
  C  375  1  0.11210100  0.28401600  0.90606300  1
  C  376  1  0.13324400  0.22776400  0.85755500  1
  C  377  1  0.12419400  0.20178900  0.85271700  1
  C  378  1  0.14042200  0.18081600  0.84152500  1
  C  379  1  0.16415800  0.17100600  0.85571100  1
  C  380  1  0.17875600  0.14736200  0.84628900  1
  C  381  1  0.16892800  0.13313600  0.82259500  1
  C  382  1  0.14524200  0.14252200  0.80806300  1
  C  383  1  0.13100700  0.16623200  0.81789100  1
  C  384  1  0.13406500  0.12631000  0.78709400  1
  C  385  1  0.12927400  0.13537500  0.76112600  1
  C  386  1  0.11668100  0.11926100  0.74070900  1
  C  387  1  0.09499400  0.13058100  0.72448500  1
  C  388  1  0.12455700  0.09137400  0.73588700  1
  C  389  1  0.11018400  0.07492100  0.71655100  1
  C  390  1  0.08786600  0.08595200  0.70099600  1
  C  391  1  0.08082200  0.11418600  0.70488700  1
  C  392  1  0.19977900  0.13620000  0.86246400  1
  C  393  1  0.22567900  0.13115900  0.85330000  1
  C  394  1  0.24610600  0.11854000  0.86939400  1
  C  395  1  0.25113500  0.12660000  0.89717300  1
  C  396  1  0.26210200  0.09661800  0.85818300  1
  C  397  1  0.28170300  0.08243000  0.87457400  1
  C  398  1  0.28580700  0.08968400  0.90270500  1
  C  399  1  0.27045900  0.11220400  0.91363200  1
  C  421  1  0.99674398  0.98460900  0.79748400  1
  C  423  1  0.97818000  0.00102600  0.84037600  1
  C  425  1  0.95961500  0.01742500  0.79748200  1
  C  427  1  0.97818200  0.00103100  0.87000400  1
  C  428  1  0.00035600  0.98918100  0.88527500  1
  C  429  1  0.00050600  0.98941800  0.91447900  1
  C  430  1  0.97818400  0.00103500  0.92954400  1
  C  431  1  0.95586200  0.01265000  0.91448900  1
  C  432  1  0.95601200  0.01288700  0.88528500  1
  C  433  1  0.01543000  0.96797100  0.78178600  1
  C  434  1  0.02741100  0.94351200  0.79280900  1
  C  435  1  0.04447500  0.92634900  0.77635400  1
  C  436  1  0.05079000  0.93354300  0.74861000  1
  C  437  1  0.03936500  0.95829100  0.73778700  1
  C  438  1  0.02187900  0.97504900  0.75399500  1
  C  439  1  0.94092800  0.03405500  0.78178200  1
  C  440  1  0.93448600  0.02696300  0.75399900  1
  C  441  1  0.91698900  0.04370400  0.73778900  1
  C  442  1  0.90555500  0.06845300  0.74860200  1
  C  443  1  0.91186200  0.07565800  0.77634100  1
  C  444  1  0.92892800  0.05850900  0.79280000  1
  C  457  1  0.99675198  0.01742800  0.09113690  1
  C  459  1  0.97820100  0.00101700  0.04824990  1
  C  461  1  0.95966200  0.98459100  0.09114690  1
  C  463  1  0.97819500  0.00102500  0.01862090  1
  C  464  1  0.00035100  0.01288900  0.00333786  1
  C  465  1  0.00050000  0.01265400  0.97413400  1
  C  466  1  0.97818600  0.00103600  0.95908100  1
  C  467  1  0.95587300  0.98941900  0.97415100  1
  C  468  1  0.95603100  0.98917100  0.00335186  1
  C  469  1  0.01541800  0.03407300  0.10683300  1
  C  470  1  0.02739200  0.05852900  0.09580190  1
  C  471  1  0.04446600  0.07567600  0.11224000  1
  C  472  1  0.05075700  0.06849800  0.13999200  1
  C  473  1  0.03932200  0.04376700  0.15083000  1
  C  474  1  0.02184800  0.02700900  0.13462800  1
  C  475  1  0.94099300  0.96794900  0.10685400  1
  C  476  1  0.93455600  0.97502000  0.13464900  1
  C  477  1  0.91707700  0.95826700  0.15086100  1
  C  478  1  0.90564200  0.93353600  0.14003300  1
  C  479  1  0.91194400  0.92634900  0.11228600  1
  C  480  1  0.92900400  0.94350300  0.09582890  1
  C  493  1  0.99459098  0.35415000  0.42586000  1
  C  495  1  0.97811300  0.39708200  0.44437100  1
  C  497  1  0.96163600  0.35414400  0.46284800  1
  C  499  1  0.97811300  0.42674400  0.44437900  1
  C  500  1  0.99106598  0.44204400  0.42284200  1
  C  501  1  0.99084198  0.47126700  0.42268000  1
  C  502  1  0.97811600  0.48627400  0.44439600  1
  C  503  1  0.96538900  0.47126000  0.46610500  1
  C  504  1  0.96515900  0.44203800  0.46592400  1
  C  505  1  0.01125500  0.33843200  0.40721000  1
  C  506  1  0.03568000  0.34947500  0.39518600  1
  C  507  1  0.05283300  0.33301400  0.37811700  1
  C  508  1  0.04566900  0.30524600  0.37184000  1
  C  509  1  0.02096400  0.29439800  0.38331900  1
  C  510  1  0.00421600  0.31061200  0.40080700  1
  C  511  1  0.94497100  0.33841800  0.48148500  1
  C  512  1  0.95203200  0.31059600  0.48788600  1
  C  513  1  0.93528900  0.29437400  0.50536500  1
  C  514  1  0.91056600  0.30521100  0.51682800  1
  C  515  1  0.90338400  0.33298300  0.51055400  1
  C  516  1  0.92053500  0.34945400  0.49350100  1
  C  529  1  0.96164600  0.64790100  0.42589700  1
  C  531  1  0.97812600  0.60496300  0.44438900  1
  C  533  1  0.99462198  0.64789100  0.46285200  1
  C  535  1  0.97811900  0.57530100  0.44439600  1
  C  536  1  0.96515400  0.56000600  0.42286900  1
  C  537  1  0.96538200  0.53078600  0.42269700  1
  C  538  1  0.97811200  0.51576800  0.44440000  1
  C  539  1  0.99083998  0.53077500  0.46610600  1
  C  540  1  0.99107498  0.55999700  0.46592900  1
  C  541  1  0.94497600  0.66362700  0.40726600  1
  C  542  1  0.92055300  0.65258800  0.39525000  1
  C  543  1  0.90341700  0.66904300  0.37816500  1
  C  544  1  0.91057300  0.69681900  0.37190200  1
  C  545  1  0.93526200  0.70767300  0.38339400  1
  C  546  1  0.95200800  0.69145500  0.40087600  1
  C  547  1  0.01130100  0.66361400  0.48147000  1
  C  548  1  0.00426700  0.69144800  0.48785300  1
  C  549  1  0.02102500  0.70766500  0.50531100  1
  C  550  1  0.04572500  0.69680400  0.51679000  1
  C  551  1  0.05288100  0.66902000  0.51053600  1
  C  552  1  0.03573100  0.65256600  0.49348000  1
  C  565  1  0.62504600  0.98259200  0.42781200  1
  C  567  1  0.58214100  0.00107800  0.44431500  1
  C  569  1  0.62504300  0.01955200  0.46078600  1
  C  571  1  0.55250900  0.00107800  0.44432500  1
  C  572  1  0.53723900  0.97873100  0.43282300  1
  C  573  1  0.50802400  0.97859100  0.43306400  1
  C  574  1  0.49293100  0.00107900  0.44434000  1
  C  575  1  0.50801000  0.02356800  0.45560700  1
  C  576  1  0.53722500  0.02342400  0.45583900  1
  C  577  1  0.64074000  0.96398000  0.41108900  1
  C  578  1  0.62973400  0.95220100  0.38654500  1
  C  579  1  0.64618300  0.93519300  0.36932200  1
  C  580  1  0.67389200  0.92872600  0.37654500  1
  C  581  1  0.68469700  0.93995300  0.40136900  1
  C  582  1  0.66850100  0.95739500  0.41818500  1
  C  583  1  0.64073900  0.03815100  0.47750200  1
  C  584  1  0.66849500  0.04472700  0.47038500  1
  C  585  1  0.68469500  0.06215600  0.48719300  1
  C  586  1  0.67389800  0.07337400  0.51203500  1
  C  587  1  0.64619200  0.06691900  0.51927600  1
  C  588  1  0.62974300  0.04992000  0.50206600  1
  C  601  1  0.33124600  0.98255500  0.46079200  1
  C  603  1  0.37414800  0.00105300  0.44432100  1
  C  605  1  0.33124300  0.01951500  0.42781000  1
  C  607  1  0.40378000  0.00106500  0.44433300  1
  C  608  1  0.41906400  0.97872400  0.45585200  1
  C  609  1  0.44828000  0.97858600  0.45561700  1
  C  610  1  0.46335800  0.00107800  0.44434600  1
  C  611  1  0.44826500  0.02356800  0.43307600  1
  C  612  1  0.41904900  0.02341600  0.43282700  1
  C  613  1  0.31555400  0.96394200  0.47750500  1
  C  614  1  0.32654600  0.95216600  0.50206400  1
  C  615  1  0.31010600  0.93513100  0.51926000  1
  C  616  1  0.28240400  0.92867100  0.51202300  1
  C  617  1  0.27160100  0.93991900  0.48720000  1
  C  618  1  0.28779900  0.95736400  0.47039500  1
  C  619  1  0.31554500  0.03811200  0.41108100  1
  C  620  1  0.28777200  0.04467400  0.41817100  1
  C  621  1  0.27157200  0.06210100  0.40134800  1
  C  622  1  0.28238900  0.07334500  0.37653000  1
  C  623  1  0.31011000  0.06690700  0.36931600  1
  C  624  1  0.32655300  0.04989700  0.38653200  1
  C  637  1  0.89313300  0.28784400  0.53319800  1
  C  638  1  0.90419100  0.27226600  0.55548200  1
  C  639  1  0.88775100  0.25293800  0.56989600  1
  C  640  1  0.85985200  0.24813500  0.56208900  1
  C  641  1  0.84850600  0.26438700  0.54043900  1
  C  642  1  0.86489400  0.28396400  0.52621300  1
  C  643  1  0.84374300  0.22772700  0.57472900  1
  C  644  1  0.85280100  0.20174200  0.57954000  1
  C  645  1  0.83658400  0.18076300  0.59071900  1
  C  646  1  0.81285700  0.17096000  0.57652200  1
  C  647  1  0.79828600  0.14730200  0.58593000  1
  C  648  1  0.80811100  0.13305800  0.60962100  1
  C  649  1  0.83178600  0.14244700  0.62415600  1
  C  650  1  0.84600400  0.16616900  0.61435200  1
  C  651  1  0.84295600  0.12623900  0.64514300  1
  C  652  1  0.84774800  0.13531500  0.67110600  1
  C  653  1  0.86035500  0.11920500  0.69152500  1
  C  654  1  0.88206400  0.13051600  0.70771200  1
  C  655  1  0.85248600  0.09132500  0.69637200  1
  C  656  1  0.86687300  0.07487500  0.71571100  1
  C  657  1  0.88920000  0.08590400  0.73123800  1
  C  658  1  0.89623400  0.11413500  0.72733500  1
  C  659  1  0.77725500  0.13616400  0.56975900  1
  C  660  1  0.75136000  0.13112800  0.57892900  1
  C  661  1  0.73093400  0.11852000  0.56283600  1
  C  662  1  0.72589100  0.12660000  0.53506400  1
  C  663  1  0.71495500  0.09659200  0.57404200  1
  C  664  1  0.69535600  0.08241600  0.55765000  1
  C  665  1  0.69124600  0.08968500  0.52952400  1
  C  666  1  0.70656700  0.11221700  0.51860400  1
  C  688  1  0.06315600  0.71415200  0.53317300  1
  C  689  1  0.05207900  0.72973400  0.55544900  1
  C  690  1  0.06851100  0.74906000  0.56986500  1
  C  691  1  0.09642300  0.75385000  0.56207400  1
  C  692  1  0.10777900  0.73760100  0.54042400  1
  C  693  1  0.09140600  0.71800900  0.52621000  1
  C  694  1  0.11252600  0.77424600  0.57472800  1
  C  695  1  0.10347800  0.80024100  0.57950900  1
  C  696  1  0.11968800  0.82121600  0.59069500  1
  C  697  1  0.14343000  0.83099900  0.57649700  1
  C  698  1  0.15803500  0.85462900  0.58591600  1
  C  699  1  0.14821100  0.86885700  0.60962300  1
  C  700  1  0.12452700  0.85948300  0.62416800  1
  C  701  1  0.11028000  0.83579500  0.61434000  1
  C  702  1  0.11337800  0.87570700  0.64515400  1
  C  703  1  0.10859100  0.86663800  0.67112200  1
  C  704  1  0.09597700  0.88275700  0.69153700  1
  C  705  1  0.07425700  0.87146000  0.70773100  1
  C  706  1  0.10386100  0.91063400  0.69637600  1
  C  707  1  0.08947600  0.92709500  0.71571300  1
  C  708  1  0.06714400  0.91607800  0.73125500  1
  C  709  1  0.06007900  0.88785900  0.72733700  1
  C  710  1  0.17906000  0.86577900  0.56973500  1
  C  711  1  0.20495000  0.87083000  0.57889700  1
  C  712  1  0.22537500  0.88345500  0.56280500  1
  C  713  1  0.23041400  0.87541100  0.53502000  1
  C  714  1  0.24136300  0.90536200  0.57403000  1
  C  715  1  0.26093200  0.91958200  0.55762800  1
  C  716  1  0.26506200  0.91233100  0.52950000  1
  C  717  1  0.24974400  0.88980800  0.51856800  1
  C  739  1  0.89315200  0.71417500  0.35550100  1
  C  740  1  0.90423700  0.72974900  0.33322800  1
  C  741  1  0.88781200  0.74908900  0.31880300  1
  C  742  1  0.85989000  0.75387700  0.32656500  1
  C  743  1  0.84852100  0.73762000  0.34820200  1
  C  744  1  0.86489000  0.71802500  0.36243100  1
  C  745  1  0.84378600  0.77428500  0.31391200  1
  C  746  1  0.85283600  0.80026500  0.30909000  1
  C  747  1  0.83661600  0.82124600  0.29790100  1
  C  748  1  0.81285900  0.83103000  0.31208100  1
  C  749  1  0.79828800  0.85469100  0.30266100  1
  C  750  1  0.80810500  0.86891100  0.27895300  1
  C  751  1  0.83181300  0.85953200  0.26444300  1
  C  752  1  0.84603700  0.83580600  0.27424800  1
  C  753  1  0.84299500  0.87574100  0.24346400  1
  C  754  1  0.84777400  0.86668000  0.21749200  1
  C  755  1  0.86041200  0.88278900  0.19709200  1
  C  756  1  0.88212500  0.87146800  0.18089600  1
  C  757  1  0.85254400  0.91067600  0.19225100  1
  C  758  1  0.86695100  0.92712700  0.17292900  1
  C  759  1  0.88927700  0.91608800  0.15738500  1
  C  760  1  0.89633200  0.88786100  0.16131500  1
  C  761  1  0.77724700  0.86584400  0.31883000  1
  C  762  1  0.75134800  0.87085700  0.30966400  1
  C  763  1  0.73092200  0.88349800  0.32575200  1
  C  764  1  0.72585800  0.87542600  0.35352400  1
  C  765  1  0.71494900  0.90543300  0.31453700  1
  C  766  1  0.69535600  0.91963900  0.33092900  1
  C  767  1  0.69122400  0.91238000  0.35905600  1
  C  768  1  0.70653900  0.88984100  0.36998200  1
  C  790  1  0.06310200  0.28789700  0.35544100  1
  C  791  1  0.05203700  0.27232000  0.33316600  1
  C  792  1  0.06847300  0.25298500  0.31874500  1
  C  793  1  0.09638100  0.24817800  0.32653000  1
  C  794  1  0.10773300  0.26442600  0.34817500  1
  C  795  1  0.09135000  0.28401600  0.36240000  1
  C  796  1  0.11249300  0.22776400  0.31389200  1
  C  797  1  0.10344300  0.20178900  0.30905400  1
  C  798  1  0.11967100  0.18081600  0.29786200  1
  C  799  1  0.14340700  0.17100600  0.31204800  1
  C  800  1  0.15800500  0.14736200  0.30262600  1
  C  801  1  0.14817700  0.13313600  0.27893200  1
  C  802  1  0.12449100  0.14252200  0.26440000  1
  C  803  1  0.11025600  0.16623200  0.27422800  1
  C  804  1  0.11331400  0.12631000  0.24343100  1
  C  805  1  0.10852300  0.13537500  0.21746300  1
  C  806  1  0.09593000  0.11926100  0.19704600  1
  C  807  1  0.07424300  0.13058100  0.18082200  1
  C  808  1  0.10380600  0.09137400  0.19222400  1
  C  809  1  0.08943300  0.07492100  0.17288800  1
  C  810  1  0.06711500  0.08595200  0.15733300  1
  C  811  1  0.06007100  0.11418600  0.16122400  1
  C  812  1  0.17902800  0.13620000  0.31880100  1
  C  813  1  0.20492800  0.13115900  0.30963700  1
  C  814  1  0.22535500  0.11854000  0.32573100  1
  C  815  1  0.23038400  0.12660000  0.35351000  1
  C  816  1  0.24135100  0.09661800  0.31452000  1
  C  817  1  0.26095200  0.08243000  0.33091100  1
  C  818  1  0.26505600  0.08968400  0.35904200  1
  C  819  1  0.24970800  0.11220400  0.36996900  1
  N  2  1  0.01697000  0.98486800  0.36935700  1
  N  4  1  0.98089100  0.01717800  0.36935700  1
  N  6  1  0.99893100  0.00101400  0.32780800  1
  N  38  1  0.01697500  0.01717900  0.60659000  1
  N  40  1  0.98093300  0.98485100  0.60660000  1
  N  42  1  0.99896000  0.00100700  0.64814400  1
  N  74  1  0.01508700  0.38237600  0.97006900  1
  N  76  1  0.98263900  0.38237000  0.00598700  1
  N  78  1  0.99886500  0.34080600  0.98801300  1
  N  110  1  0.98264600  0.61967400  0.97010600  1
  N  112  1  0.01511400  0.61966500  0.00599000  1
  N  114  1  0.99888800  0.66123500  0.98803400  1
  N  146  1  0.61757600  0.98311400  0.97174200  1
  N  148  1  0.61757200  0.01903800  0.00420400  1
  N  150  1  0.65914600  0.00106900  0.98795700  1
  N  182  1  0.38021800  0.98308500  0.00421100  1
  N  184  1  0.38021500  0.01901000  0.97174500  1
  N  186  1  0.33864700  0.00102900  0.98795700  1
  N  422  1  0.99621898  0.98486800  0.82569400  1
  N  424  1  0.96014000  0.01717800  0.82569400  1
  N  426  1  0.97818000  0.00101400  0.78414500  1
  N  458  1  0.99622398  0.01717900  0.06292690  1
  N  460  1  0.96018200  0.98485100  0.06293690  1
  N  462  1  0.97820900  0.00100700  0.10448100  1
  N  494  1  0.99433598  0.38237600  0.42640600  1
  N  496  1  0.96188800  0.38237000  0.46232400  1
  N  498  1  0.97811400  0.34080600  0.44435000  1
  N  530  1  0.96189500  0.61967400  0.42644300  1
  N  532  1  0.99436298  0.61966500  0.46232700  1
  N  534  1  0.97813700  0.66123500  0.44437100  1
  N  566  1  0.59682500  0.98311400  0.42807900  1
  N  568  1  0.59682100  0.01903800  0.46054100  1
  N  570  1  0.63839500  0.00106900  0.44429400  1
  N  602  1  0.35946700  0.98308500  0.46054800  1
  N  604  1  0.35946400  0.01901000  0.42808200  1
  N  606  1  0.31789600  0.00102900  0.44429400  1
