# generated using pymatgen
data_H5(C3N)2
_symmetry_space_group_name_H-M   'P 1'
_cell_length_a   34.30440000
_cell_length_b   65.66765000
_cell_length_c   65.66760000
_cell_angle_alpha   119.99992444
_cell_angle_beta   90.00000000
_cell_angle_gamma   90.00000000
_symmetry_Int_Tables_number   1
_chemical_formula_structural   H5(C3N)2
_chemical_formula_sum   'H720 C864 N288'
_cell_volume   128110.11144361
_cell_formula_units_Z   144
loop_
 _symmetry_equiv_pos_site_id
 _symmetry_equiv_pos_as_xyz
  1  'x, y, z'
loop_
 _atom_site_type_symbol
 _atom_site_label
 _atom_site_symmetry_multiplicity
 _atom_site_fract_x
 _atom_site_fract_y
 _atom_site_fract_z
 _atom_site_occupancy
  H  7  1  0.95282800  0.70174700  0.07198500  1
  H  16  1  0.02437500  0.68193800  0.10405800  1
  H  19  1  0.97051900  0.66601400  0.11846300  1
  H  20  1  0.95206000  0.68529200  0.14425600  1
  H  21  1  0.92667400  0.63718300  0.03029800  1
  H  22  1  0.91253700  0.66027900  0.05525300  1
  H  23  1  0.05875500  0.60361500  0.02336100  1
  H  24  1  0.08995300  0.61879400  0.04455700  1
  H  25  1  0.85757600  0.73828600  0.14566000  1
  H  26  1  0.85568100  0.74587800  0.12548000  1
  H  37  1  0.95294900  0.48206400  0.29845100  1
  H  46  1  0.02443300  0.53406600  0.31836000  1
  H  49  1  0.97044600  0.56430900  0.33419800  1
  H  50  1  0.95193100  0.57081100  0.31492600  1
  H  51  1  0.92668600  0.50487600  0.36293000  1
  H  52  1  0.91258800  0.50676600  0.33984500  1
  H  53  1  0.05860700  0.53157000  0.39666300  1
  H  54  1  0.08989400  0.53760600  0.38154900  1
  H  55  1  0.85763400  0.51915400  0.26188300  1
  H  56  1  0.85568300  0.49139500  0.25427700  1
  H  67  1  0.95287200  0.92817300  0.51809900  1
  H  76  1  0.02434600  0.89605200  0.46617500  1
  H  79  1  0.97047500  0.88167700  0.43587400  1
  H  80  1  0.95209500  0.85587500  0.42938100  1
  H  81  1  0.92671600  0.96985700  0.49516300  1
  H  82  1  0.91254400  0.94489700  0.49328200  1
  H  83  1  0.05880800  0.97681900  0.46860700  1
  H  84  1  0.09001400  0.95562600  0.46258000  1
  H  85  1  0.85755400  0.85445700  0.48104700  1
  H  86  1  0.85563500  0.87466300  0.50878100  1
  H  97  1  0.45282200  0.37291700  0.85373600  1
  H  106  1  0.52441000  0.39266000  0.82166400  1
  H  109  1  0.47074400  0.40863800  0.80726000  1
  H  110  1  0.45238200  0.38933800  0.78144700  1
  H  111  1  0.42679600  0.43761500  0.89543400  1
  H  112  1  0.41260800  0.41449400  0.87051100  1
  H  113  1  0.55907400  0.47093700  0.90239100  1
  H  114  1  0.59029700  0.45565300  0.88125100  1
  H  115  1  0.35761000  0.33639600  0.78005300  1
  H  116  1  0.35570000  0.32882000  0.80024200  1
  H  127  1  0.45285400  0.59262800  0.62728400  1
  H  136  1  0.52437500  0.54073800  0.60745500  1
  H  139  1  0.47051600  0.51041100  0.59152800  1
  H  140  1  0.45205200  0.50389500  0.61080500  1
  H  141  1  0.42667400  0.56975900  0.56271600  1
  H  142  1  0.41254100  0.56789600  0.58580900  1
  H  143  1  0.55874400  0.54312600  0.52913900  1
  H  144  1  0.58993900  0.53709500  0.54430600  1
  H  145  1  0.35756600  0.55548400  0.66379400  1
  H  146  1  0.35567700  0.58325500  0.67138100  1
  H  157  1  0.45289200  0.14646400  0.40759900  1
  H  166  1  0.52443400  0.17856600  0.45958700  1
  H  169  1  0.47046400  0.19296900  0.48983800  1
  H  170  1  0.45195000  0.21874500  0.49634000  1
  H  171  1  0.42668800  0.10480900  0.43041900  1
  H  172  1  0.41258200  0.12978000  0.43230600  1
  H  173  1  0.55861300  0.09778000  0.45711100  1
  H  174  1  0.58990100  0.11892500  0.46313500  1
  H  175  1  0.35762700  0.22015000  0.44470500  1
  H  176  1  0.35566500  0.20000100  0.41694500  1
  H  187  1  0.15934600  0.59331600  0.85308500  1
  H  196  1  0.09006600  0.53832000  0.82052800  1
  H  199  1  0.14472700  0.51058700  0.80792600  1
  H  200  1  0.16298700  0.50390900  0.78206500  1
  H  201  1  0.18108100  0.57645900  0.89783300  1
  H  202  1  0.19750700  0.57167800  0.87215900  1
  H  203  1  0.04673400  0.55093800  0.90440300  1
  H  204  1  0.01950400  0.54043600  0.88099600  1
  H  205  1  0.25613300  0.55541400  0.77999700  1
  H  206  1  0.25808300  0.58321600  0.80004800  1
  H  217  1  0.15943100  0.14704700  0.62859200  1
  H  226  1  0.08992900  0.17955000  0.60630200  1
  H  229  1  0.14431900  0.19226200  0.59110800  1
  H  230  1  0.16262600  0.21811300  0.61027700  1
  H  231  1  0.18112800  0.10233600  0.56690400  1
  H  232  1  0.19751900  0.12796400  0.58790200  1
  H  233  1  0.04692000  0.09580800  0.53474900  1
  H  234  1  0.01940800  0.11908000  0.54793600  1
  H  235  1  0.25611200  0.22011200  0.66365100  1
  H  236  1  0.25805700  0.20009000  0.67146600  1
  H  247  1  0.15939600  0.37159300  0.40683600  1
  H  256  1  0.08999100  0.39398000  0.46172900  1
  H  259  1  0.14462800  0.40913700  0.48954300  1
  H  260  1  0.16299900  0.38998500  0.49623400  1
  H  261  1  0.18109600  0.43313400  0.42361800  1
  H  262  1  0.19750200  0.41221700  0.42836600  1
  H  263  1  0.04690900  0.46539200  0.44937000  1
  H  264  1  0.01956800  0.45238000  0.45971800  1
  H  265  1  0.25609800  0.33650900  0.44481000  1
  H  266  1  0.25801300  0.32869400  0.41697000  1
  H  277  1  0.65933500  0.48132500  0.07255900  1
  H  286  1  0.58995900  0.53631700  0.10508200  1
  H  289  1  0.64469200  0.56406100  0.11772900  1
  H  290  1  0.66310400  0.57074500  0.14356000  1
  H  291  1  0.68106400  0.49806300  0.02781600  1
  H  292  1  0.69745500  0.50283200  0.05348900  1
  H  293  1  0.54692400  0.52381000  0.02122800  1
  H  294  1  0.51956800  0.53422800  0.04457600  1
  H  295  1  0.75604900  0.51928800  0.14562900  1
  H  296  1  0.75802800  0.49145800  0.12564500  1
  H  307  1  0.65937600  0.92756400  0.29711100  1
  H  316  1  0.59007300  0.89500200  0.31954000  1
  H  319  1  0.64472700  0.88239100  0.33466400  1
  H  320  1  0.66297300  0.85652900  0.31547900  1
  H  321  1  0.68107600  0.97231000  0.35870800  1
  H  322  1  0.69751100  0.94663600  0.33782000  1
  H  323  1  0.54672200  0.97887400  0.39079200  1
  H  324  1  0.51949900  0.95546600  0.37788300  1
  H  325  1  0.75611600  0.85445000  0.26189400  1
  H  326  1  0.75806700  0.87450000  0.25414100  1
  H  337  1  0.65937900  0.70308700  0.51888700  1
  H  346  1  0.58992700  0.68078000  0.46408300  1
  H  349  1  0.64433400  0.66558300  0.43618100  1
  H  350  1  0.66264100  0.68475300  0.42949900  1
  H  351  1  0.68112800  0.64138900  0.50190600  1
  H  352  1  0.69751100  0.66239200  0.49728100  1
  H  353  1  0.54692700  0.60922600  0.47626900  1
  H  354  1  0.51941100  0.62241400  0.46618800  1
  H  355  1  0.75610700  0.73812700  0.48089000  1
  H  356  1  0.75803600  0.74593800  0.50872700  1
  H  367  1  0.15791800  0.37351600  0.85392000  1
  H  376  1  0.09218900  0.39212200  0.81877900  1
  H  379  1  0.16206900  0.41169800  0.80941500  1
  H  380  1  0.18456500  0.39276200  0.78489200  1
  H  381  1  0.18353000  0.43644900  0.89542200  1
  H  382  1  0.19897100  0.41349000  0.87078000  1
  H  383  1  0.05374200  0.47063300  0.89863500  1
  H  384  1  0.02328200  0.45568600  0.87705000  1
  H  385  1  0.25273100  0.32981600  0.77990000  1
  H  386  1  0.24935500  0.32164900  0.79961600  1
  H  397  1  0.15789400  0.59221500  0.62666100  1
  H  406  1  0.09217100  0.53845600  0.60806500  1
  H  409  1  0.16207500  0.50954200  0.58847200  1
  H  410  1  0.18460200  0.50394800  0.60739300  1
  H  411  1  0.18355000  0.57078100  0.56375200  1
  H  412  1  0.19897700  0.56909900  0.58671400  1
  H  413  1  0.05374400  0.53982500  0.52955700  1
  H  414  1  0.02330500  0.53312900  0.54446900  1
  H  415  1  0.25270500  0.56189400  0.67037400  1
  H  416  1  0.24936400  0.58977600  0.67856700  1
  H  427  1  0.15800800  0.14627700  0.40796200  1
  H  436  1  0.09226400  0.18144400  0.46174000  1
  H  439  1  0.16191100  0.19083000  0.49068100  1
  H  440  1  0.18440700  0.21536500  0.49631900  1
  H  441  1  0.18366100  0.10482600  0.42953400  1
  H  442  1  0.19910800  0.12947500  0.43123100  1
  H  443  1  0.05376200  0.10153800  0.46031000  1
  H  444  1  0.02334600  0.12316800  0.46705500  1
  H  445  1  0.25281500  0.22034500  0.43824600  1
  H  446  1  0.24953600  0.20052300  0.41040700  1
  H  457  1  0.65784000  0.70116200  0.07178500  1
  H  466  1  0.59226200  0.68251300  0.10694200  1
  H  469  1  0.66187700  0.66296700  0.11636400  1
  H  470  1  0.68434900  0.68191200  0.14087900  1
  H  471  1  0.68353300  0.63813800  0.03026800  1
  H  472  1  0.69896500  0.66114300  0.05487900  1
  H  473  1  0.55368400  0.60402700  0.02707400  1
  H  474  1  0.52325000  0.61898500  0.04867300  1
  H  475  1  0.75274600  0.74482400  0.14572700  1
  H  476  1  0.74932200  0.75298500  0.12600900  1
  H  487  1  0.65790900  0.48244900  0.29903800  1
  H  496  1  0.59218900  0.53620400  0.31765100  1
  H  499  1  0.66208400  0.56513600  0.33722200  1
  H  500  1  0.68459100  0.57071800  0.31828600  1
  H  501  1  0.68352400  0.50387000  0.36196400  1
  H  502  1  0.69896800  0.50556400  0.33901300  1
  H  503  1  0.55373900  0.53484500  0.39615400  1
  H  504  1  0.52329700  0.54151800  0.38122700  1
  H  505  1  0.75271700  0.51276400  0.25533000  1
  H  506  1  0.74933300  0.48488000  0.24716100  1
  H  517  1  0.65790100  0.92840600  0.51773600  1
  H  526  1  0.59216900  0.89324600  0.46398800  1
  H  529  1  0.66205800  0.88391600  0.43506000  1
  H  530  1  0.68457400  0.85939600  0.42946300  1
  H  531  1  0.68355300  0.96988000  0.49629200  1
  H  532  1  0.69898000  0.94523800  0.49461700  1
  H  533  1  0.55373600  0.97311800  0.46534900  1
  H  534  1  0.52327900  0.95152800  0.45869500  1
  H  535  1  0.75270900  0.85437200  0.48741000  1
  H  536  1  0.74937500  0.87406400  0.51529100  1
  H  547  1  0.95661000  0.48170900  0.07222600  1
  H  556  1  0.01992700  0.53884800  0.10798100  1
  H  559  1  0.95176500  0.56459700  0.11573400  1
  H  560  1  0.92927100  0.57044200  0.14032200  1
  H  561  1  0.93614000  0.49772600  0.02801800  1
  H  562  1  0.91810800  0.50215000  0.05323600  1
  H  563  1  0.06819700  0.52736100  0.02522900  1
  H  564  1  0.09398100  0.53922900  0.04918100  1
  H  565  1  0.86050900  0.51295500  0.14584000  1
  H  566  1  0.86360100  0.48505900  0.12613700  1
  H  577  1  0.95676600  0.92796100  0.29786900  1
  H  586  1  0.01999400  0.89225400  0.31921100  1
  H  589  1  0.95185100  0.88441700  0.33726900  1
  H  590  1  0.92935200  0.85985500  0.31848800  1
  H  591  1  0.93617400  0.97220200  0.35810900  1
  H  592  1  0.91817300  0.94702200  0.33722900  1
  H  593  1  0.06792600  0.97489300  0.39080400  1
  H  594  1  0.09402200  0.95106200  0.37841500  1
  H  595  1  0.86054300  0.85448500  0.25563300  1
  H  596  1  0.86377400  0.87408500  0.24729900  1
  H  607  1  0.95669800  0.70227800  0.51845200  1
  H  616  1  0.02004000  0.68093000  0.46139100  1
  H  619  1  0.95164600  0.66290200  0.43559800  1
  H  620  1  0.92912600  0.68167900  0.42980800  1
  H  621  1  0.93626600  0.64217400  0.50259300  1
  H  622  1  0.91822800  0.66296700  0.49817600  1
  H  623  1  0.06802300  0.60945800  0.47258500  1
  H  624  1  0.09398400  0.62169800  0.46093900  1
  H  625  1  0.86060600  0.74458100  0.48718200  1
  H  626  1  0.86379900  0.75292200  0.51512000  1
  H  637  1  0.45671100  0.59293800  0.85352400  1
  H  646  1  0.52005500  0.53589800  0.81780300  1
  H  649  1  0.45167000  0.51009800  0.81007600  1
  H  650  1  0.42911900  0.50429300  0.78551400  1
  H  651  1  0.43622600  0.57705700  0.89775600  1
  H  652  1  0.41820800  0.57266700  0.87255000  1
  H  653  1  0.56806400  0.54710000  0.90047900  1
  H  654  1  0.59403700  0.53547400  0.87659700  1
  H  655  1  0.36063000  0.56164800  0.77993400  1
  H  656  1  0.36377500  0.58958500  0.79950600  1
  H  667  1  0.45660900  0.14670200  0.62784400  1
  H  676  1  0.51993000  0.18245900  0.60644500  1
  H  679  1  0.45177500  0.19021300  0.58846800  1
  H  680  1  0.42928800  0.21480300  0.60721300  1
  H  681  1  0.43615100  0.10249100  0.56762700  1
  H  682  1  0.41812100  0.12771200  0.58842200  1
  H  683  1  0.56819800  0.09969900  0.53519200  1
  H  684  1  0.59397000  0.12365500  0.54725400  1
  H  685  1  0.36050400  0.22031600  0.67020800  1
  H  686  1  0.36358800  0.20060900  0.67839600  1
  H  697  1  0.45676900  0.37234300  0.40723700  1
  H  706  1  0.51998800  0.39369200  0.46429800  1
  H  709  1  0.45182500  0.41174400  0.49018000  1
  H  710  1  0.42931500  0.39296300  0.49595600  1
  H  711  1  0.43618600  0.43257900  0.42323400  1
  H  712  1  0.41818200  0.41170000  0.42753500  1
  H  713  1  0.56791800  0.46529000  0.45325800  1
  H  714  1  0.59399300  0.45292200  0.46473100  1
  H  715  1  0.36055100  0.33010000  0.43847300  1
  H  716  1  0.36378100  0.32176900  0.41054000  1
  H  731  1  0.93358000  0.78728700  0.25598000  1
  H  732  1  0.92769900  0.74891100  0.22330600  1
  H  734  1  0.89196500  0.77902200  0.13663900  1
  H  735  1  0.89326200  0.80940000  0.14964000  1
  H  736  1  0.84756400  0.79507900  0.14575500  1
  H  738  1  0.85624500  0.83954600  0.17933900  1
  H  739  1  0.88861800  0.85428100  0.20330800  1
  H  740  1  0.83993300  0.84818900  0.20783500  1
  H  742  1  0.94900400  0.83305900  0.24782900  1
  H  744  1  0.90996800  0.72220800  0.18440900  1
  H  755  1  0.93357400  0.58050400  0.21291100  1
  H  756  1  0.92765400  0.58620500  0.25128100  1
  H  758  1  0.89199500  0.46941900  0.22116000  1
  H  759  1  0.89326000  0.45203900  0.19078500  1
  H  760  1  0.84757700  0.46248900  0.20512000  1
  H  762  1  0.85630600  0.45158700  0.16063100  1
  H  763  1  0.88864700  0.46083300  0.14589200  1
  H  764  1  0.83996000  0.47144600  0.15200500  1
  H  766  1  0.94900900  0.52656100  0.16717300  1
  H  768  1  0.90988900  0.57400400  0.27797600  1
  H  779  1  0.93358900  0.74422400  0.41968200  1
  H  780  1  0.92765400  0.77689000  0.41396900  1
  H  782  1  0.89202800  0.86356200  0.53075200  1
  H  783  1  0.89329600  0.85056900  0.54813900  1
  H  784  1  0.84760900  0.85446600  0.53770000  1
  H  786  1  0.85626900  0.82087500  0.54858900  1
  H  787  1  0.88863800  0.79690400  0.53935900  1
  H  788  1  0.83995500  0.79238100  0.52873800  1
  H  790  1  0.94896800  0.75241200  0.47364700  1
  H  792  1  0.90979600  0.81578500  0.42615400  1
  H  803  1  0.43358200  0.28739800  0.66975200  1
  H  804  1  0.42767100  0.32576500  0.70242500  1
  H  806  1  0.39188500  0.29564400  0.78907900  1
  H  807  1  0.39326400  0.26526900  0.77608400  1
  H  808  1  0.34753200  0.27954400  0.77992700  1
  H  810  1  0.35632100  0.23509100  0.74636400  1
  H  811  1  0.38865200  0.22035700  0.72237500  1
  H  812  1  0.33996200  0.22647100  0.71788400  1
  H  814  1  0.44901200  0.24165100  0.67794000  1
  H  816  1  0.40982200  0.35246900  0.74131100  1
  H  827  1  0.43359100  0.49415600  0.71279000  1
  H  828  1  0.42768500  0.48845300  0.67441400  1
  H  830  1  0.39196400  0.60523500  0.70453100  1
  H  831  1  0.39327300  0.62261200  0.73490900  1
  H  832  1  0.34757000  0.61217900  0.72059500  1
  H  834  1  0.35626900  0.62306400  0.76505800  1
  H  835  1  0.38861700  0.61382300  0.77979700  1
  H  836  1  0.33993000  0.60320900  0.77369000  1
  H  838  1  0.44895100  0.54812300  0.75857400  1
  H  840  1  0.40992100  0.50064600  0.64770200  1
  H  851  1  0.43358200  0.33045200  0.50601600  1
  H  852  1  0.42769400  0.29778400  0.51172500  1
  H  854  1  0.39200200  0.21110900  0.39494800  1
  H  855  1  0.39327300  0.22410800  0.37757000  1
  H  856  1  0.34758500  0.22021100  0.38800800  1
  H  858  1  0.35624800  0.25380200  0.37712000  1
  H  859  1  0.38863200  0.27776500  0.38634800  1
  H  860  1  0.33994700  0.28230100  0.39697000  1
  H  862  1  0.44900600  0.32229600  0.45209100  1
  H  864  1  0.40990600  0.25888700  0.49954700  1
  H  875  1  0.17989700  0.49414300  0.66979600  1
  H  876  1  0.18580600  0.48845500  0.70248100  1
  H  878  1  0.22143200  0.60523100  0.78908900  1
  H  879  1  0.22010800  0.62262100  0.77610600  1
  H  880  1  0.26582200  0.61220500  0.78000000  1
  H  882  1  0.25717900  0.62306600  0.74641800  1
  H  883  1  0.22478700  0.61384500  0.72246100  1
  H  884  1  0.27346900  0.60321400  0.71791900  1
  H  886  1  0.16448000  0.54802600  0.67786800  1
  H  888  1  0.20371700  0.50066100  0.74136300  1
  H  899  1  0.17988900  0.33038100  0.71270800  1
  H  900  1  0.18577100  0.29769100  0.67434000  1
  H  902  1  0.22153900  0.21108700  0.70451400  1
  H  903  1  0.22012800  0.22408300  0.73488800  1
  H  904  1  0.26588100  0.22022200  0.72062400  1
  H  906  1  0.25717900  0.25378700  0.76503700  1
  H  907  1  0.22477500  0.27773800  0.77976000  1
  H  908  1  0.27345700  0.28228700  0.77368100  1
  H  910  1  0.16447400  0.32232000  0.75852300  1
  H  912  1  0.20355300  0.25880100  0.64766100  1
  H  923  1  0.17990600  0.28745900  0.50604900  1
  H  924  1  0.18578900  0.32582100  0.51172100  1
  H  926  1  0.22153100  0.29564000  0.39494000  1
  H  927  1  0.22014900  0.26526800  0.37756200  1
  H  928  1  0.26588700  0.27954400  0.38798000  1
  H  930  1  0.25714400  0.23511600  0.37711900  1
  H  931  1  0.22476600  0.22038700  0.38635600  1
  H  932  1  0.27345100  0.22648700  0.39698000  1
  H  934  1  0.16443600  0.24168100  0.45219100  1
  H  936  1  0.20351500  0.35250200  0.49950300  1
  H  947  1  0.67988600  0.58051900  0.25589600  1
  H  948  1  0.68576600  0.58620000  0.22320700  1
  H  950  1  0.72146000  0.46941400  0.13660600  1
  H  951  1  0.72013400  0.45203900  0.14960500  1
  H  952  1  0.76584900  0.46245600  0.14571300  1
  H  954  1  0.75719900  0.45160400  0.17929900  1
  H  955  1  0.72478600  0.46082400  0.20324500  1
  H  956  1  0.77346500  0.47146300  0.20780200  1
  H  958  1  0.66447700  0.52664000  0.24783200  1
  H  960  1  0.70356300  0.57399000  0.18431500  1
  H  971  1  0.67989200  0.74425300  0.21295100  1
  H  972  1  0.68578100  0.77693600  0.25132400  1
  H  974  1  0.72143100  0.86354900  0.22116900  1
  H  975  1  0.72012300  0.85056300  0.19079400  1
  H  976  1  0.76583200  0.85446100  0.20511300  1
  H  978  1  0.75721300  0.82087300  0.16066500  1
  H  979  1  0.72478400  0.79693500  0.14593200  1
  H  980  1  0.77345900  0.79236200  0.15200200  1
  H  982  1  0.66443000  0.75229400  0.16714300  1
  H  984  1  0.70369400  0.81581700  0.27800700  1
  H  995  1  0.67988900  0.78718600  0.41966200  1
  H  996  1  0.68577200  0.74881800  0.41398400  1
  H  998  1  0.72153200  0.77899800  0.53076400  1
  H  999  1  0.72013500  0.80937000  0.54813900  1
  H  1000  1  0.76588200  0.79509900  0.53773500  1
  H  1002  1  0.75718000  0.83951500  0.54858500  1
  H  1003  1  0.72479300  0.85424100  0.53935100  1
  H  1004  1  0.77348000  0.84815100  0.52872600  1
  H  1006  1  0.66448300  0.83300300  0.47353900  1
  H  1008  1  0.70357100  0.72214000  0.42619800  1
  H  1019  1  0.84944100  0.70925800  0.08322800  1
  H  1020  1  0.78228300  0.70160200  0.07819900  1
  H  1022  1  0.71513000  0.79215800  0.06380500  1
  H  1023  1  0.75101800  0.79648300  0.04698800  1
  H  1024  1  0.74710200  0.81646300  0.07775300  1
  H  1026  1  0.81570900  0.81580200  0.06246700  1
  H  1027  1  0.85525500  0.79596000  0.05177600  1
  H  1028  1  0.85182600  0.81692600  0.08219000  1
  H  1030  1  0.89876000  0.75853800  0.08249000  1
  H  1032  1  0.72360900  0.70746200  0.05956600  1
  H  1043  1  0.84952600  0.48573300  0.29095200  1
  H  1044  1  0.78239700  0.48831200  0.29868500  1
  H  1046  1  0.71515900  0.38344900  0.20804800  1
  H  1047  1  0.75105400  0.36231000  0.20371500  1
  H  1048  1  0.74710100  0.37308400  0.18372800  1
  H  1050  1  0.81572200  0.35846500  0.18437700  1
  H  1051  1  0.85528300  0.36762200  0.20420800  1
  H  1052  1  0.85183300  0.37705200  0.18323000  1
  H  1054  1  0.89882100  0.43575900  0.24164300  1
  H  1056  1  0.72302400  0.46390500  0.29274800  1
  H  1067  1  0.84949700  0.91703700  0.51445500  1
  H  1068  1  0.78238200  0.92219500  0.51188500  1
  H  1070  1  0.71515600  0.93640900  0.61674100  1
  H  1071  1  0.75105300  0.95321500  0.63788000  1
  H  1072  1  0.74709600  0.92245400  0.62710500  1
  H  1074  1  0.81571900  0.93772100  0.64172500  1
  H  1075  1  0.85528300  0.94839100  0.63256500  1
  H  1076  1  0.85182700  0.91798300  0.62313700  1
  H  1078  1  0.89880900  0.91762200  0.56439700  1
  H  1080  1  0.72300200  0.94065400  0.53629300  1
  H  1091  1  0.34952600  0.36543100  0.84256600  1
  H  1092  1  0.28240300  0.37317000  0.84772900  1
  H  1094  1  0.21515000  0.28251800  0.86192700  1
  H  1095  1  0.25104000  0.27818300  0.87873300  1
  H  1096  1  0.24709300  0.25820000  0.84796900  1
  H  1098  1  0.31571100  0.25884500  0.86324300  1
  H  1099  1  0.35527200  0.27867700  0.87392000  1
  H  1100  1  0.35182600  0.25770200  0.84351000  1
  H  1102  1  0.39880300  0.31607000  0.84315600  1
  H  1104  1  0.22301400  0.36722400  0.86618400  1
  H  1115  1  0.34954100  0.58895000  0.63475100  1
  H  1116  1  0.28241500  0.58636400  0.62701100  1
  H  1118  1  0.21514100  0.69121100  0.71766400  1
  H  1119  1  0.25103100  0.71235400  0.72200000  1
  H  1120  1  0.24708100  0.70157300  0.74198200  1
  H  1122  1  0.31569900  0.71620100  0.74134000  1
  H  1123  1  0.35526300  0.70704900  0.72151000  1
  H  1124  1  0.35181400  0.69761400  0.74248500  1
  H  1126  1  0.39880300  0.63891100  0.68410200  1
  H  1128  1  0.22301400  0.61075600  0.63295400  1
  H  1139  1  0.34936000  0.15772300  0.41131800  1
  H  1140  1  0.28220200  0.15261000  0.41388600  1
  H  1142  1  0.21514400  0.13825000  0.30894400  1
  H  1143  1  0.25105700  0.12144200  0.28781800  1
  H  1144  1  0.24710500  0.15220300  0.29858900  1
  H  1146  1  0.31574000  0.13693900  0.28399600  1
  H  1147  1  0.35528600  0.12627300  0.29317300  1
  H  1148  1  0.35183200  0.15668000  0.30260000  1
  H  1150  1  0.39873300  0.15695200  0.36130600  1
  H  1152  1  0.22346600  0.13394100  0.38932900  1
  H  1163  1  0.26375900  0.58904900  0.84248000  1
  H  1164  1  0.33088700  0.58640600  0.84768900  1
  H  1166  1  0.39844100  0.69126600  0.86196300  1
  H  1167  1  0.36256500  0.71242400  0.87876700  1
  H  1168  1  0.36651800  0.70163300  0.84800200  1
  H  1170  1  0.29789400  0.71630500  0.86328500  1
  H  1171  1  0.25830700  0.70714800  0.87394200  1
  H  1172  1  0.26179400  0.69771600  0.84353400  1
  H  1174  1  0.21489900  0.63902300  0.84276200  1
  H  1176  1  0.39052400  0.61060400  0.86594700  1
  H  1187  1  0.26389000  0.15776800  0.63497000  1
  H  1188  1  0.33105300  0.15261100  0.62716600  1
  H  1190  1  0.39846100  0.13822300  0.71770900  1
  H  1191  1  0.36257100  0.12141900  0.72205400  1
  H  1192  1  0.36651500  0.15218300  0.74202600  1
  H  1194  1  0.29788200  0.13690100  0.74139500  1
  H  1195  1  0.25831000  0.12624100  0.72156900  1
  H  1196  1  0.26179400  0.15664900  0.74253900  1
  H  1198  1  0.21498300  0.15738100  0.68460200  1
  H  1200  1  0.39008100  0.13417300  0.63306300  1
  H  1211  1  0.26381100  0.36521300  0.41118500  1
  H  1212  1  0.33098000  0.37298500  0.41388200  1
  H  1214  1  0.39845300  0.28248100  0.30892900  1
  H  1215  1  0.36258800  0.27813700  0.28776900  1
  H  1216  1  0.36649800  0.25816800  0.29856800  1
  H  1218  1  0.29789100  0.25879500  0.28389400  1
  H  1219  1  0.25832200  0.27862200  0.29303800  1
  H  1220  1  0.26177900  0.25766000  0.30249000  1
  H  1222  1  0.21493100  0.31559800  0.36113700  1
  H  1224  1  0.38993500  0.36712000  0.38960600  1
  H  1235  1  0.76389500  0.48567100  0.08331500  1
  H  1236  1  0.83106500  0.48831300  0.07816000  1
  H  1238  1  0.89844500  0.38336900  0.06374500  1
  H  1239  1  0.86255200  0.36222600  0.04694000  1
  H  1240  1  0.86649900  0.37301100  0.07770400  1
  H  1242  1  0.79786400  0.35836900  0.06242600  1
  H  1243  1  0.75829500  0.36753800  0.05176700  1
  H  1244  1  0.76177800  0.37697000  0.08217500  1
  H  1246  1  0.71496000  0.43563300  0.08285600  1
  H  1248  1  0.89007100  0.46397100  0.05970700  1
  H  1259  1  0.76384900  0.91686100  0.29072900  1
  H  1260  1  0.83100900  0.92194600  0.29849700  1
  H  1262  1  0.89844400  0.93641600  0.20800600  1
  H  1263  1  0.86257300  0.95323100  0.20366400  1
  H  1264  1  0.86649100  0.92246400  0.18369200  1
  H  1266  1  0.79787900  0.93776100  0.18432200  1
  H  1267  1  0.75830900  0.94843600  0.20414800  1
  H  1268  1  0.76177500  0.91802500  0.18318100  1
  H  1270  1  0.71493300  0.91726300  0.24110200  1
  H  1272  1  0.88994600  0.94037000  0.29263000  1
  H  1283  1  0.76372700  0.70942100  0.51458700  1
  H  1284  1  0.83086400  0.70156400  0.51193000  1
  H  1286  1  0.89844900  0.79215900  0.61678600  1
  H  1287  1  0.86257800  0.79651700  0.63794700  1
  H  1288  1  0.86652300  0.81648600  0.62715100  1
  H  1290  1  0.79790400  0.81587900  0.64183000  1
  H  1291  1  0.75831900  0.79606200  0.63267900  1
  H  1292  1  0.76179800  0.81703400  0.62324100  1
  H  1294  1  0.71490400  0.75911700  0.56457400  1
  H  1296  1  0.89051300  0.70750300  0.53611800  1
  H  1307  1  0.02576000  0.57667100  0.98359100  1
  H  1308  1  0.07316500  0.55575200  0.95386500  1
  H  1310  1  0.12039500  0.63644000  0.92045700  1
  H  1311  1  0.11620900  0.66498400  0.94524000  1
  H  1312  1  0.07820200  0.65337300  0.92394700  1
  H  1314  1  0.05256100  0.68440800  0.96435800  1
  H  1315  1  0.04444200  0.68652800  0.99192000  1
  H  1316  1  0.00706500  0.67588500  0.97035000  1
  H  1318  1  0.00754600  0.64025000  0.00807800  1
  H  1320  1  0.11292900  0.55177800  0.92173300  1
  H  1331  1  0.02576500  0.51869500  0.42350000  1
  H  1332  1  0.07319100  0.50988300  0.44441300  1
  H  1334  1  0.12040600  0.39579500  0.36371000  1
  H  1335  1  0.11620900  0.39204400  0.33517100  1
  H  1336  1  0.07821700  0.38235000  0.34677700  1
  H  1338  1  0.05256100  0.39173700  0.31575000  1
  H  1339  1  0.04443100  0.41718600  0.31364500  1
  H  1340  1  0.00705700  0.40624200  0.32427300  1
  H  1342  1  0.00790200  0.47968400  0.35989600  1
  H  1344  1  0.11335200  0.48168100  0.44838300  1
  H  1355  1  0.02582100  0.01659700  0.48146900  1
  H  1356  1  0.07321400  0.04633900  0.49029100  1
  H  1358  1  0.12040400  0.07975100  0.60438700  1
  H  1359  1  0.11622000  0.05496000  0.60813700  1
  H  1360  1  0.07822200  0.07625700  0.61783600  1
  H  1362  1  0.05257300  0.03584900  0.60845100  1
  H  1363  1  0.04446300  0.00828700  0.58300300  1
  H  1364  1  0.00707100  0.02985100  0.59393900  1
  H  1366  1  0.00780000  0.99213700  0.52056100  1
  H  1368  1  0.11339300  0.07850700  0.51848700  1
  H  1379  1  0.52566100  0.49802100  0.94218300  1
  H  1380  1  0.57319100  0.51888700  0.97184400  1
  H  1382  1  0.62035200  0.43821300  0.00525500  1
  H  1383  1  0.61619500  0.40966600  0.98047600  1
  H  1384  1  0.57816200  0.42127400  0.00174900  1
  H  1386  1  0.55256400  0.39023400  0.96133600  1
  H  1387  1  0.54446900  0.38809900  0.93376400  1
  H  1388  1  0.50707400  0.39875000  0.95532600  1
  H  1390  1  0.50646200  0.43446600  0.91787700  1
  H  1392  1  0.61330600  0.52280600  0.00387500  1
  H  1403  1  0.52576900  0.55596800  0.50219700  1
  H  1404  1  0.57319100  0.56478100  0.48128200  1
  H  1406  1  0.62040700  0.67887200  0.56198100  1
  H  1407  1  0.61622700  0.68261600  0.59051900  1
  H  1408  1  0.57822600  0.69231800  0.57892500  1
  H  1410  1  0.55259100  0.68292400  0.60994900  1
  H  1411  1  0.54446900  0.65747300  0.61205300  1
  H  1412  1  0.50708300  0.66842000  0.60143300  1
  H  1414  1  0.50768700  0.59503000  0.56578500  1
  H  1416  1  0.61339900  0.59296900  0.47731600  1
  H  1427  1  0.52575100  0.05807700  0.44425000  1
  H  1428  1  0.57313600  0.02833700  0.43544000  1
  H  1430  1  0.62038700  0.99493400  0.32134600  1
  H  1431  1  0.61620000  0.01971900  0.31758900  1
  H  1432  1  0.57819700  0.99842500  0.30790200  1
  H  1434  1  0.55255600  0.03883700  0.31728000  1
  H  1435  1  0.54444000  0.06640000  0.34272400  1
  H  1436  1  0.50705700  0.04483200  0.33179600  1
  H  1438  1  0.50783500  0.08264200  0.40521500  1
  H  1440  1  0.61290600  0.99620700  0.40728600  1
  H  1451  1  0.08261000  0.49739900  0.93999400  1
  H  1452  1  0.04049500  0.51959200  0.97249500  1
  H  1454  1  0.99533000  0.43877300  0.00612500  1
  H  1455  1  0.99818100  0.41047700  0.98088100  1
  H  1456  1  0.03698000  0.42113500  0.00167100  1
  H  1458  1  0.06140200  0.39062600  0.96116900  1
  H  1459  1  0.06747200  0.38840700  0.93341600  1
  H  1460  1  0.10633000  0.39865200  0.95401100  1
  H  1462  1  0.08741100  0.43449300  0.91244700  1
  H  1464  1  0.00206600  0.52398900  0.00525500  1
  H  1475  1  0.08265000  0.55441600  0.50279000  1
  H  1476  1  0.04051900  0.56471700  0.48059600  1
  H  1478  1  0.99532300  0.67916100  0.56141100  1
  H  1479  1  0.99816100  0.68220300  0.58970100  1
  H  1480  1  0.03695600  0.69235400  0.57905900  1
  H  1482  1  0.06137300  0.68235700  0.60956700  1
  H  1483  1  0.06745100  0.65681800  0.61177700  1
  H  1484  1  0.10630900  0.66718600  0.60155100  1
  H  1486  1  0.08734900  0.58976200  0.56568900  1
  H  1488  1  0.00166700  0.59308900  0.47622100  1
  H  1499  1  0.08262400  0.06018600  0.44576500  1
  H  1500  1  0.04051000  0.02768100  0.43546300  1
  H  1502  1  0.99531200  0.99404000  0.32101600  1
  H  1503  1  0.99815200  0.01929500  0.31798200  1
  H  1504  1  0.03693900  0.99849300  0.30781700  1
  H  1506  1  0.06136700  0.03899700  0.31781800  1
  H  1507  1  0.06744800  0.06674400  0.34335800  1
  H  1508  1  0.10630900  0.04615200  0.33298400  1
  H  1510  1  0.08712500  0.08770400  0.41043400  1
  H  1512  1  0.00159100  0.99495400  0.40710200  1
  H  1523  1  0.58270600  0.57727600  0.98570000  1
  H  1524  1  0.54056900  0.55508100  0.95321300  1
  H  1526  1  0.49532700  0.63587200  0.91956500  1
  H  1527  1  0.49814600  0.66416900  0.94481200  1
  H  1528  1  0.53695400  0.65352700  0.92402500  1
  H  1530  1  0.56134500  0.68404800  0.96453400  1
  H  1531  1  0.56741700  0.68626600  0.99228600  1
  H  1532  1  0.60628300  0.67603900  0.97169700  1
  H  1534  1  0.58779600  0.64025200  0.01322500  1
  H  1536  1  0.50177500  0.55072400  0.92054600  1
  H  1547  1  0.58263300  0.52024100  0.42293000  1
  H  1548  1  0.54051000  0.50993200  0.44512200  1
  H  1550  1  0.49533000  0.39549000  0.36429900  1
  H  1551  1  0.49816000  0.39245700  0.33601000  1
  H  1552  1  0.53696000  0.38230000  0.34664400  1
  H  1554  1  0.56136800  0.39230700  0.31614300  1
  H  1555  1  0.56743700  0.41784900  0.31393700  1
  H  1556  1  0.60630400  0.40748000  0.32415700  1
  H  1558  1  0.58735300  0.48490000  0.36003200  1
  H  1560  1  0.50157100  0.48157000  0.44947100  1
  H  1571  1  0.58261600  0.01446200  0.47992500  1
  H  1572  1  0.54050500  0.04696500  0.49023100  1
  H  1574  1  0.49533000  0.08059900  0.60468000  1
  H  1575  1  0.49818100  0.05535700  0.60773400  1
  H  1576  1  0.53697700  0.07614900  0.61786700  1
  H  1578  1  0.56140300  0.03564600  0.60787700  1
  H  1579  1  0.56747500  0.00789300  0.58234300  1
  H  1580  1  0.60633000  0.02849000  0.59269600  1
  H  1582  1  0.58738500  0.98691800  0.51528400  1
  H  1584  1  0.50207200  0.07972500  0.51859400  1
  H  1595  1  0.13443400  0.61482400  0.07664500  1
  H  1596  1  0.13823800  0.57652700  0.07225400  1
  H  1598  1  0.00420600  0.58578200  0.15467200  1
  H  1599  1  0.96550600  0.60507200  0.15767200  1
  H  1600  1  0.00670400  0.61583300  0.17638100  1
  H  1602  1  0.97002500  0.64677900  0.17112400  1
  H  1603  1  0.95819300  0.64864800  0.14597300  1
  H  1604  1  0.99567600  0.66656800  0.16535600  1
  H  1606  1  0.08202900  0.66376400  0.11812200  1
  H  1608  1  0.12602400  0.55969400  0.10301700  1
  H  1619  1  0.13455300  0.57360900  0.38525700  1
  H  1620  1  0.13829900  0.60747000  0.42357600  1
  H  1622  1  0.00425800  0.68064700  0.41439600  1
  H  1623  1  0.96549700  0.66438900  0.39514300  1
  H  1624  1  0.00670400  0.67228400  0.38434000  1
  H  1626  1  0.97006600  0.63613400  0.35338900  1
  H  1627  1  0.95805700  0.60915800  0.35156700  1
  H  1628  1  0.99559100  0.61051800  0.33361600  1
  H  1630  1  0.08119300  0.56650100  0.33656600  1
  H  1632  1  0.12605300  0.65502700  0.44041500  1
  H  1643  1  0.13434600  0.92362900  0.42662300  1
  H  1644  1  0.13814200  0.92802900  0.39272900  1
  H  1646  1  0.00423500  0.84555100  0.31951900  1
  H  1647  1  0.96554800  0.84251000  0.33578900  1
  H  1648  1  0.00679400  0.82383900  0.32785500  1
  H  1650  1  0.97015900  0.82902900  0.36403300  1
  H  1651  1  0.95817400  0.85417100  0.39102300  1
  H  1652  1  0.99574000  0.83486400  0.38963100  1
  H  1654  1  0.08120200  0.88206500  0.43397800  1
  H  1656  1  0.12605000  0.89723100  0.34516400  1
  H  1667  1  0.63427100  0.45986600  0.84913700  1
  H  1668  1  0.63818900  0.49814400  0.85349700  1
  H  1670  1  0.50427600  0.48890000  0.77101100  1
  H  1671  1  0.46552300  0.46965900  0.76804900  1
  H  1672  1  0.50669500  0.45883900  0.74932300  1
  H  1674  1  0.46991300  0.42795900  0.75463800  1
  H  1675  1  0.45822400  0.42599600  0.77975100  1
  H  1676  1  0.49570000  0.40814500  0.76030900  1
  H  1678  1  0.58157800  0.41096200  0.80767700  1
  H  1680  1  0.62609400  0.51496800  0.82272200  1
  H  1691  1  0.63440800  0.50104600  0.54033400  1
  H  1692  1  0.63820600  0.46715300  0.50203200  1
  H  1694  1  0.50419400  0.39396200  0.51127800  1
  H  1695  1  0.46551400  0.41024800  0.53058500  1
  H  1696  1  0.50673000  0.40229200  0.54132500  1
  H  1698  1  0.47004700  0.43849900  0.57228800  1
  H  1699  1  0.45821200  0.46552300  0.57416700  1
  H  1700  1  0.49570600  0.46405100  0.59207500  1
  H  1702  1  0.58201800  0.50848900  0.58927100  1
  H  1704  1  0.62608300  0.41958000  0.48520900  1
  H  1715  1  0.63456800  0.15122600  0.49914300  1
  H  1716  1  0.63830000  0.14677500  0.53301000  1
  H  1718  1  0.50420900  0.22910400  0.60615600  1
  H  1719  1  0.46549100  0.23213500  0.58989600  1
  H  1720  1  0.50673000  0.25080900  0.59781200  1
  H  1722  1  0.47010000  0.24563100  0.56165300  1
  H  1723  1  0.45803700  0.22046400  0.53469600  1
  H  1724  1  0.49557700  0.23975000  0.53601100  1
  H  1726  1  0.58120800  0.19279900  0.49201900  1
  H  1728  1  0.62599200  0.17749200  0.58057400  1
  H  1739  1  0.97919000  0.50094600  0.84921800  1
  H  1740  1  0.97516600  0.46713800  0.85371200  1
  H  1742  1  0.10893300  0.39363500  0.77092800  1
  H  1743  1  0.14754300  0.40987300  0.76775700  1
  H  1744  1  0.10602100  0.40212200  0.74933600  1
  H  1746  1  0.14337700  0.43834400  0.75473800  1
  H  1747  1  0.15500300  0.46543400  0.77985700  1
  H  1748  1  0.11743600  0.46379800  0.76045400  1
  H  1750  1  0.03353400  0.50818000  0.80780400  1
  H  1752  1  0.98705700  0.41985300  0.82416600  1
  H  1763  1  0.97930000  0.15095100  0.54007600  1
  H  1764  1  0.97518600  0.14650700  0.50179400  1
  H  1766  1  0.10897400  0.22930300  0.51108300  1
  H  1767  1  0.14754600  0.23250000  0.53052400  1
  H  1768  1  0.10600300  0.25089900  0.54116000  1
  H  1770  1  0.14352000  0.24542300  0.57194400  1
  H  1771  1  0.15496500  0.22032000  0.57398000  1
  H  1772  1  0.11744800  0.23980000  0.59170500  1
  H  1774  1  0.03305900  0.19228700  0.58874300  1
  H  1776  1  0.98708500  0.17604500  0.48402400  1
  H  1787  1  0.97918300  0.46006600  0.49927000  1
  H  1788  1  0.97513400  0.49837300  0.53307700  1
  H  1790  1  0.10896800  0.48912600  0.60658800  1
  H  1791  1  0.14757500  0.46971700  0.59033500  1
  H  1792  1  0.10608200  0.45904800  0.59811100  1
  H  1794  1  0.14349700  0.42825100  0.56186100  1
  H  1795  1  0.15496500  0.42623800  0.53473400  1
  H  1796  1  0.11747100  0.40848500  0.53645800  1
  H  1798  1  0.03286100  0.41139800  0.49196000  1
  H  1800  1  0.98702500  0.51616000  0.58037400  1
  H  1811  1  0.47905200  0.57375500  0.07661000  1
  H  1812  1  0.47509900  0.60753500  0.07206800  1
  H  1814  1  0.60902900  0.68098700  0.15473700  1
  H  1815  1  0.64758400  0.66475500  0.15797200  1
  H  1816  1  0.60600900  0.67253200  0.17635100  1
  H  1818  1  0.64335400  0.63630500  0.17100000  1
  H  1819  1  0.65511100  0.60926100  0.14585500  1
  H  1820  1  0.61753600  0.61078800  0.16520300  1
  H  1822  1  0.53346500  0.56676200  0.11807300  1
  H  1824  1  0.48710000  0.65480500  0.10157400  1
  H  1835  1  0.47918900  0.92369000  0.38559600  1
  H  1836  1  0.47516000  0.92818700  0.42390000  1
  H  1838  1  0.60893300  0.84541000  0.41462900  1
  H  1839  1  0.64754600  0.84223800  0.39521800  1
  H  1840  1  0.60602700  0.82381600  0.38455100  1
  H  1842  1  0.64337800  0.82921400  0.35372700  1
  H  1843  1  0.65500300  0.85433200  0.35175400  1
  H  1844  1  0.61743900  0.83492900  0.33398800  1
  H  1846  1  0.53353800  0.88227600  0.33695100  1
  H  1848  1  0.48704800  0.89864000  0.44163800  1
  H  1859  1  0.47930200  0.61455900  0.42646700  1
  H  1860  1  0.47517500  0.57627500  0.39263400  1
  H  1862  1  0.60893600  0.58554600  0.31910200  1
  H  1863  1  0.64755500  0.60494300  0.33534800  1
  H  1864  1  0.60605600  0.61562900  0.32759700  1
  H  1866  1  0.64355900  0.64638500  0.36384600  1
  H  1867  1  0.65495100  0.64845200  0.39100500  1
  H  1868  1  0.61745100  0.66616100  0.38920700  1
  H  1870  1  0.53306500  0.66321800  0.43378300  1
  H  1872  1  0.48703600  0.55849900  0.34532900  1
  C  1  1  0.95354700  0.68795900  0.09500800  1
  C  2  1  0.94312300  0.70419200  0.08785200  1
  C  3  1  0.91831500  0.72324600  0.10147500  1
  C  4  1  0.90412300  0.72695600  0.12332400  1
  C  5  1  0.92270800  0.71519100  0.13373100  1
  C  6  1  0.94550400  0.69459600  0.11911600  1
  C  9  1  0.97877900  0.66897800  0.07897400  1
  C  10  1  0.96943300  0.65099400  0.05527800  1
  C  11  1  0.99815200  0.63369500  0.04122700  1
  C  12  1  0.03558600  0.63410600  0.05069200  1
  C  13  1  0.04409000  0.65212100  0.07371900  1
  C  14  1  0.01713400  0.66985100  0.08705400  1
  C  31  1  0.95366600  0.51887100  0.31220200  1
  C  32  1  0.94323500  0.49547700  0.29599400  1
  C  33  1  0.91838200  0.49003800  0.27695400  1
  C  34  1  0.90416200  0.50817900  0.27325400  1
  C  35  1  0.92273600  0.53035500  0.28499900  1
  C  36  1  0.94554000  0.53635400  0.30559600  1
  C  39  1  0.97883900  0.52185600  0.33123000  1
  C  40  1  0.96945500  0.51611500  0.34918900  1
  C  41  1  0.99813500  0.51936200  0.36650900  1
  C  42  1  0.03557200  0.52844600  0.36615700  1
  C  43  1  0.04411600  0.53351100  0.34818000  1
  C  44  1  0.01714600  0.52920400  0.33048300  1
  C  61  1  0.95346300  0.90516500  0.48127000  1
  C  62  1  0.94316600  0.91230300  0.50468000  1
  C  63  1  0.91824500  0.89872900  0.51012100  1
  C  64  1  0.90408900  0.87686900  0.49198200  1
  C  65  1  0.92265700  0.86644700  0.46980700  1
  C  66  1  0.94544100  0.88105300  0.46381500  1
  C  69  1  0.97879500  0.92118800  0.47836000  1
  C  70  1  0.96947600  0.94489000  0.48406500  1
  C  71  1  0.99824900  0.95895400  0.48086100  1
  C  72  1  0.03565300  0.94947700  0.47174700  1
  C  73  1  0.04407500  0.92647800  0.46682100  1
  C  74  1  0.01708400  0.91303700  0.47102200  1
  C  91  1  0.45348400  0.38675500  0.83074600  1
  C  92  1  0.44315300  0.37047400  0.83786200  1
  C  93  1  0.41832500  0.35142400  0.82424200  1
  C  94  1  0.40416000  0.34772400  0.80238800  1
  C  95  1  0.42273800  0.35950300  0.79199200  1
  C  96  1  0.44551700  0.38010300  0.80662800  1
  C  99  1  0.47885900  0.40565400  0.84678600  1
  C  100  1  0.46956000  0.42368000  0.87047600  1
  C  101  1  0.49834400  0.44095200  0.88451000  1
  C  102  1  0.53581100  0.44046700  0.87504900  1
  C  103  1  0.54425000  0.42237400  0.85202900  1
  C  104  1  0.51720700  0.40473200  0.83867700  1
  C  121  1  0.45355400  0.55581600  0.61348400  1
  C  122  1  0.44314100  0.57920500  0.62972500  1
  C  123  1  0.41833900  0.58463600  0.64878100  1
  C  124  1  0.40413400  0.56648900  0.65247700  1
  C  125  1  0.42270600  0.54431100  0.64070100  1
  C  126  1  0.44550800  0.53833900  0.62011300  1
  C  129  1  0.47878100  0.55287000  0.59450100  1
  C  130  1  0.46943500  0.55858200  0.57651800  1
  C  131  1  0.49815100  0.55533700  0.55921700  1
  C  132  1  0.53557800  0.54627700  0.55962500  1
  C  133  1  0.54408400  0.54126000  0.57763700  1
  C  134  1  0.51713100  0.54565600  0.59536900  1
  C  151  1  0.45365900  0.16952700  0.44440400  1
  C  152  1  0.44319000  0.16233600  0.42101400  1
  C  153  1  0.41831900  0.17593500  0.41558400  1
  C  154  1  0.40413400  0.19778600  0.43372500  1
  C  155  1  0.42272100  0.20821400  0.45589900  1
  C  156  1  0.44554000  0.19361600  0.46188800  1
  C  159  1  0.47883900  0.15348500  0.44738400  1
  C  160  1  0.46945500  0.12978700  0.44164800  1
  C  161  1  0.49813700  0.11571900  0.44489900  1
  C  162  1  0.53557500  0.12515400  0.45397700  1
  C  163  1  0.54411900  0.14819400  0.45903700  1
  C  164  1  0.51714600  0.16158400  0.45472900  1
  C  181  1  0.15924700  0.55637300  0.83072400  1
  C  182  1  0.16948200  0.57970100  0.83746900  1
  C  183  1  0.19504400  0.58487200  0.82398300  1
  C  184  1  0.20943900  0.56658000  0.80229700  1
  C  185  1  0.19078500  0.54444500  0.79202400  1
  C  186  1  0.16799500  0.53863700  0.80677900  1
  C  189  1  0.13343100  0.55391200  0.84690700  1
  C  190  1  0.14043900  0.56245600  0.87157800  1
  C  191  1  0.11072600  0.56044600  0.88592800  1
  C  192  1  0.07458400  0.54946500  0.87575000  1
  C  193  1  0.06860600  0.54143800  0.85170100  1
  C  194  1  0.09624300  0.54471600  0.83795700  1
  C  211  1  0.15923500  0.16941400  0.61401900  1
  C  212  1  0.16952600  0.16267300  0.63059400  1
  C  213  1  0.19502400  0.17619200  0.64927400  1
  C  214  1  0.20942100  0.19787200  0.65265100  1
  C  215  1  0.19073900  0.20812900  0.64077800  1
  C  216  1  0.16791600  0.19336600  0.62023200  1
  C  219  1  0.13338700  0.15322100  0.59540400  1
  C  220  1  0.14045400  0.12858100  0.57921000  1
  C  221  1  0.11082800  0.11424700  0.56278000  1
  C  222  1  0.07455500  0.12440100  0.56213700  1
  C  223  1  0.06844500  0.14844000  0.57825300  1
  C  224  1  0.09608600  0.16211400  0.59530000  1
  C  241  1  0.15915400  0.38613600  0.44376400  1
  C  242  1  0.16952600  0.36959500  0.42045500  1
  C  243  1  0.19496300  0.35089100  0.41529000  1
  C  244  1  0.20939200  0.34751200  0.43358400  1
  C  245  1  0.19073300  0.35939000  0.45572000  1
  C  246  1  0.16791400  0.37994400  0.46151400  1
  C  249  1  0.13344600  0.40483600  0.44626400  1
  C  250  1  0.14046200  0.42096300  0.43772900  1
  C  251  1  0.11083600  0.43737800  0.43978300  1
  C  252  1  0.07463700  0.43808300  0.45067000  1
  C  253  1  0.06856200  0.42208400  0.45872600  1
  C  254  1  0.09615000  0.40497500  0.45528600  1
  C  271  1  0.65905500  0.51824900  0.09497500  1
  C  272  1  0.66946500  0.49494100  0.08818000  1
  C  273  1  0.69495400  0.48978000  0.10170000  1
  C  274  1  0.70938500  0.50807900  0.12337200  1
  C  275  1  0.69071300  0.53021200  0.13364600  1
  C  276  1  0.66788200  0.53601500  0.11889700  1
  C  279  1  0.63339100  0.52077300  0.07875900  1
  C  280  1  0.64043600  0.51221700  0.05409600  1
  C  281  1  0.61080800  0.51427800  0.03974100  1
  C  282  1  0.57461100  0.52519600  0.04988700  1
  C  283  1  0.56854800  0.53330500  0.07395700  1
  C  284  1  0.59615900  0.52992700  0.08765700  1
  C  301  1  0.65925600  0.90519400  0.31168500  1
  C  302  1  0.66950300  0.91194200  0.29510600  1
  C  303  1  0.69506500  0.89845700  0.27645000  1
  C  304  1  0.70943900  0.87676400  0.27304600  1
  C  305  1  0.69078000  0.86648900  0.28490400  1
  C  306  1  0.66799600  0.88124700  0.30547000  1
  C  309  1  0.63344000  0.92138000  0.33033000  1
  C  310  1  0.64043900  0.94605200  0.34645400  1
  C  311  1  0.61072000  0.96040100  0.36281100  1
  C  312  1  0.57458200  0.95022300  0.36361200  1
  C  313  1  0.56860900  0.92617200  0.34759000  1
  C  314  1  0.59625000  0.91243000  0.33057400  1
  C  331  1  0.65922400  0.68850400  0.48194400  1
  C  332  1  0.66948500  0.70508700  0.50526300  1
  C  333  1  0.69496300  0.72377700  0.51042900  1
  C  334  1  0.70938900  0.72714400  0.49212600  1
  C  335  1  0.69072500  0.71526500  0.46999000  1
  C  336  1  0.66791100  0.69471300  0.46420300  1
  C  339  1  0.63338200  0.66988500  0.47951800  1
  C  340  1  0.64045100  0.65369200  0.48796400  1
  C  341  1  0.61082800  0.63725900  0.48586500  1
  C  342  1  0.57455900  0.63661700  0.47506800  1
  C  343  1  0.56844600  0.65273100  0.46714500  1
  C  344  1  0.59608400  0.66977900  0.47051800  1
  C  361  1  0.16068100  0.38614300  0.82996300  1
  C  362  1  0.16723700  0.36977300  0.83758100  1
  C  363  1  0.19179400  0.35019900  0.82482100  1
  C  364  1  0.20717400  0.34534900  0.80278500  1
  C  365  1  0.19318100  0.35821300  0.79218600  1
  C  366  1  0.17381100  0.38008700  0.80680200  1
  C  369  1  0.13631100  0.40622900  0.84468300  1
  C  370  1  0.14359000  0.42392600  0.86873100  1
  C  371  1  0.11444500  0.44136900  0.88182000  1
  C  372  1  0.07788400  0.44088500  0.87112300  1
  C  373  1  0.07051500  0.42259700  0.84784500  1
  C  374  1  0.09919600  0.40570200  0.83522000  1
  C  391  1  0.16064300  0.55564800  0.61406500  1
  C  392  1  0.16717300  0.57964100  0.63044200  1
  C  393  1  0.19178200  0.58643600  0.64999000  1
  C  394  1  0.20716800  0.56924200  0.65482800  1
  C  395  1  0.19317300  0.54578200  0.64196800  1
  C  396  1  0.17380200  0.53852800  0.62009400  1
  C  399  1  0.13627600  0.55028300  0.59397500  1
  C  400  1  0.14359300  0.55662700  0.57627600  1
  C  401  1  0.11443300  0.55228000  0.55884500  1
  C  402  1  0.07788100  0.54204500  0.55930100  1
  C  403  1  0.07051200  0.53704100  0.57758000  1
  C  404  1  0.09917600  0.54132800  0.59449100  1
  C  421  1  0.16081000  0.17021600  0.44455300  1
  C  422  1  0.16725500  0.16263100  0.42055700  1
  C  423  1  0.19205300  0.17533600  0.41378600  1
  C  424  1  0.20735500  0.19738300  0.43097200  1
  C  425  1  0.19332100  0.20799800  0.45441900  1
  C  426  1  0.17391600  0.19338100  0.46166200  1
  C  429  1  0.13631700  0.15549900  0.44986400  1
  C  430  1  0.14363700  0.13146300  0.44355100  1
  C  431  1  0.11441600  0.11835900  0.44783400  1
  C  432  1  0.07790500  0.12907500  0.45811900  1
  C  433  1  0.07057900  0.15236500  0.46313400  1
  C  434  1  0.09924600  0.16499500  0.45885900  1
  C  451  1  0.66077200  0.68848600  0.09569600  1
  C  452  1  0.66709800  0.70493000  0.08814000  1
  C  453  1  0.69169200  0.72450900  0.10086500  1
  C  454  1  0.70715400  0.72929700  0.12287300  1
  C  455  1  0.69321700  0.71643100  0.13348000  1
  C  456  1  0.67389000  0.69454800  0.11885700  1
  C  459  1  0.63630000  0.66844300  0.08098700  1
  C  460  1  0.64359400  0.65071600  0.05694900  1
  C  461  1  0.61444300  0.63326500  0.04388300  1
  C  462  1  0.57787000  0.63376300  0.05458000  1
  C  463  1  0.57052700  0.65207900  0.07785300  1
  C  464  1  0.59924600  0.66893700  0.09049600  1
  C  481  1  0.66067900  0.51903300  0.31166600  1
  C  482  1  0.66722900  0.49504400  0.29529600  1
  C  483  1  0.69178300  0.48823000  0.27571900  1
  C  484  1  0.70716300  0.50541600  0.27086700  1
  C  485  1  0.69317600  0.52887800  0.28373100  1
  C  486  1  0.67380800  0.53613800  0.30560900  1
  C  489  1  0.63630900  0.52440100  0.33175300  1
  C  490  1  0.64358500  0.51804200  0.34944600  1
  C  491  1  0.61443700  0.52238900  0.36688700  1
  C  492  1  0.57788200  0.53261200  0.36640900  1
  C  493  1  0.57051500  0.53761000  0.34812600  1
  C  494  1  0.59919700  0.53334200  0.33123000  1
  C  511  1  0.66065000  0.90443500  0.48116800  1
  C  512  1  0.66717900  0.91205000  0.50516000  1
  C  513  1  0.69178300  0.89929500  0.51195500  1
  C  514  1  0.70717100  0.87726500  0.49476100  1
  C  515  1  0.69317300  0.86666300  0.47130000  1
  C  516  1  0.67379700  0.88128200  0.46404600  1
  C  519  1  0.63627700  0.91916000  0.47580500  1
  C  520  1  0.64359600  0.94320100  0.48214400  1
  C  521  1  0.61443400  0.95628300  0.47779500  1
  C  522  1  0.57787600  0.94559700  0.46757100  1
  C  523  1  0.57050400  0.92231600  0.46257800  1
  C  524  1  0.59917100  0.90969100  0.46686000  1
  C  541  1  0.95361300  0.51845500  0.09558700  1
  C  542  1  0.94702900  0.49453700  0.08837900  1
  C  543  1  0.92162500  0.48802900  0.10103000  1
  C  544  1  0.90617000  0.50538500  0.12293000  1
  C  545  1  0.92049800  0.52875500  0.13341500  1
  C  546  1  0.94013100  0.53575400  0.11864600  1
  C  549  1  0.97844400  0.52337800  0.08060100  1
  C  550  1  0.97373600  0.51437400  0.05572100  1
  C  551  1  0.00397500  0.51756300  0.04237900  1
  C  552  1  0.03913400  0.52949700  0.05375400  1
  C  553  1  0.04371100  0.53769200  0.07809300  1
  C  554  1  0.01418700  0.53427800  0.09086300  1
  C  571  1  0.95362800  0.90462600  0.31127200  1
  C  572  1  0.94717100  0.91180700  0.29453200  1
  C  573  1  0.92196600  0.89913300  0.27526900  1
  C  574  1  0.90634400  0.87727700  0.27080400  1
  C  575  1  0.92057800  0.86680200  0.28372400  1
  C  576  1  0.94014100  0.88157500  0.30551100  1
  C  579  1  0.97844200  0.91960500  0.33119000  1
  C  580  1  0.97371600  0.94447500  0.34709800  1
  C  581  1  0.00384100  0.95780900  0.36371300  1
  C  582  1  0.03911700  0.94645400  0.36415900  1
  C  583  1  0.04381000  0.92214500  0.34789800  1
  C  584  1  0.01421300  0.90935600  0.33179100  1
  C  601  1  0.95374900  0.68892600  0.48171300  1
  C  602  1  0.94705100  0.70559000  0.50562500  1
  C  603  1  0.92189100  0.72485300  0.51217700  1
  C  604  1  0.90635700  0.72938800  0.49482200  1
  C  605  1  0.92064400  0.71647000  0.47143800  1
  C  606  1  0.94024700  0.69468900  0.46442200  1
  C  609  1  0.97843500  0.66894600  0.47673100  1
  C  610  1  0.97377700  0.65309100  0.48576100  1
  C  611  1  0.00390800  0.63649100  0.48252400  1
  C  612  1  0.03912500  0.63601000  0.47066100  1
  C  613  1  0.04381000  0.65219200  0.46251800  1
  C  614  1  0.01425700  0.66835900  0.46592600  1
  C  631  1  0.45377500  0.55621400  0.83013100  1
  C  632  1  0.44710000  0.58012700  0.83737000  1
  C  633  1  0.42189900  0.58665800  0.82466100  1
  C  634  1  0.40636100  0.56929200  0.80277800  1
  C  635  1  0.42065700  0.54590900  0.79231000  1
  C  636  1  0.44025200  0.53890300  0.80708600  1
  C  639  1  0.47847200  0.55124400  0.84513800  1
  C  640  1  0.47375500  0.56025600  0.87001600  1
  C  641  1  0.50391700  0.55700200  0.88334400  1
  C  642  1  0.53916400  0.54516600  0.87200000  1
  C  643  1  0.54384800  0.53703900  0.84767600  1
  C  644  1  0.51428900  0.54044300  0.83491200  1
  C  661  1  0.45362400  0.17006500  0.61446200  1
  C  662  1  0.44703000  0.16285400  0.63116900  1
  C  663  1  0.42161900  0.17550500  0.65032600  1
  C  664  1  0.40616600  0.19740600  0.65487000  1
  C  665  1  0.42050200  0.20789200  0.64198800  1
  C  666  1  0.44014100  0.19312500  0.62022300  1
  C  669  1  0.47845100  0.15507700  0.59455200  1
  C  670  1  0.47374300  0.13019400  0.57867600  1
  C  671  1  0.50397900  0.11685200  0.56214200  1
  C  672  1  0.53912900  0.12822800  0.56157400  1
  C  673  1  0.54370000  0.15257000  0.57770700  1
  C  674  1  0.51418700  0.16533700  0.59390100  1
  C  691  1  0.45363500  0.38574300  0.44397400  1
  C  692  1  0.44717500  0.36900400  0.42005300  1
  C  693  1  0.42196600  0.34974300  0.41346300  1
  C  694  1  0.40634700  0.34527600  0.43085400  1
  C  695  1  0.42058100  0.35819400  0.45424800  1
  C  696  1  0.44014400  0.37998200  0.46126400  1
  C  699  1  0.47844500  0.40566500  0.44891900  1
  C  700  1  0.47372300  0.42157000  0.43995300  1
  C  701  1  0.50384700  0.43818700  0.44323600  1
  C  702  1  0.53911400  0.43864000  0.45504800  1
  C  703  1  0.54380400  0.42238400  0.46310200  1
  C  704  1  0.51421100  0.40627300  0.45977800  1
  C  721  1  0.91317300  0.80540600  0.23905900  1
  C  722  1  0.90002300  0.80133400  0.21682000  1
  C  723  1  0.90014100  0.77852800  0.19625400  1
  C  724  1  0.91020400  0.75819500  0.19783900  1
  C  725  1  0.91952600  0.76255000  0.22086500  1
  C  726  1  0.92238300  0.78537200  0.24066600  1
  C  728  1  0.88199900  0.79713900  0.17353000  1
  C  729  1  0.87786700  0.81906200  0.19438600  1
  C  733  1  0.87823800  0.79498400  0.15008400  1
  C  737  1  0.86503600  0.84142800  0.19612700  1
  C  741  1  0.92875700  0.82757100  0.25493600  1
  C  743  1  0.91187500  0.73421700  0.17946700  1
  C  745  1  0.91322900  0.54545100  0.19477700  1
  C  746  1  0.90007600  0.52728100  0.19884600  1
  C  747  1  0.90015600  0.52952600  0.22165500  1
  C  748  1  0.91019300  0.55144700  0.24199000  1
  C  749  1  0.91950600  0.57012000  0.23763900  1
  C  750  1  0.92238900  0.56709800  0.21481900  1
  C  752  1  0.88202200  0.48819200  0.20304500  1
  C  753  1  0.87792200  0.48712000  0.18111700  1
  C  757  1  0.87825300  0.46690400  0.20520400  1
  C  761  1  0.86507900  0.46650000  0.15875400  1
  C  765  1  0.92886000  0.53920600  0.17262200  1
  C  767  1  0.91184200  0.55705500  0.26597000  1
  C  769  1  0.91322700  0.76115700  0.45473200  1
  C  770  1  0.90006100  0.78339100  0.47289900  1
  C  771  1  0.90015400  0.80395300  0.47061967  1
  C  772  1  0.91018000  0.80235700  0.44872200  1
  C  773  1  0.91951100  0.77933500  0.43005600  1
  C  774  1  0.92240200  0.75954000  0.43308300  1
  C  776  1  0.88202800  0.82668100  0.51199000  1
  C  777  1  0.87790000  0.80582600  0.51306000  1
  C  781  1  0.87828100  0.85012700  0.53327600  1
  C  785  1  0.86506100  0.80408700  0.53368400  1
  C  789  1  0.92878300  0.74526900  0.46100800  1
  C  791  1  0.91178400  0.82071900  0.44310000  1
  C  793  1  0.41323200  0.26925800  0.68666200  1
  C  794  1  0.40008200  0.27332400  0.70890100  1
  C  795  1  0.40016400  0.29613400  0.72946700  1
  C  796  1  0.41020000  0.31647700  0.72789200  1
  C  797  1  0.41952300  0.31212300  0.70486700  1
  C  798  1  0.42240000  0.28930300  0.68506500  1
  C  800  1  0.38201200  0.27751200  0.75218000  1
  C  801  1  0.37791900  0.25558600  0.73132300  1
  C  805  1  0.37821300  0.27966900  0.77562400  1
  C  809  1  0.36508400  0.23321800  0.72957600  1
  C  813  1  0.42886000  0.24710200  0.67074600  1
  C  815  1  0.41182400  0.34046600  0.74625700  1
  C  817  1  0.41321800  0.52920300  0.73091100  1
  C  818  1  0.40005000  0.54737000  0.72684300  1
  C  819  1  0.40015500  0.54512700  0.70403500  1
  C  820  1  0.41020600  0.52320500  0.68369900  1
  C  821  1  0.41952900  0.50453700  0.68805600  1
  C  822  1  0.42240000  0.50755800  0.71087700  1
  C  824  1  0.38200900  0.58646300  0.72265000  1
  C  825  1  0.37788100  0.58753100  0.74457300  1
  C  829  1  0.37824200  0.60775300  0.72049500  1
  C  833  1  0.36504300  0.60815300  0.76693600  1
  C  837  1  0.42877200  0.53548000  0.75307700  1
  C  839  1  0.41185600  0.51759300  0.65971700  1
  C  841  1  0.41318000  0.31352800  0.47097700  1
  C  842  1  0.40003000  0.29128700  0.45281000  1
  C  843  1  0.40014300  0.27072300  0.45505600  1
  C  844  1  0.41020000  0.27231300  0.47697900  1
  C  845  1  0.41952600  0.29533900  0.49564400  1
  C  846  1  0.42238800  0.31513800  0.49262000  1
  C  848  1  0.38200600  0.24799600  0.41372000  1
  C  849  1  0.37787500  0.26884900  0.41264900  1
  C  853  1  0.37825700  0.22454900  0.39243100  1
  C  857  1  0.36504600  0.27059000  0.39202400  1
  C  861  1  0.42876100  0.32940400  0.46468800  1
  C  863  1  0.41185300  0.25394700  0.48259700  1
  C  865  1  0.20023600  0.52919900  0.68673000  1
  C  866  1  0.21337700  0.54737800  0.70895700  1
  C  867  1  0.21328400  0.54513900  0.72952100  1
  C  868  1  0.20326500  0.52321800  0.72794000  1
  C  869  1  0.19393900  0.50454000  0.70491900  1
  C  870  1  0.19105900  0.50755300  0.68511600  1
  C  872  1  0.23141000  0.58647400  0.75222600  1
  C  873  1  0.23553200  0.58754100  0.73137300  1
  C  877  1  0.23515600  0.60776700  0.77566200  1
  C  881  1  0.24837000  0.60816400  0.72963200  1
  C  885  1  0.18476600  0.53544100  0.67080800  1
  C  887  1  0.20170200  0.51760900  0.74631200  1
  C  889  1  0.20023300  0.31345400  0.73083500  1
  C  890  1  0.21337700  0.29122600  0.72678700  1
  C  891  1  0.21328100  0.27065800  0.70398600  1
  C  892  1  0.20323600  0.27223000  0.68364300  1
  C  893  1  0.19391600  0.29525400  0.68798600  1
  C  894  1  0.19105300  0.31506200  0.71080100  1
  C  896  1  0.23143300  0.24796300  0.72262400  1
  C  897  1  0.23554300  0.26882100  0.74454200  1
  C  901  1  0.23520800  0.22453300  0.72049000  1
  C  905  1  0.24836700  0.27057100  0.76691500  1
  C  909  1  0.18476300  0.32937600  0.75299900  1
  C  911  1  0.20161200  0.25385100  0.65966200  1
  C  913  1  0.20023000  0.26931600  0.47099100  1
  C  914  1  0.21335400  0.27336400  0.45280700  1
  C  915  1  0.21326900  0.29616800  0.45504100  1
  C  916  1  0.20323300  0.31651500  0.47695600  1
  C  917  1  0.19392800  0.31217400  0.49563900  1
  C  918  1  0.19106800  0.28936100  0.49263400  1
  C  920  1  0.23142200  0.27753100  0.41370900  1
  C  921  1  0.23551100  0.25560900  0.41264600  1
  C  925  1  0.23521100  0.27966900  0.39241500  1
  C  929  1  0.24834600  0.23324200  0.39202900  1
  C  933  1  0.18468400  0.24716200  0.46478300  1
  C  935  1  0.20159400  0.34049600  0.48255200  1
  C  937  1  0.70023400  0.54546700  0.23896800  1
  C  938  1  0.71337500  0.52728800  0.21673900  1
  C  939  1  0.71327400  0.52952200  0.19618867  1
  C  940  1  0.70323000  0.55143800  0.19774700  1
  C  941  1  0.69391100  0.57011800  0.22077000  1
  C  942  1  0.69104800  0.56711000  0.24057800  1
  C  944  1  0.73142300  0.48818800  0.17347600  1
  C  945  1  0.73554200  0.48712700  0.19433300  1
  C  949  1  0.73517900  0.46689000  0.15004300  1
  C  953  1  0.74837800  0.46650900  0.19608200  1
  C  957  1  0.68476300  0.53922300  0.25489000  1
  C  959  1  0.70160700  0.55703900  0.17936700  1
  C  961  1  0.70026600  0.76117700  0.19482900  1
  C  962  1  0.71339300  0.78341100  0.19888400  1
  C  963  1  0.71328900  0.80397700  0.22168900  1
  C  964  1  0.70325900  0.80239800  0.24202800  1
  C  965  1  0.69392500  0.77937500  0.23767900  1
  C  966  1  0.69106300  0.75957100  0.21486300  1
  C  968  1  0.73142000  0.82668400  0.20306300  1
  C  969  1  0.73554700  0.80583000  0.18114100  1
  C  973  1  0.73516300  0.85012100  0.20520700  1
  C  977  1  0.74838100  0.80409000  0.15877700  1
  C  981  1  0.68476600  0.74526800  0.17266500  1
  C  983  1  0.70168500  0.82077200  0.26601100  1
  C  985  1  0.70023900  0.80531400  0.45471400  1
  C  986  1  0.71338300  0.80126700  0.47289500  1
  C  987  1  0.71328300  0.77846500  0.47066100  1
  C  988  1  0.70323900  0.75812300  0.44874700  1
  C  989  1  0.69391900  0.76246500  0.43006700  1
  C  990  1  0.69105700  0.78527900  0.43307200  1
  C  992  1  0.73143600  0.79710300  0.51199300  1
  C  993  1  0.73554800  0.81902400  0.51305600  1
  C  997  1  0.73521000  0.79497100  0.53329200  1
  C  1001  1  0.74838000  0.84139100  0.53367700  1
  C  1005  1  0.68476900  0.82748000  0.46095600  1
  C  1007  1  0.70161800  0.73414200  0.44314900  1
  C  1009  1  0.84858000  0.74101700  0.08180700  1
  C  1010  1  0.82295600  0.75552100  0.07760600  1
  C  1011  1  0.78238000  0.75075200  0.07421300  1
  C  1012  1  0.76699400  0.73065400  0.07384600  1
  C  1013  1  0.79251400  0.71619200  0.07803000  1
  C  1014  1  0.83249200  0.72094500  0.08132200  1
  C  1016  1  0.77326000  0.78388000  0.06862800  1
  C  1017  1  0.81408000  0.78780400  0.07043900  1
  C  1021  1  0.74498700  0.79804200  0.06402500  1
  C  1025  1  0.83512900  0.80516700  0.06649700  1
  C  1029  1  0.88816300  0.74656100  0.08597500  1
  C  1031  1  0.72792100  0.72457100  0.07045000  1
  C  1033  1  0.84863100  0.45259700  0.25914700  1
  C  1034  1  0.82300300  0.43389300  0.24463500  1
  C  1035  1  0.78243600  0.43525700  0.24941900  1
  C  1036  1  0.76707500  0.45497200  0.26954200  1
  C  1037  1  0.79260400  0.47358700  0.28404800  1
  C  1038  1  0.83256200  0.47215800  0.27925000  1
  C  1040  1  0.77329300  0.39655100  0.21629800  1
  C  1041  1  0.81411000  0.39444100  0.21235900  1
  C  1045  1  0.74501100  0.37778500  0.20215300  1
  C  1049  1  0.83514800  0.37313000  0.19500000  1
  C  1053  1  0.88821800  0.45122100  0.25361600  1
  C  1055  1  0.72812700  0.45762000  0.27573000  1
  C  1057  1  0.84862300  0.91835000  0.54758500  1
  C  1058  1  0.82299900  0.92254700  0.56629400  1
  C  1059  1  0.78243200  0.92597100  0.56493200  1
  C  1060  1  0.76706600  0.92638400  0.54522200  1
  C  1061  1  0.79259100  0.92227800  0.52660700  1
  C  1062  1  0.83254600  0.91890200  0.52803100  1
  C  1064  1  0.77329000  0.93155500  0.60363700  1
  C  1065  1  0.81410700  0.92972600  0.60574700  1
  C  1069  1  0.74500800  0.93617800  0.62240400  1
  C  1073  1  0.83514500  0.93367600  0.62705700  1
  C  1077  1  0.88820800  0.91416900  0.54894600  1
  C  1079  1  0.72811700  0.92991700  0.54257200  1
  C  1081  1  0.34862800  0.33362300  0.84389200  1
  C  1082  1  0.32299900  0.31911300  0.84808600  1
  C  1083  1  0.28243300  0.32389900  0.85150500  1
  C  1084  1  0.26707300  0.34402300  0.85191800  1
  C  1085  1  0.29260900  0.35853300  0.84781700  1
  C  1086  1  0.33256600  0.35373100  0.84444300  1
  C  1088  1  0.27328500  0.29077200  0.85708100  1
  C  1089  1  0.31410200  0.28683300  0.85525500  1
  C  1093  1  0.24500000  0.27662400  0.86169700  1
  C  1097  1  0.33513700  0.26947100  0.85920300  1
  C  1101  1  0.38820600  0.32806800  0.83970100  1
  C  1103  1  0.22812500  0.35020800  0.85544800  1
  C  1105  1  0.34863100  0.62208100  0.66656200  1
  C  1106  1  0.32299600  0.64078000  0.68107200  1
  C  1107  1  0.28243000  0.63941100  0.67628400  1
  C  1108  1  0.26707900  0.61969800  0.65615800  1
  C  1109  1  0.29261500  0.60108900  0.64165000  1
  C  1110  1  0.33257200  0.60252200  0.64645100  1
  C  1112  1  0.27327600  0.67811300  0.70941100  1
  C  1113  1  0.31409300  0.68022700  0.71335200  1
  C  1117  1  0.24499100  0.69687700  0.72355900  1
  C  1121  1  0.33512800  0.70153800  0.73071600  1
  C  1125  1  0.38820600  0.62345400  0.67211500  1
  C  1127  1  0.22813000  0.61704100  0.64997200  1
  C  1129  1  0.34852300  0.15632800  0.37815200  1
  C  1130  1  0.32292000  0.15212400  0.35943400  1
  C  1131  1  0.28234800  0.14871000  0.36078900  1
  C  1132  1  0.26693600  0.14833300  0.38050900  1
  C  1133  1  0.29244300  0.15249100  0.39915400  1
  C  1134  1  0.33241400  0.15583000  0.39772600  1
  C  1136  1  0.27326200  0.14310500  0.32206800  1
  C  1137  1  0.31408200  0.14493400  0.31997300  1
  C  1141  1  0.24500300  0.13848000  0.30329000  1
  C  1145  1  0.33514900  0.14098500  0.29867100  1
  C  1149  1  0.38812200  0.16045800  0.37677100  1
  C  1151  1  0.22788600  0.14476900  0.38308000  1
  C  1153  1  0.26483700  0.62219300  0.84383400  1
  C  1154  1  0.29052800  0.64088400  0.84809600  1
  C  1155  1  0.33107100  0.63948200  0.85152800  1
  C  1156  1  0.34634900  0.61973200  0.85189900  1
  C  1157  1  0.32073400  0.60115600  0.84780900  1
  C  1158  1  0.28078800  0.60262100  0.84440600  1
  C  1160  1  0.34029700  0.67819100  0.85712400  1
  C  1161  1  0.29949200  0.68033300  0.85529500  1
  C  1165  1  0.36859600  0.69694200  0.86173300  1
  C  1169  1  0.27845900  0.70164100  0.85923600  1
  C  1173  1  0.22536100  0.62358800  0.83944800  1
  C  1175  1  0.38530900  0.61699200  0.85530800  1
  C  1177  1  0.26493000  0.15635300  0.66672500  1
  C  1178  1  0.29060300  0.15208800  0.68115700  1
  C  1179  1  0.33115200  0.14866600  0.67634100  1
  C  1180  1  0.34647400  0.14832900  0.65624500  1
  C  1181  1  0.32087400  0.15245700  0.64177200  1
  C  1182  1  0.28090800  0.15581900  0.64660600  1
  C  1184  1  0.34032900  0.14305800  0.70945300  1
  C  1185  1  0.29952100  0.14488400  0.71340800  1
  C  1189  1  0.36861100  0.13845100  0.72360500  1
  C  1193  1  0.27846500  0.14094800  0.73077200  1
  C  1197  1  0.22544900  0.16071400  0.67249500  1
  C  1199  1  0.38553300  0.14490100  0.65014800  1
  C  1201  1  0.26486600  0.33347900  0.37799500  1
  C  1202  1  0.29055700  0.31905400  0.35930500  1
  C  1203  1  0.33110900  0.32386500  0.36071700  1
  C  1204  1  0.34641000  0.34396100  0.38049000  1
  C  1205  1  0.32080400  0.35840400  0.39909500  1
  C  1206  1  0.28083500  0.35358800  0.39759400  1
  C  1208  1  0.34031400  0.29074700  0.32200400  1
  C  1209  1  0.29950600  0.28679400  0.31985800  1
  C  1213  1  0.36860500  0.27658900  0.30325600  1
  C  1217  1  0.27846200  0.26942500  0.29855700  1
  C  1221  1  0.22539000  0.32770000  0.37658200  1
  C  1223  1  0.38549500  0.35000200  0.38326900  1
  C  1225  1  0.76492700  0.45249500  0.08188600  1
  C  1226  1  0.79059500  0.43379500  0.07762100  1
  C  1227  1  0.83114400  0.43518700  0.07420000  1
  C  1228  1  0.84647100  0.45494800  0.07386600  1
  C  1229  1  0.82087900  0.47355400  0.07800400  1
  C  1230  1  0.78091400  0.47208400  0.08136500  1
  C  1232  1  0.84031600  0.39646600  0.06858700  1
  C  1233  1  0.79950700  0.39433800  0.07041300  1
  C  1237  1  0.86859400  0.37770400  0.06397400  1
  C  1241  1  0.77844800  0.37303800  0.06647400  1
  C  1245  1  0.72543500  0.45108100  0.08621500  1
  C  1247  1  0.88553100  0.45760900  0.07043100  1
  C  1249  1  0.76487700  0.91831400  0.25899200  1
  C  1250  1  0.79055700  0.92258900  0.24456800  1
  C  1251  1  0.83111000  0.92599500  0.24938100  1
  C  1252  1  0.84642100  0.92631800  0.26947300  1
  C  1253  1  0.82082700  0.92215000  0.28391600  1
  C  1254  1  0.78085900  0.91882300  0.27909800  1
  C  1256  1  0.84030700  0.93159900  0.21626800  1
  C  1257  1  0.79949700  0.92978800  0.21231600  1
  C  1261  1  0.86859500  0.93619600  0.20211200  1
  C  1265  1  0.77845300  0.93372300  0.19494800  1
  C  1269  1  0.72539700  0.91393900  0.25321700  1
  C  1271  1  0.88550800  0.92958500  0.27551300  1
  C  1273  1  0.76482900  0.74120800  0.54773000  1
  C  1274  1  0.79052700  0.75563600  0.56641400  1
  C  1275  1  0.83107100  0.75080300  0.56500900  1
  C  1276  1  0.84634000  0.73068100  0.54525500  1
  C  1277  1  0.82071800  0.71619300  0.52668400  1
  C  1278  1  0.78076800  0.72106000  0.52815700  1
  C  1280  1  0.84030500  0.78392100  0.60371400  1
  C  1281  1  0.79950000  0.78789000  0.60585900  1
  C  1285  1  0.86860600  0.79806500  0.62246300  1
  C  1289  1  0.77846900  0.80526000  0.62716600  1
  C  1293  1  0.72535900  0.74699800  0.54913500  1
  C  1295  1  0.88530100  0.72452900  0.54251100  1
  C  1297  1  0.02611500  0.60801200  0.98167700  1
  C  1298  1  0.04509500  0.61803300  0.96953700  1
  C  1299  1  0.07449100  0.60598900  0.95238900  1
  C  1300  1  0.08631800  0.58283700  0.94613800  1
  C  1301  1  0.06676600  0.57262300  0.95798400  1
  C  1302  1  0.03775500  0.58481000  0.97525800  1
  C  1304  1  0.08071500  0.63954400  0.94681900  1
  C  1305  1  0.05220200  0.65171900  0.96432900  1
  C  1309  1  0.10002100  0.64911900  0.93334000  1
  C  1313  1  0.03845800  0.67600300  0.97310900  1
  C  1317  1  0.00420000  0.62306800  0.00204600  1
  C  1319  1  0.11001400  0.56860800  0.92627700  1
  C  1321  1  0.02610900  0.48544200  0.39215800  1
  C  1322  1  0.04506300  0.46327200  0.38214200  1
  C  1323  1  0.07447100  0.45816500  0.39417800  1
  C  1324  1  0.08630900  0.47507100  0.41732400  1
  C  1325  1  0.06674900  0.49712600  0.42755000  1
  C  1326  1  0.03773500  0.50221600  0.41536600  1
  C  1328  1  0.08070900  0.41905100  0.36061800  1
  C  1329  1  0.05218200  0.42438700  0.34844800  1
  C  1333  1  0.10002700  0.39600000  0.35103300  1
  C  1337  1  0.03844600  0.40889100  0.32416200  1
  C  1341  1  0.00433100  0.49077700  0.37707300  1
  C  1343  1  0.11019200  0.46953800  0.43153600  1
  C  1345  1  0.02614700  0.01850900  0.51472300  1
  C  1346  1  0.04508400  0.03067900  0.53690000  1
  C  1347  1  0.07447100  0.04783400  0.54201500  1
  C  1348  1  0.08631200  0.05407400  0.52510900  1
  C  1349  1  0.06677200  0.04223200  0.50304700  1
  C  1350  1  0.03778400  0.02494400  0.49795000  1
  C  1352  1  0.08070900  0.05339900  0.58113200  1
  C  1353  1  0.05219400  0.03588800  0.57579600  1
  C  1357  1  0.10003000  0.06686600  0.60418200  1
  C  1361  1  0.03846400  0.02709800  0.59129500  1
  C  1365  1  0.00426100  0.99809900  0.50936800  1
  C  1367  1  0.11018600  0.07382200  0.53064000  1
  C  1369  1  0.52605500  0.46664800  0.94403400  1
  C  1370  1  0.54509300  0.45660300  0.95613800  1
  C  1371  1  0.57449200  0.46864100  0.97329300  1
  C  1372  1  0.58632400  0.49179500  0.97956100  1
  C  1373  1  0.56676900  0.50201700  0.96772200  1
  C  1374  1  0.53771500  0.48985300  0.95047300  1
  C  1376  1  0.58070900  0.43509400  0.97886900  1
  C  1377  1  0.55221700  0.42291200  0.96134300  1
  C  1381  1  0.59999600  0.42552700  0.99236300  1
  C  1385  1  0.53847000  0.39863100  0.95257300  1
  C  1389  1  0.50374500  0.45165000  0.92380900  1
  C  1391  1  0.61023000  0.50599700  0.99933400  1
  C  1393  1  0.52610700  0.58922500  0.53353600  1
  C  1394  1  0.54506700  0.61139300  0.54355300  1
  C  1395  1  0.57446500  0.61650200  0.53151400  1
  C  1396  1  0.58630100  0.59959600  0.50836700  1
  C  1397  1  0.56674600  0.57753900  0.49814500  1
  C  1398  1  0.53773800  0.57244800  0.51033000  1
  C  1400  1  0.58071500  0.65561400  0.56507300  1
  C  1401  1  0.55220000  0.65027700  0.57725000  1
  C  1405  1  0.60003600  0.67866500  0.57466000  1
  C  1409  1  0.53847600  0.66577100  0.60153900  1
  C  1413  1  0.50426400  0.58389800  0.54860600  1
  C  1415  1  0.61018700  0.60512400  0.49415400  1
  C  1417  1  0.52611900  0.05616400  0.41099700  1
  C  1418  1  0.54508400  0.04401200  0.38883100  1
  C  1419  1  0.57447400  0.02686000  0.38372600  1
  C  1420  1  0.58629800  0.02061200  0.40063100  1
  C  1421  1  0.56673700  0.03245600  0.42268700  1
  C  1422  1  0.53774100  0.04973800  0.42777700  1
  C  1424  1  0.58070400  0.02129600  0.34460400  1
  C  1425  1  0.55219100  0.03880700  0.34993800  1
  C  1429  1  0.60001300  0.00781800  0.32155000  1
  C  1433  1  0.53844900  0.04758900  0.33443700  1
  C  1437  1  0.50429900  0.07656700  0.41631800  1
  C  1439  1  0.60999700  0.00075200  0.39500000  1
  C  1441  1  0.08388900  0.46638400  0.94245000  1
  C  1442  1  0.06768400  0.45692600  0.95584900  1
  C  1443  1  0.04061200  0.46959300  0.97441800  1
  C  1444  1  0.02932800  0.49294700  0.98114600  1
  C  1445  1  0.04698100  0.50271900  0.96833300  1
  C  1446  1  0.07301600  0.48979900  0.94939900  1
  C  1448  1  0.03431500  0.43579200  0.97949300  1
  C  1449  1  0.06155700  0.42333400  0.96118000  1
  C  1453  1  0.01507900  0.42600200  0.99281500  1
  C  1457  1  0.07476200  0.39887900  0.95205400  1
  C  1461  1  0.09883800  0.45064700  0.91988500  1
  C  1463  1  0.00677100  0.50749600  0.00144800  1
  C  1465  1  0.08393300  0.58789000  0.53380200  1
  C  1466  1  0.06773700  0.61075100  0.54325600  1
  C  1467  1  0.04066400  0.61665100  0.53058700  1
  C  1468  1  0.02938600  0.60001900  0.50723400  1
  C  1469  1  0.04704000  0.57743700  0.49746000  1
  C  1470  1  0.07307700  0.57142500  0.51038300  1
  C  1472  1  0.03432400  0.65551800  0.56439000  1
  C  1473  1  0.06156600  0.64966500  0.57685000  1
  C  1477  1  0.01506700  0.67862500  0.57418400  1
  C  1481  1  0.07474500  0.66499300  0.60131300  1
  C  1485  1  0.09882000  0.58105500  0.54954700  1
  C  1487  1  0.00664800  0.60568700  0.49270400  1
  C  1489  1  0.08392400  0.05770900  0.41228500  1
  C  1490  1  0.06774800  0.04428800  0.38942000  1
  C  1491  1  0.04067900  0.02571800  0.38352100  1
  C  1492  1  0.02939800  0.01900500  0.40015800  1
  C  1493  1  0.04704000  0.03182100  0.42274200  1
  C  1494  1  0.07306600  0.05076100  0.42875400  1
  C  1496  1  0.03433000  0.02065600  0.34465700  1
  C  1497  1  0.06157400  0.03896700  0.35050600  1
  C  1501  1  0.01505800  0.00734900  0.32155200  1
  C  1505  1  0.07474500  0.04810500  0.33518000  1
  C  1509  1  0.09879400  0.08030000  0.41912100  1
  C  1511  1  0.00663700  0.99881300  0.39449200  1
  C  1513  1  0.58395700  0.60829600  0.98325000  1
  C  1514  1  0.56773100  0.61774700  0.96984700  1
  C  1515  1  0.54066500  0.60507100  0.95127600  1
  C  1516  1  0.52940700  0.58171200  0.94454200  1
  C  1517  1  0.54706900  0.57194700  0.95735900  1
  C  1518  1  0.57310700  0.58487400  0.97629200  1
  C  1520  1  0.53431000  0.63886900  0.94620200  1
  C  1521  1  0.56154300  0.65133600  0.96451800  1
  C  1525  1  0.51506200  0.64865200  0.93287800  1
  C  1529  1  0.57471600  0.67580000  0.97364800  1
  C  1533  1  0.59897200  0.62404700  0.00580500  1
  C  1535  1  0.50665800  0.56718200  0.92432200  1
  C  1537  1  0.58392500  0.48676800  0.39191700  1
  C  1538  1  0.56773400  0.46390600  0.38246100  1
  C  1539  1  0.54066800  0.45800100  0.39513000  1
  C  1540  1  0.52939200  0.47462900  0.41848200  1
  C  1541  1  0.54703400  0.49721400  0.42825900  1
  C  1542  1  0.57306600  0.50323000  0.41533700  1
  C  1544  1  0.53432800  0.41913800  0.36132300  1
  C  1545  1  0.56156300  0.42499500  0.34886200  1
  C  1549  1  0.51507100  0.39603100  0.35152500  1
  C  1553  1  0.57473600  0.40967100  0.32439800  1
  C  1557  1  0.59881500  0.49360800  0.37617600  1
  C  1559  1  0.50663100  0.46896100  0.43300600  1
  C  1561  1  0.58389600  0.01692300  0.51339900  1
  C  1562  1  0.56769400  0.03032400  0.53625600  1
  C  1563  1  0.54061800  0.04889200  0.54215700  1
  C  1564  1  0.52933700  0.05561900  0.52552900  1
  C  1565  1  0.54699100  0.04280500  0.50294300  1
  C  1566  1  0.57302500  0.02387000  0.49693100  1
  C  1568  1  0.53431900  0.05396900  0.58103200  1
  C  1569  1  0.56156000  0.03565800  0.57517900  1
  C  1573  1  0.51507900  0.06729100  0.60414500  1
  C  1577  1  0.57476300  0.02653100  0.59051000  1
  C  1581  1  0.59883000  0.99435200  0.50657100  1
  C  1583  1  0.50677700  0.07592000  0.53128100  1
  C  1585  1  0.08973100  0.62755200  0.10254900  1
  C  1586  1  0.06300900  0.62075400  0.11449000  1
  C  1587  1  0.06567000  0.59818900  0.11225700  1
  C  1588  1  0.09311600  0.58169000  0.09661000  1
  C  1589  1  0.11771000  0.58802300  0.08341700  1
  C  1590  1  0.11608600  0.61069300  0.08635800  1
  C  1592  1  0.01625900  0.60929500  0.14194800  1
  C  1593  1  0.01096300  0.63096000  0.14248800  1
  C  1597  1  0.99699800  0.60355500  0.15852600  1
  C  1601  1  0.98213100  0.64920700  0.15715100  1
  C  1605  1  0.08497400  0.64861500  0.10318800  1
  C  1607  1  0.10068300  0.56097400  0.09646000  1
  C  1609  1  0.08969300  0.58672400  0.37256600  1
  C  1610  1  0.06292400  0.60545700  0.37940800  1
  C  1611  1  0.06559700  0.62578400  0.40197900  1
  C  1612  1  0.09307800  0.62663900  0.41846500  1
  C  1613  1  0.11772200  0.60713000  0.41210000  1
  C  1614  1  0.11613600  0.58742700  0.38940900  1
  C  1616  1  0.01620400  0.64439300  0.39089200  1
  C  1617  1  0.01087800  0.62327100  0.36922700  1
  C  1621  1  0.99699700  0.66672600  0.39663300  1
  C  1625  1  0.98206700  0.61971900  0.35098200  1
  C  1629  1  0.08505200  0.56627300  0.35143100  1
  C  1631  1  0.10070100  0.64721100  0.43916800  1
  C  1633  1  0.08954200  0.89778800  0.41349200  1
  C  1634  1  0.06286900  0.88581900  0.39472700  1
  C  1635  1  0.06556200  0.88803700  0.37438400  1
  C  1636  1  0.09300800  0.90368700  0.37353500  1
  C  1637  1  0.11757300  0.91689100  0.39306900  1
  C  1638  1  0.11593800  0.91395300  0.41280300  1
  C  1640  1  0.01626200  0.85828000  0.35576200  1
  C  1641  1  0.01095400  0.85773800  0.37688500  1
  C  1645  1  0.99704300  0.84168600  0.33343300  1
  C  1649  1  0.98217700  0.84303300  0.38044400  1
  C  1653  1  0.08507300  0.89698200  0.43385500  1
  C  1655  1  0.10068000  0.90379300  0.35295500  1
  C  1657  1  0.58957400  0.44715300  0.82322900  1
  C  1658  1  0.56291900  0.45395700  0.81126600  1
  C  1659  1  0.56564400  0.47651100  0.81347500  1
  C  1660  1  0.59310400  0.49299800  0.82912500  1
  C  1661  1  0.61765200  0.48666000  0.84233200  1
  C  1662  1  0.61595900  0.46399800  0.83941100  1
  C  1664  1  0.51626300  0.46540400  0.78376400  1
  C  1665  1  0.51092200  0.44374800  0.78323900  1
  C  1669  1  0.49702000  0.47114000  0.76717900  1
  C  1673  1  0.48210700  0.42549400  0.76856700  1
  C  1677  1  0.58472600  0.42610000  0.82260400  1
  C  1679  1  0.60073600  0.51370900  0.82927700  1
  C  1681  1  0.58971700  0.48785900  0.55305800  1
  C  1682  1  0.56299700  0.46911600  0.54625500  1
  C  1683  1  0.56565600  0.44878700  0.52368500  1
  C  1684  1  0.59309300  0.44794700  0.50718600  1
  C  1685  1  0.61767800  0.46747800  0.51352500  1
  C  1686  1  0.61606100  0.48720100  0.53620000  1
  C  1688  1  0.51626600  0.43019500  0.53479600  1
  C  1689  1  0.51097200  0.45131800  0.55646500  1
  C  1693  1  0.49700600  0.40787700  0.52905600  1
  C  1697  1  0.48215100  0.45490000  0.57471700  1
  C  1701  1  0.58496200  0.50827800  0.57412300  1
  C  1703  1  0.60071600  0.42738800  0.48647500  1
  C  1705  1  0.58970200  0.17702900  0.51224900  1
  C  1706  1  0.56292700  0.18892000  0.53097800  1
  C  1707  1  0.56558900  0.18667500  0.55130400  1
  C  1708  1  0.59306600  0.17104900  0.55216500  1
  C  1709  1  0.61772800  0.15790800  0.53266400  1
  C  1710  1  0.61614800  0.16089200  0.51295900  1
  C  1712  1  0.51619300  0.21636800  0.56990900  1
  C  1713  1  0.51087900  0.21691400  0.54878800  1
  C  1717  1  0.49698800  0.23296200  0.59224200  1
  C  1721  1  0.48206600  0.23160700  0.54523500  1
  C  1725  1  0.58506500  0.17770700  0.49179400  1
  C  1727  1  0.60065400  0.17092100  0.57274200  1
  C  1729  1  0.02399600  0.48767300  0.82337500  1
  C  1730  1  0.05055000  0.46886100  0.81143800  1
  C  1731  1  0.04776000  0.44853300  0.81367700  1
  C  1732  1  0.02023300  0.44778200  0.82936400  1
  C  1733  1  0.99567700  0.46735700  0.84248000  1
  C  1734  1  0.99745100  0.48705400  0.83950800  1
  C  1736  1  0.09704800  0.42992300  0.78388000  1
  C  1737  1  0.10244400  0.45106000  0.78337300  1
  C  1741  1  0.11604600  0.40758900  0.76711000  1
  C  1745  1  0.13114000  0.45471100  0.76868600  1
  C  1749  1  0.02896600  0.50803800  0.82266200  1
  C  1751  1  0.01277000  0.42747300  0.83006600  1
  C  1753  1  0.02399600  0.17686400  0.55266800  1
  C  1754  1  0.05052600  0.18881100  0.54579800  1
  C  1755  1  0.04772500  0.18658100  0.52323600  1
  C  1756  1  0.02020600  0.17088700  0.50679800  1
  C  1757  1  0.99566300  0.15776400  0.51325500  1
  C  1758  1  0.99747600  0.16071400  0.53591500  1
  C  1760  1  0.09705100  0.21635600  0.53441900  1
  C  1761  1  0.10246100  0.21685100  0.55605700  1
  C  1765  1  0.11605100  0.23312900  0.52886200  1
  C  1769  1  0.13117500  0.23151800  0.57439200  1
  C  1773  1  0.02929000  0.17740400  0.57363200  1
  C  1775  1  0.01279000  0.17015400  0.48576900  1
  C  1777  1  0.02387100  0.44748200  0.51260100  1
  C  1778  1  0.05044700  0.45436700  0.53140300  1
  C  1779  1  0.04767800  0.47694200  0.55171900  1
  C  1780  1  0.02016000  0.49337800  0.55245500  1
  C  1781  1  0.99560400  0.48691100  0.53287900  1
  C  1782  1  0.99737500  0.46423600  0.51318800  1
  C  1784  1  0.09704200  0.46577900  0.57030800  1
  C  1785  1  0.10243200  0.44413200  0.54917200  1
  C  1789  1  0.11607800  0.47135100  0.59263300  1
  C  1793  1  0.13116900  0.42580700  0.54550600  1
  C  1797  1  0.02913500  0.42650900  0.49218300  1
  C  1799  1  0.01273500  0.51441100  0.57274500  1
  C  1801  1  0.52390300  0.58700200  0.10242300  1
  C  1802  1  0.55053000  0.60579100  0.11430600  1
  C  1803  1  0.54777200  0.62610700  0.11204600  1
  C  1804  1  0.52024200  0.62686200  0.09636600  1
  C  1805  1  0.49561500  0.60731300  0.08329600  1
  C  1806  1  0.49733200  0.58764000  0.08631000  1
  C  1808  1  0.59710400  0.64470700  0.14181400  1
  C  1809  1  0.60249400  0.62357400  0.14232900  1
  C  1813  1  0.61609000  0.66704500  0.15858300  1
  C  1817  1  0.63119900  0.61993000  0.15701600  1
  C  1821  1  0.52897500  0.56656100  0.10303700  1
  C  1823  1  0.51280000  0.64717000  0.09565900  1
  C  1825  1  0.52399400  0.89784700  0.37302800  1
  C  1826  1  0.55054700  0.88591300  0.37990600  1
  C  1827  1  0.54775400  0.88815300  0.40247300  1
  C  1828  1  0.52022700  0.90383800  0.41890900  1
  C  1829  1  0.49567400  0.91695500  0.41245000  1
  C  1830  1  0.49744900  0.91398000  0.38977900  1
  C  1832  1  0.59704500  0.85835700  0.39128800  1
  C  1833  1  0.60244400  0.85784900  0.36964400  1
  C  1837  1  0.61604900  0.84159100  0.39685500  1
  C  1841  1  0.63114000  0.84316100  0.35130700  1
  C  1845  1  0.52896400  0.89713400  0.35195000  1
  C  1847  1  0.51275900  0.90453900  0.43991800  1
  C  1849  1  0.52399400  0.62714200  0.41313700  1
  C  1850  1  0.55052100  0.62026800  0.39431600  1
  C  1851  1  0.54771100  0.59770500  0.37398600  1
  C  1852  1  0.52018600  0.58127200  0.37324700  1
  C  1853  1  0.49565300  0.58773300  0.39283300  1
  C  1854  1  0.49747500  0.61039300  0.41254000  1
  C  1856  1  0.59704500  0.60888000  0.35539000  1
  C  1857  1  0.60246200  0.63051700  0.37653100  1
  C  1861  1  0.61605800  0.60331500  0.33306000  1
  C  1865  1  0.63118400  0.64884900  0.38020000  1
  C  1869  1  0.52929600  0.64810900  0.43355900  1
  C  1871  1  0.51275000  0.56024300  0.35295600  1
  N  8  1  0.87095700  0.73940600  0.13319600  1
  N  15  1  0.06365600  0.61746100  0.03847300  1
  N  17  1  0.95830300  0.68120700  0.12822900  1
  N  18  1  0.93341000  0.64966900  0.04603400  1
  N  27  1  0.06614800  0.64529700  0.08516100  1
  N  28  1  0.99652300  0.61784100  0.01809900  1
  N  29  1  0.91718200  0.72463000  0.15706600  1
  N  30  1  0.91414000  0.73845200  0.09405700  1
  N  38  1  0.87098300  0.50557500  0.26080800  1
  N  45  1  0.06358000  0.53284700  0.38283200  1
  N  47  1  0.95825900  0.55887100  0.31899800  1
  N  48  1  0.93344400  0.50814800  0.35046200  1
  N  57  1  0.06650400  0.55164900  0.35500300  1
  N  58  1  0.99644100  0.51204500  0.38233200  1
  N  59  1  0.91718000  0.54424300  0.27555500  1
  N  60  1  0.91419500  0.46741400  0.26174700  1
  N  68  1  0.87087800  0.86704400  0.49456800  1
  N  75  1  0.06371700  0.96170400  0.46732700  1
  N  77  1  0.95816400  0.87193700  0.44130200  1
  N  78  1  0.93347400  0.95416000  0.49202000  1
  N  87  1  0.06631400  0.91505700  0.44858400  1
  N  88  1  0.99653800  0.98207100  0.48809100  1
  N  89  1  0.91710600  0.84311300  0.45594700  1
  N  90  1  0.91417800  0.90610400  0.53274500  1
  N  98  1  0.37099300  0.33527400  0.79251400  1
  N  105  1  0.56395600  0.45706300  0.88729800  1
  N  107  1  0.45827900  0.39351700  0.79754100  1
  N  108  1  0.43352700  0.42506000  0.87973100  1
  N  117  1  0.56618400  0.42946200  0.84073600  1
  N  118  1  0.49682200  0.45681900  0.90763300  1
  N  119  1  0.41716800  0.35005500  0.76865600  1
  N  120  1  0.41418000  0.33619000  0.83162600  1
  N  128  1  0.37095500  0.56906700  0.66491800  1
  N  135  1  0.56364500  0.54185100  0.54297800  1
  N  137  1  0.45829900  0.51583500  0.60671900  1
  N  138  1  0.43341000  0.56650500  0.57519700  1
  N  147  1  0.56614000  0.52299300  0.57081200  1
  N  148  1  0.49651600  0.56262200  0.54337000  1
  N  149  1  0.41716800  0.53044000  0.65016700  1
  N  150  1  0.41418000  0.60725900  0.66400000  1
  N  158  1  0.37096600  0.20763800  0.43112400  1
  N  165  1  0.56358900  0.11288300  0.45837900  1
  N  167  1  0.45827600  0.20273300  0.48440100  1
  N  168  1  0.43344200  0.12054700  0.43368700  1
  N  177  1  0.56651000  0.15951400  0.47717400  1
  N  178  1  0.49644600  0.09258300  0.43759000  1
  N  179  1  0.41717300  0.23155100  0.46976200  1
  N  180  1  0.41410700  0.16850800  0.39295900  1
  N  188  1  0.24281900  0.56900400  0.79250400  1
  N  195  1  0.04485600  0.54651300  0.88806800  1
  N  197  1  0.15617700  0.51598400  0.79793800  1
  N  198  1  0.17554200  0.57181500  0.88155200  1
  N  207  1  0.04671000  0.52289800  0.84114600  1
  N  208  1  0.10939900  0.57332800  0.90939500  1
  N  209  1  0.19635900  0.53040000  0.76871400  1
  N  210  1  0.19932400  0.60744500  0.83127200  1
  N  218  1  0.24275200  0.20772400  0.66491500  1
  N  225  1  0.04485900  0.11207000  0.54683800  1
  N  227  1  0.15601400  0.20219700  0.60642700  1
  N  228  1  0.17559800  0.11862500  0.57853100  1
  N  237  1  0.04687900  0.15889700  0.57003200  1
  N  238  1  0.10930600  0.09078300  0.55222300  1
  N  239  1  0.19628600  0.23144600  0.65004700  1
  N  240  1  0.19939900  0.16888400  0.66453100  1
  N  248  1  0.24272000  0.33524200  0.43116000  1
  N  255  1  0.04494100  0.45339000  0.45366800  1
  N  257  1  0.15599100  0.39373600  0.48415200  1
  N  258  1  0.17560100  0.42161800  0.42843100  1
  N  267  1  0.04688800  0.43010900  0.47732300  1
  N  268  1  0.10934700  0.44794900  0.42689100  1
  N  269  1  0.19627400  0.35010200  0.46975200  1
  N  270  1  0.19935000  0.33564800  0.39271900  1
  N  278  1  0.74271500  0.50564000  0.13320300  1
  N  285  1  0.54494400  0.52816000  0.03753900  1
  N  287  1  0.65602000  0.55866300  0.12774100  1
  N  288  1  0.67555700  0.50288600  0.04414600  1
  N  297  1  0.54653300  0.55176500  0.08446700  1
  N  298  1  0.60936200  0.50134800  0.01626900  1
  N  299  1  0.69627200  0.54424300  0.15696300  1
  N  300  1  0.69937900  0.46721100  0.09436800  1
  N  308  1  0.74280700  0.86696100  0.26081600  1
  N  315  1  0.54485100  0.96254000  0.37888200  1
  N  317  1  0.65617200  0.87240300  0.31927900  1
  N  318  1  0.67554000  0.95602800  0.34707200  1
  N  327  1  0.54671100  0.91561800  0.35557500  1
  N  328  1  0.60939100  0.98386900  0.37339700  1
  N  329  1  0.69634800  0.84317600  0.27563400  1
  N  330  1  0.69935900  0.90575700  0.26117700  1
  N  338  1  0.74273300  0.73939900  0.49454100  1
  N  345  1  0.54486000  0.62131700  0.47210000  1
  N  347  1  0.65602600  0.68090200  0.44156500  1
  N  348  1  0.67559500  0.65301700  0.49724500  1
  N  357  1  0.54688000  0.64451000  0.44846800  1
  N  358  1  0.60930600  0.62670400  0.49877400  1
  N  359  1  0.69628400  0.72452900  0.45593900  1
  N  360  1  0.69931800  0.73904200  0.53299500  1
  N  368  1  0.23756400  0.32996200  0.79246900  1
  N  375  1  0.04919400  0.45688500  0.88336400  1
  N  377  1  0.17084300  0.39568100  0.79904900  1
  N  378  1  0.17794100  0.42434800  0.87932500  1
  N  387  1  0.03531500  0.41769100  0.83825100  1
  N  388  1  0.11519700  0.45606400  0.90545000  1
  N  389  1  0.20132300  0.34857400  0.76887400  1
  N  390  1  0.21229300  0.34081200  0.83508300  1
  N  398  1  0.23756700  0.57432300  0.67020700  1
  N  405  1  0.04920600  0.53827000  0.54328700  1
  N  407  1  0.17085200  0.51518600  0.60448700  1
  N  408  1  0.17795300  0.56679100  0.57585500  1
  N  417  1  0.03530400  0.53236800  0.58249300  1
  N  418  1  0.11520900  0.56121100  0.54414500  1
  N  419  1  0.20131700  0.53210900  0.65160600  1
  N  420  1  0.21229300  0.60607700  0.65937300  1
  N  428  1  0.23776800  0.20764400  0.42587600  1
  N  435  1  0.04923500  0.11683400  0.46188900  1
  N  437  1  0.17098600  0.20112300  0.48500100  1
  N  438  1  0.17800600  0.12087600  0.43340000  1
  N  447  1  0.03537400  0.16195800  0.46782000  1
  N  448  1  0.11527000  0.09473400  0.43893200  1
  N  449  1  0.20142200  0.23131700  0.46807500  1
  N  450  1  0.21200700  0.16511300  0.39393200  1
  N  458  1  0.73754400  0.74468300  0.13317000  1
  N  465  1  0.54915100  0.61778400  0.04234100  1
  N  467  1  0.67107700  0.67892500  0.12657000  1
  N  468  1  0.67792100  0.65029700  0.04633800  1
  N  477  1  0.53534200  0.65694900  0.08747100  1
  N  478  1  0.61512800  0.61857100  0.02025100  1
  N  479  1  0.70137300  0.72608200  0.15679500  1
  N  480  1  0.71175700  0.73414900  0.09069800  1
  N  488  1  0.73754700  0.50034100  0.25547700  1
  N  495  1  0.54919400  0.53637500  0.38241000  1
  N  497  1  0.67085200  0.55948400  0.32120400  1
  N  498  1  0.67793600  0.50787000  0.34986600  1
  N  507  1  0.53531000  0.54228200  0.34320700  1
  N  508  1  0.61519800  0.51345300  0.38158100  1
  N  509  1  0.70131500  0.54255100  0.27409100  1
  N  510  1  0.71227800  0.46858200  0.26633000  1
  N  518  1  0.73757100  0.86696900  0.49984000  1
  N  525  1  0.54919400  0.95783700  0.46380500  1
  N  527  1  0.67083800  0.87354600  0.44070400  1
  N  528  1  0.67795600  0.95378700  0.49230400  1
  N  537  1  0.53530400  0.91272300  0.45788500  1
  N  538  1  0.61520400  0.97991400  0.48672400  1
  N  539  1  0.70131800  0.84335200  0.45762600  1
  N  540  1  0.71228600  0.90955000  0.53159800  1
  N  548  1  0.87549400  0.50049100  0.13318500  1
  N  555  1  0.06957900  0.53199300  0.04166400  1
  N  557  1  0.94283800  0.55906300  0.12617200  1
  N  558  1  0.94041500  0.50295500  0.04455300  1
  N  567  1  0.07840900  0.54290000  0.08835200  1
  N  568  1  0.00758400  0.50365100  0.01892600  1
  N  569  1  0.91233900  0.54252000  0.15672800  1
  N  570  1  0.90141600  0.46827000  0.09078400  1
  N  578  1  0.87568400  0.86699200  0.25563200  1
  N  585  1  0.06953000  0.95854000  0.37878600  1
  N  587  1  0.94276200  0.87407600  0.32131600  1
  N  588  1  0.94040400  0.95564500  0.34684500  1
  N  597  1  0.07850500  0.91188700  0.34293400  1
  N  598  1  0.00770400  0.98124700  0.37321000  1
  N  599  1  0.91235700  0.84349200  0.27418800  1
  N  600  1  0.90166200  0.90932300  0.26574200  1
  N  608  1  0.87571100  0.74456900  0.49969500  1
  N  615  1  0.06953800  0.62138300  0.46812000  1
  N  617  1  0.94299700  0.67891100  0.44110600  1
  N  618  1  0.94045100  0.65333500  0.49716700  1
  N  627  1  0.07849300  0.65721000  0.45727000  1
  N  628  1  0.00770400  0.62698000  0.49644800  1
  N  629  1  0.91244600  0.72599700  0.45765700  1
  N  630  1  0.90115400  0.73412700  0.53173400  1
  N  638  1  0.37570300  0.57416900  0.79248500  1
  N  645  1  0.56957700  0.54263400  0.88408900  1
  N  647  1  0.44301000  0.51559400  0.79956700  1
  N  648  1  0.44042100  0.57164900  0.88117500  1
  N  657  1  0.57852900  0.53181500  0.83741300  1
  N  658  1  0.50769200  0.57094400  0.90679000  1
  N  659  1  0.41245400  0.53212600  0.76900200  1
  N  660  1  0.40115800  0.60621200  0.83493400  1
  N  668  1  0.37548500  0.20765900  0.67001500  1
  N  675  1  0.56957400  0.11613600  0.54698500  1
  N  677  1  0.44285200  0.20065000  0.60444000  1
  N  678  1  0.44042700  0.11902800  0.57893200  1
  N  687  1  0.57839500  0.16283500  0.58273800  1
  N  688  1  0.50758800  0.09339900  0.55260400  1
  N  689  1  0.41234300  0.23120700  0.65153900  1
  N  690  1  0.40140600  0.16526000  0.65983800  1
  N  698  1  0.37568900  0.33010200  0.42596600  1
  N  705  1  0.56951800  0.45327400  0.45759700  1
  N  707  1  0.44274400  0.39579000  0.48456700  1
  N  708  1  0.44041500  0.42131400  0.42852500  1
  N  717  1  0.57850600  0.41740500  0.46837200  1
  N  718  1  0.50771600  0.44768000  0.42929100  1
  N  719  1  0.41236300  0.34865700  0.46802100  1
  N  720  1  0.40165100  0.34022300  0.39375100  1
  N  727  1  0.89241600  0.77816600  0.17568900  1
  N  730  1  0.88841500  0.81991600  0.21462200  1
  N  751  1  0.89242000  0.50932700  0.22202100  1
  N  754  1  0.88848700  0.50650100  0.18026200  1
  N  775  1  0.89243200  0.82451900  0.49085400  1
  N  778  1  0.88845600  0.78558900  0.49367800  1
  N  799  1  0.39241600  0.29649000  0.75002700  1
  N  802  1  0.38848900  0.25473500  0.71108900  1
  N  823  1  0.39242100  0.56533000  0.70367500  1
  N  826  1  0.38843900  0.56814800  0.74542600  1
  N  847  1  0.39241800  0.25015800  0.43485500  1
  N  850  1  0.38842200  0.28909000  0.43203300  1
  N  871  1  0.22100600  0.56534600  0.75008000  1
  N  874  1  0.22497300  0.56815300  0.71114200  1
  N  895  1  0.22101800  0.25010500  0.70364100  1
  N  898  1  0.22497600  0.28904700  0.74538000  1
  N  919  1  0.22101500  0.29651600  0.43483600  1
  N  922  1  0.22493800  0.25477100  0.43203400  1
  N  943  1  0.72100700  0.50931300  0.17561700  1
  N  946  1  0.72497800  0.50651600  0.21455900  1
  N  967  1  0.72101000  0.82453600  0.22204200  1
  N  970  1  0.72499200  0.78559900  0.18029700  1
  N  991  1  0.72102200  0.77811900  0.49086900  1
  N  994  1  0.72498300  0.81985900  0.49366600  1
  N  1015  1  0.75954300  0.76537400  0.07034900  1
  N  1018  1  0.83642400  0.77365700  0.07518900  1
  N  1039  1  0.75958700  0.41677400  0.23481000  1
  N  1042  1  0.83646200  0.41334100  0.22649600  1
  N  1063  1  0.75958500  0.92984700  0.58341600  1
  N  1066  1  0.83645900  0.92495800  0.58684500  1
  N  1087  1  0.25958100  0.30928700  0.85537400  1
  N  1090  1  0.33645500  0.30096900  0.85049200  1
  N  1111  1  0.25957500  0.65789200  0.69089600  1
  N  1114  1  0.33644900  0.66133100  0.69921600  1
  N  1135  1  0.25953200  0.14482400  0.34228900  1
  N  1138  1  0.33640800  0.14970300  0.33888400  1
  N  1159  1  0.35396000  0.65795500  0.85540800  1
  N  1162  1  0.27712100  0.66144500  0.85051400  1
  N  1183  1  0.35401500  0.14478200  0.69094100  1
  N  1186  1  0.27717400  0.14966300  0.69929300  1
  N  1207  1  0.35398900  0.30925900  0.34224500  1
  N  1210  1  0.27714200  0.30091500  0.33874300  1
  N  1231  1  0.85400500  0.41670200  0.07031400  1
  N  1234  1  0.77716200  0.41323600  0.07519500  1
  N  1255  1  0.85398600  0.92986800  0.23477800  1
  N  1258  1  0.77713700  0.92501600  0.22643200  1
  N  1279  1  0.85396500  0.76539800  0.58347800  1
  N  1282  1  0.77712600  0.77378200  0.58697600  1
  N  1303  1  0.09036400  0.61754300  0.94203300  1
  N  1306  1  0.03609900  0.64017200  0.97443700  1
  N  1327  1  0.09035800  0.43626200  0.38262100  1
  N  1330  1  0.03606700  0.44603900  0.36000100  1
  N  1351  1  0.09035200  0.05819100  0.56392100  1
  N  1354  1  0.03609100  0.02578000  0.55414100  1
  N  1375  1  0.59035800  0.45709300  0.98365500  1
  N  1378  1  0.53611700  0.43445800  0.95123100  1
  N  1399  1  0.59035500  0.63840600  0.54306800  1
  N  1402  1  0.53608200  0.62862600  0.56569700  1
  N  1423  1  0.59034700  0.01650600  0.36181700  1
  N  1426  1  0.53608800  0.04891500  0.37159400  1
  N  1447  1  0.02540700  0.45813900  0.98503700  1
  N  1450  1  0.07650200  0.43460800  0.95044200  1
  N  1471  1  0.02543300  0.63871700  0.54203700  1
  N  1474  1  0.07652900  0.62765700  0.56557700  1
  N  1495  1  0.02544500  0.01510300  0.36145700  1
  N  1498  1  0.07654000  0.04970200  0.37251300  1
  N  1519  1  0.52543400  0.61651600  0.94065400  1
  N  1522  1  0.57651200  0.64006900  0.97525500  1
  N  1543  1  0.52543900  0.43593500  0.38367800  1
  N  1546  1  0.57652300  0.44700300  0.36013700  1
  N  1567  1  0.52541300  0.05951300  0.56422900  1
  N  1570  1  0.57650900  0.02491800  0.55316600  1
  N  1591  1  0.04273700  0.59384400  0.12655300  1
  N  1594  1  0.03499800  0.63565100  0.12892500  1
  N  1615  1  0.04267900  0.64443400  0.40633500  1
  N  1618  1  0.03490400  0.60501100  0.36452600  1
  N  1639  1  0.04269300  0.87370500  0.35572300  1
  N  1642  1  0.03491600  0.87134200  0.39516100  1
  N  1663  1  0.54274600  0.48085200  0.79916300  1
  N  1666  1  0.53491100  0.43906500  0.79682400  1
  N  1687  1  0.54273200  0.43014300  0.51934000  1
  N  1690  1  0.53500100  0.46957200  0.56115400  1
  N  1711  1  0.54266800  0.20096800  0.56995100  1
  N  1714  1  0.53490500  0.20335500  0.53052800  1
  N  1735  1  0.07061100  0.42986500  0.79931900  1
  N  1738  1  0.07852000  0.46931800  0.79699400  1
  N  1759  1  0.07059700  0.20093300  0.51892600  1
  N  1762  1  0.07852600  0.20323600  0.56069300  1
  N  1783  1  0.07057900  0.48126600  0.57037400  1
  N  1786  1  0.07845800  0.43947800  0.53093000  1
  N  1807  1  0.57065800  0.64476700  0.12638200  1
  N  1810  1  0.57852900  0.60532700  0.12873300  1
  N  1831  1  0.57060900  0.87379500  0.40678400  1
  N  1834  1  0.57852000  0.87146900  0.36500600  1
  N  1855  1  0.57058200  0.59339100  0.35532400  1
  N  1858  1  0.57852600  0.63515800  0.39478400  1
