# generated using pymatgen
data_H96C125N12
_symmetry_space_group_name_H-M   'P 1'
_cell_length_a   44.60730197
_cell_length_b   44.60730197
_cell_length_c   44.60689944
_cell_angle_alpha   105.15156813
_cell_angle_beta   105.15172987
_cell_angle_gamma   118.50629232
_symmetry_Int_Tables_number   1
_chemical_formula_structural   H96C125N12
_chemical_formula_sum   'H384 C500 N48'
_cell_volume   67034.43361297
_cell_formula_units_Z   4
loop_
 _symmetry_equiv_pos_site_id
 _symmetry_equiv_pos_as_xyz
  1  'x, y, z'
loop_
 _atom_site_type_symbol
 _atom_site_label
 _atom_site_symmetry_multiplicity
 _atom_site_fract_x
 _atom_site_fract_y
 _atom_site_fract_z
 _atom_site_occupancy
  C  1  1  0.05058500  0.79245450  0.12934450  1
  C  2  1  0.03105500  0.77099200  0.09257900  1
  C  3  1  0.03649600  0.78876750  0.07056750  1
  C  4  1  0.06220300  0.82906750  0.08587450  1
  C  5  1  0.08295650  0.85133250  0.12249100  1
  C  6  1  0.07660800  0.83271550  0.14375250  1
  C  7  1  0.01597600  0.76622400  0.03375000  1
  C  8  1  0.01608500  0.73448200  0.01748600  1
  C  9  1  0.99203700  0.70931300  0.98173000  1
  C  10  1  0.96720750  0.71527600  0.96154050  1
  C  11  1  0.96783500  0.74749100  0.97735500  1
  C  12  1  0.99225400  0.77297000  0.01305000  1
  C  13  1  0.04486950  0.77393000  0.15119050  1
  C  14  1  0.00787350  0.74283750  0.14287500  1
  C  15  1  0.00243700  0.72434650  0.16416450  1
  C  16  1  0.03382100  0.73657750  0.19448050  1
  C  17  1  0.07072500  0.76788250  0.20336350  1
  C  18  1  0.07617400  0.78600450  0.18183950  1
  C  19  1  0.11148850  0.89139000  0.13778650  1
  C  20  1  0.14957900  0.90733250  0.16085050  1
  C  21  1  0.17845450  0.94669000  0.17526550  1
  C  22  1  0.16973500  0.97115500  0.16750900  1
  C  23  1  0.13180200  0.95545650  0.14465750  1
  C  24  1  0.10298400  0.91590400  0.12969400  1
  C  46  1  0.68988850  0.45141300  0.42759550  1
  C  47  1  0.70518900  0.46865700  0.46436000  1
  C  48  1  0.74497450  0.49612900  0.48637150  1
  C  49  1  0.76996700  0.50653200  0.47106600  1
  C  50  1  0.75561750  0.49066000  0.43444950  1
  C  51  1  0.71574000  0.46303800  0.41318900  1
  C  52  1  0.75925250  0.51243050  0.52318900  1
  C  53  1  0.74376900  0.52879950  0.53944950  1
  C  54  1  0.75436350  0.54052850  0.57521100  1
  C  55  1  0.78046950  0.53582750  0.59538200  1
  C  56  1  0.79693650  0.52071450  0.57960000  1
  C  57  1  0.78666650  0.50937650  0.54389200  1
  C  58  1  0.64951900  0.42383550  0.40574950  1
  C  59  1  0.62674750  0.39515900  0.41407050  1
  C  60  1  0.58696700  0.36843550  0.39279050  1
  C  61  1  0.56887550  0.36948850  0.36246700  1
  C  62  1  0.59129350  0.39749000  0.35356550  1
  C  63  1  0.63093950  0.42446550  0.37508400  1
  C  64  1  0.78037700  0.50389900  0.41915300  1
  C  65  1  0.77324250  0.51891100  0.39607750  1
  C  66  1  0.79818400  0.53337200  0.38166100  1
  C  67  1  0.83041400  0.53242450  0.38942750  1
  C  68  1  0.83758000  0.51736050  0.41228950  1
  C  69  1  0.81298950  0.50349900  0.42725050  1
  C  91  1  0.29075300  0.19158850  0.26862450  1
  C  92  1  0.26929900  0.20689900  0.26669000  1
  C  93  1  0.28708450  0.24669100  0.27903150  1
  C  94  1  0.32738850  0.27168250  0.29367200  1
  C  95  1  0.34963850  0.25731400  0.29513450  1
  C  96  1  0.33101300  0.21743400  0.28285500  1
  C  97  1  0.26454700  0.26097000  0.27700300  1
  C  98  1  0.23280500  0.24549150  0.24515050  1
  C  99  1  0.20763700  0.25608000  0.24402800  1
  C  100  1  0.21359800  0.28223100  0.27482000  1
  C  101  1  0.24583750  0.29867200  0.30640350  1
  C  102  1  0.27127250  0.28839650  0.30747200  1
  C  103  1  0.27222150  0.15121850  0.25582300  1
  C  104  1  0.24112600  0.12844900  0.26172800  1
  C  105  1  0.22262450  0.08866850  0.24867400  1
  C  106  1  0.23485950  0.07057600  0.22953550  1
  C  107  1  0.26616900  0.09298800  0.22393700  1
  C  108  1  0.28429700  0.13263450  0.23660450  1
  C  109  1  0.38969800  0.28207400  0.30666400  1
  C  110  1  0.40564250  0.27493600  0.28452350  1
  C  111  1  0.44499500  0.29989450  0.29499450  1
  C  112  1  0.46946050  0.33212000  0.32817750  1
  C  113  1  0.45376700  0.33926800  0.35041700  1
  C  114  1  0.41421600  0.31467300  0.33968700  1
  C  136  1  0.94970500  0.55226850  0.28828850  1
  C  137  1  0.96695750  0.53275650  0.29023500  1
  C  138  1  0.99442250  0.53821350  0.27791300  1
  C  139  1  0.00481550  0.56391800  0.26331650  1
  C  140  1  0.98893550  0.58465550  0.26179200  1
  C  141  1  0.96131350  0.57828900  0.27404750  1
  C  142  1  0.01073700  0.51771150  0.27994650  1
  C  143  1  0.02710100  0.51782500  0.31180800  1
  C  144  1  0.03884350  0.49380700  0.31295450  1
  C  145  1  0.03416950  0.46894800  0.28215950  1
  C  146  1  0.01900100  0.46956700  0.25056300  1
  C  147  1  0.00773050  0.49398750  0.24949000  1
  C  148  1  0.92213900  0.54654500  0.30109300  1
  C  149  1  0.89347400  0.50955100  0.29520500  1
  C  150  1  0.86674900  0.50411050  0.30826050  1
  C  151  1  0.86779600  0.53548750  0.32739250  1
  C  152  1  0.89579700  0.57238900  0.33297200  1
  C  153  1  0.92277600  0.57784350  0.32030650  1
  C  154  1  0.00216900  0.61319150  0.25027050  1
  C  155  1  0.01715450  0.65127050  0.27241000  1
  C  156  1  0.03165550  0.68015850  0.26194800  1
  C  157  1  0.03070800  0.67145200  0.22877000  1
  C  158  1  0.01562400  0.63352050  0.20652850  1
  C  159  1  0.00177350  0.60469850  0.21726000  1
  C  181  1  0.80616050  0.06770350  0.92758300  1
  C  182  1  0.82568550  0.08916750  0.96434800  1
  C  183  1  0.82023500  0.07139450  0.98636050  1
  C  184  1  0.79454300  0.03109300  0.97105900  1
  C  185  1  0.77377100  0.00883300  0.93444200  1
  C  186  1  0.78012550  0.02744500  0.91317850  1
  C  187  1  0.84075300  0.09394050  0.02317650  1
  C  188  1  0.84061000  0.12566300  0.03943200  1
  C  189  1  0.86467800  0.15085700  0.07518200  1
  C  190  1  0.88950650  0.14490000  0.09538450  1
  C  191  1  0.88886900  0.11267150  0.07959150  1
  C  192  1  0.86448750  0.08721400  0.04388650  1
  C  193  1  0.81188250  0.08622350  0.90573500  1
  C  194  1  0.84888150  0.11731350  0.91405200  1
  C  195  1  0.85432250  0.13581350  0.89277100  1
  C  196  1  0.82294200  0.12358050  0.86244950  1
  C  197  1  0.78603850  0.09227000  0.85355850  1
  C  198  1  0.78058500  0.07414050  0.87507450  1
  C  199  1  0.74523650  0.96877450  0.91914600  1
  C  200  1  0.70715050  0.95283150  0.89607300  1
  C  201  1  0.67826950  0.91347650  0.88166900  1
  C  202  1  0.68698850  0.88901300  0.88942950  1
  C  203  1  0.72492100  0.90470600  0.91227100  1
  C  204  1  0.75373800  0.94425900  0.92724100  1
  C  226  1  0.16688200  0.40880250  0.62935850  1
  C  227  1  0.15157850  0.39156150  0.59259400  1
  C  228  1  0.11179050  0.36411250  0.57058300  1
  C  229  1  0.08679050  0.35375100  0.58588850  1
  C  230  1  0.10115000  0.36958000  0.62250500  1
  C  231  1  0.14103000  0.39719000  0.64376600  1
  C  232  1  0.09751700  0.34779950  0.53376550  1
  C  233  1  0.11299950  0.33142500  0.51751150  1
  C  234  1  0.10240700  0.31969800  0.48175200  1
  C  235  1  0.07624700  0.32432200  0.46155100  1
  C  236  1  0.05980550  0.33947000  0.47734350  1
  C  237  1  0.07008550  0.35083000  0.51305550  1
  C  238  1  0.20725300  0.43636100  0.65120500  1
  C  239  1  0.23003300  0.46503750  0.64288850  1
  C  240  1  0.26981450  0.49175300  0.66417050  1
  C  241  1  0.28789400  0.49069250  0.69449450  1
  C  242  1  0.26547000  0.46267800  0.70338100  1
  C  243  1  0.22582450  0.43570950  0.68185600  1
  C  244  1  0.07639200  0.35633300  0.63780300  1
  C  245  1  0.08353000  0.34131400  0.66086900  1
  C  246  1  0.05858100  0.32682650  0.67527250  1
  C  247  1  0.02634550  0.32776350  0.66750800  1
  C  248  1  0.01918950  0.34286100  0.64467350  1
  C  249  1  0.04378100  0.35673650  0.62971650  1
  C  271  1  0.56600450  0.66858650  0.78832200  1
  C  272  1  0.58746700  0.65328550  0.79025650  1
  C  273  1  0.56969400  0.61349850  0.77793350  1
  C  274  1  0.52939500  0.58850500  0.76334800  1
  C  275  1  0.50712900  0.60285550  0.76183350  1
  C  276  1  0.52574450  0.64273250  0.77409500  1
  C  277  1  0.59223400  0.59922350  0.77995150  1
  C  278  1  0.62398200  0.61470700  0.81180300  1
  C  279  1  0.64916250  0.60413350  0.81292300  1
  C  280  1  0.64320800  0.57800250  0.78212050  1
  C  281  1  0.61095050  0.56153050  0.75054500  1
  C  282  1  0.58551950  0.57180950  0.74948000  1
  C  283  1  0.58452550  0.70895500  0.80111750  1
  C  284  1  0.61561900  0.73173000  0.79521500  1
  C  285  1  0.63410350  0.77150600  0.80825550  1
  C  286  1  0.62186900  0.78959450  0.82740250  1
  C  287  1  0.59056150  0.76717450  0.83299900  1
  C  288  1  0.57244000  0.72753200  0.82032900  1
  C  289  1  0.46707150  0.57809500  0.75031050  1
  C  290  1  0.45113400  0.58522250  0.77246050  1
  C  291  1  0.41177450  0.56028700  0.76197650  1
  C  292  1  0.38730700  0.52806400  0.72879500  1
  C  293  1  0.40300200  0.52090650  0.70655850  1
  C  294  1  0.44255450  0.54549250  0.71729100  1
  C  316  1  0.90705900  0.30788650  0.76864750  1
  C  317  1  0.88981750  0.32740800  0.76671050  1
  C  318  1  0.86235850  0.32195950  0.77903900  1
  C  319  1  0.85197650  0.29627000  0.79365150  1
  C  320  1  0.86782150  0.27549800  0.79513650  1
  C  321  1  0.89543450  0.28185200  0.78287350  1
  C  322  1  0.84605550  0.34247350  0.77701200  1
  C  323  1  0.82969350  0.34237400  0.74516350  1
  C  324  1  0.81797450  0.36641450  0.74404200  1
  C  325  1  0.82260050  0.39123200  0.77483250  1
  C  326  1  0.83775200  0.39057800  0.80641600  1
  C  327  1  0.84908850  0.36620700  0.80748050  1
  C  328  1  0.93462400  0.31360750  0.75584150  1
  C  329  1  0.96330450  0.35060500  0.76174950  1
  C  330  1  0.99002750  0.35604650  0.74869200  1
  C  331  1  0.98897150  0.32466650  0.72954700  1
  C  332  1  0.96095550  0.28776150  0.72395000  1
  C  333  1  0.93397850  0.28230700  0.73661650  1
  C  334  1  0.85458250  0.24696450  0.80666100  1
  C  335  1  0.83955650  0.20887550  0.78450700  1
  C  336  1  0.82507900  0.17999200  0.79497900  1
  C  337  1  0.82603350  0.18870650  0.82815900  1
  C  338  1  0.84112150  0.22663850  0.85040300  1
  C  339  1  0.85499000  0.25546250  0.83967650  1
  C  721  1  0.07874350  0.41796600  0.29508450  1
  C  722  1  0.08807900  0.41074000  0.32385900  1
  C  723  1  0.08101700  0.37510200  0.31887100  1
  C  724  1  0.06314000  0.34477350  0.28499750  1
  C  725  1  0.05783050  0.35415750  0.25684100  1
  C  726  1  0.06472650  0.38966450  0.26157800  1
  C  727  1  0.05335800  0.30506900  0.27848300  1
  C  728  1  0.08654950  0.30832850  0.27197500  1
  C  729  1  0.08301750  0.29234900  0.23810450  1
  C  730  1  0.11366700  0.29440650  0.23312950  1
  C  731  1  0.14967150  0.31385800  0.26190550  1
  C  732  1  0.15485800  0.33332650  0.29540950  1
  C  733  1  0.12408400  0.33116600  0.30013900  1
  C  734  1  0.05008950  0.29528850  0.30840600  1
  C  735  1  0.01365700  0.27187850  0.24855050  1
  C  736  1  0.00427600  0.23434200  0.23384700  1
  C  737  1  0.96877200  0.20357700  0.20523000  1
  C  738  1  0.94047500  0.20878400  0.19094100  1
  C  739  1  0.94769750  0.24478150  0.20751600  1
  C  740  1  0.98333250  0.27542850  0.23609600  1
  C  741  1  0.02722150  0.30058200  0.32308050  1
  C  742  1  0.02506150  0.29369300  0.35169550  1
  C  743  1  0.04455850  0.27968700  0.36598950  1
  C  744  1  0.06398750  0.27033450  0.34942600  1
  C  745  1  0.06606050  0.27738800  0.32084650  1
  C  762  1  0.90603000  0.17828950  0.15709450  1
  C  763  1  0.07934750  0.45241350  0.29902400  1
  C  764  1  0.18018950  0.31054250  0.25797000  1
  C  765  1  0.04791100  0.27911450  0.39984650  1
  C  827  1  0.91625900  0.65141150  0.86597650  1
  C  828  1  0.90905400  0.61542050  0.84941750  1
  C  829  1  0.87342650  0.58476750  0.82083400  1
  C  830  1  0.84307600  0.58828650  0.80839550  1
  C  831  1  0.85244450  0.62582150  0.82307700  1
  C  832  1  0.88794600  0.65660100  0.85168900  1
  C  833  1  0.80337450  0.55508450  0.77847400  1
  C  834  1  0.80661450  0.56483900  0.74853350  1
  C  835  1  0.79063050  0.58272600  0.73608950  1
  C  836  1  0.79267700  0.58975750  0.70749350  1
  C  837  1  0.81213300  0.58044250  0.69094250  1
  C  838  1  0.83162050  0.56642450  0.70522700  1
  C  839  1  0.82945650  0.55952350  0.73383500  1
  C  840  1  0.79362050  0.51539200  0.77197350  1
  C  841  1  0.77018400  0.55181650  0.78498750  1
  C  842  1  0.73264100  0.52895950  0.75683250  1
  C  843  1  0.70187200  0.52680450  0.76156850  1
  C  844  1  0.70708150  0.54631550  0.79507000  1
  C  845  1  0.74308450  0.56575950  0.82384400  1
  C  846  1  0.77372400  0.56780050  0.81886150  1
  C  847  1  0.79894900  0.50602650  0.80014150  1
  C  848  1  0.79202850  0.47051200  0.79541550  1
  C  849  1  0.77801800  0.44220550  0.76191550  1
  C  850  1  0.76866700  0.44941400  0.73313100  1
  C  851  1  0.77570600  0.48504100  0.73810600  1
  C  868  1  0.67658650  0.54967400  0.79901050  1
  C  869  1  0.95069550  0.68192100  0.89982650  1
  C  870  1  0.80879400  0.58103300  0.65709400  1
  C  871  1  0.77741650  0.40776150  0.75798100  1
  C  933  1  0.07251000  0.61148950  0.92645450  1
  C  934  1  0.05298000  0.59002700  0.88968900  1
  C  935  1  0.05842100  0.60780250  0.86767750  1
  C  936  1  0.08412800  0.64810250  0.88298450  1
  C  937  1  0.10488150  0.67036750  0.91960100  1
  C  938  1  0.09853300  0.65175050  0.94086250  1
  C  939  1  0.03790100  0.58525900  0.83086000  1
  C  940  1  0.03801000  0.55351700  0.81459600  1
  C  941  1  0.01396200  0.52834800  0.77884000  1
  C  942  1  0.98913250  0.53431100  0.75865050  1
  C  943  1  0.98976000  0.56652600  0.77446500  1
  C  944  1  0.01417900  0.59200500  0.81016000  1
  C  945  1  0.06679450  0.59296500  0.94830050  1
  C  946  1  0.02979850  0.56187250  0.93998500  1
  C  947  1  0.02436200  0.54338150  0.96127450  1
  C  948  1  0.05574600  0.55561250  0.99159050  1
  C  949  1  0.09265000  0.58691750  0.00047350  1
  C  950  1  0.09809900  0.60503950  0.97894950  1
  C  951  1  0.13341350  0.71042500  0.93489650  1
  C  952  1  0.17150400  0.72636750  0.95796050  1
  C  953  1  0.20037950  0.76572500  0.97237550  1
  C  954  1  0.19165986  0.79018986  0.96461900  1
  C  955  1  0.15372700  0.77449150  0.94176750  1
  C  956  1  0.12490900  0.73493900  0.92680400  1
  C  978  1  0.71181350  0.27044800  0.22470550  1
  C  979  1  0.72711400  0.28769185  0.26146985  1
  C  980  1  0.76689950  0.31516385  0.28348135  1
  C  981  1  0.79189200  0.32556685  0.26817585  1
  C  982  1  0.77754250  0.30969500  0.23155950  1
  C  983  1  0.73766500  0.28207300  0.21029900  1
  C  984  1  0.78117750  0.33146535  0.32029885  1
  C  985  1  0.76569400  0.34783435  0.33655935  1
  C  986  1  0.77628850  0.35956335  0.37232085  1
  C  987  1  0.80239450  0.35486235  0.39249185  1
  C  988  1  0.81886150  0.33974935  0.37670985  1
  C  989  1  0.80859150  0.32841135  0.34100185  1
  C  990  1  0.67144400  0.24287050  0.20285950  1
  C  991  1  0.64867250  0.21419400  0.21118050  1
  C  992  1  0.60889200  0.18747050  0.18990050  1
  C  993  1  0.59080050  0.18852350  0.15957700  1
  C  994  1  0.61321850  0.21652500  0.15067550  1
  C  995  1  0.65286450  0.24350050  0.17219400  1
  C  996  1  0.80230200  0.32293400  0.21626300  1
  C  997  1  0.79516750  0.33794600  0.19318750  1
  C  998  1  0.82010900  0.35240700  0.17877100  1
  C  999  1  0.85233887  0.35145936  0.18653750  1
  C  1000  1  0.85950500  0.33639550  0.20939950  1
  C  1001  1  0.83491450  0.32253400  0.22436050  1
  C  1023  1  0.31267800  0.01062350  0.06573450  1
  C  1024  1  0.29122400  0.02593400  0.06380000  1
  C  1025  1  0.30900950  0.06572585  0.07614135  1
  C  1026  1  0.34931350  0.09071735  0.09078185  1
  C  1027  1  0.37156350  0.07634900  0.09224450  1
  C  1028  1  0.35293800  0.03646900  0.07996500  1
  C  1029  1  0.28647200  0.08000485  0.07411285  1
  C  1030  1  0.25473000  0.06452635  0.04226035  1
  C  1031  1  0.22956200  0.07511485  0.04113785  1
  C  1032  1  0.23552300  0.10126585  0.07192985  1
  C  1033  1  0.26776250  0.11770685  0.10351335  1
  C  1034  1  0.29319750  0.10743135  0.10458185  1
  C  1035  1  0.29414650  0.97025350  0.05293300  1
  C  1036  1  0.26305085  0.94748385  0.05883800  1
  C  1037  1  0.24454935  0.90770335  0.04578400  1
  C  1038  1  0.25678435  0.88961085  0.02664550  1
  C  1039  1  0.28809385  0.91202285  0.02104700  1
  C  1040  1  0.30622200  0.95166950  0.03371450  1
  C  1041  1  0.41162300  0.10110900  0.10377400  1
  C  1042  1  0.42756750  0.09397100  0.08163350  1
  C  1043  1  0.46692000  0.11892950  0.09210450  1
  C  1044  1  0.49138550  0.15115500  0.12528750  1
  C  1045  1  0.47569200  0.15830285  0.14752685  1
  C  1046  1  0.43614100  0.13370785  0.13679685  1
  C  1068  1  0.97163000  0.37130350  0.08539850  1
  C  1069  1  0.98888250  0.35179150  0.08734500  1
  C  1070  1  0.01634750  0.35724850  0.07502300  1
  C  1071  1  0.02674050  0.38295300  0.06042650  1
  C  1072  1  0.01086050  0.40369050  0.05890200  1
  C  1073  1  0.98323850  0.39732400  0.07115750  1
  C  1074  1  0.03266200  0.33674650  0.07705650  1
  C  1075  1  0.04902600  0.33686000  0.10891800  1
  C  1076  1  0.06076850  0.31284200  0.11006450  1
  C  1077  1  0.05609450  0.28798300  0.07926950  1
  C  1078  1  0.04092600  0.28860200  0.04767300  1
  C  1079  1  0.02965550  0.31302250  0.04660000  1
  C  1080  1  0.94406400  0.36558000  0.09820300  1
  C  1081  1  0.91539885  0.32858585  0.09231500  1
  C  1082  1  0.88867385  0.32314535  0.10537050  1
  C  1083  1  0.88972085  0.35452235  0.12450250  1
  C  1084  1  0.91772185  0.39142385  0.13008200  1
  C  1085  1  0.94470100  0.39687850  0.11741650  1
  C  1086  1  0.02409400  0.43222650  0.04738050  1
  C  1087  1  0.03907950  0.47030550  0.06952000  1
  C  1088  1  0.05358050  0.49919350  0.05905800  1
  C  1089  1  0.05263300  0.49048700  0.02588000  1
  C  1090  1  0.03754900  0.45255550  0.00363850  1
  C  1091  1  0.02369850  0.42373350  0.01437000  1
  C  1113  1  0.82808550  0.88673850  0.72469300  1
  C  1114  1  0.84761050  0.90820235  0.76145785  1
  C  1115  1  0.84216000  0.89042935  0.78347035  1
  C  1116  1  0.81646800  0.85012785  0.76816885  1
  C  1117  1  0.79569600  0.82786800  0.73155200  1
  C  1118  1  0.80205050  0.84648000  0.71028850  1
  C  1119  1  0.86267800  0.91297535  0.82028635  1
  C  1120  1  0.86253500  0.94469785  0.83654185  1
  C  1121  1  0.88660300  0.96989185  0.87229185  1
  C  1122  1  0.91143150  0.96393485  0.89249435  1
  C  1123  1  0.91079400  0.93170635  0.87670135  1
  C  1124  1  0.88641250  0.90624885  0.84099635  1
  C  1125  1  0.83380735  0.90525835  0.70284500  1
  C  1126  1  0.87080635  0.93634835  0.71116200  1
  C  1127  1  0.87624735  0.95484835  0.68988100  1
  C  1128  1  0.84486685  0.94261535  0.65955950  1
  C  1129  1  0.80796335  0.91130485  0.65066850  1
  C  1130  1  0.80250985  0.89317535  0.67218450  1
  C  1131  1  0.76716150  0.78780950  0.71625600  1
  C  1132  1  0.72907550  0.77186650  0.69318300  1
  C  1133  1  0.70019450  0.73251150  0.67877900  1
  C  1134  1  0.70891350  0.70804800  0.68653950  1
  C  1135  1  0.74684600  0.72374100  0.70938100  1
  C  1136  1  0.77566300  0.76329400  0.72435100  1
  C  1158  1  0.18880700  0.22783750  0.42646850  1
  C  1159  1  0.17350350  0.21059650  0.38970400  1
  C  1160  1  0.13371550  0.18314750  0.36769300  1
  C  1161  1  0.10871550  0.17278600  0.38299850  1
  C  1162  1  0.12307500  0.18861500  0.41961500  1
  C  1163  1  0.16295500  0.21622500  0.44087600  1
  C  1164  1  0.11944200  0.16683450  0.33087550  1
  C  1165  1  0.13492450  0.15046000  0.31462150  1
  C  1166  1  0.12433200  0.13873300  0.27886200  1
  C  1167  1  0.09817200  0.14335700  0.25866100  1
  C  1168  1  0.08173050  0.15850500  0.27445350  1
  C  1169  1  0.09201050  0.16986500  0.31016550  1
  C  1170  1  0.22917785  0.25539585  0.44831500  1
  C  1171  1  0.25195785  0.28407235  0.43999850  1
  C  1172  1  0.29173935  0.31078785  0.46128050  1
  C  1173  1  0.30981885  0.30972735  0.49160450  1
  C  1174  1  0.28739485  0.28171285  0.50049100  1
  C  1175  1  0.24774935  0.25474435  0.47896600  1
  C  1176  1  0.09831700  0.17536800  0.43491300  1
  C  1177  1  0.10545500  0.16034900  0.45797900  1
  C  1178  1  0.08050600  0.14586150  0.47238250  1
  C  1179  1  0.04827050  0.14679850  0.46461800  1
  C  1180  1  0.04111450  0.16189600  0.44178350  1
  C  1181  1  0.06570600  0.17577150  0.42682650  1
  C  1203  1  0.58792950  0.48762150  0.58543200  1
  C  1204  1  0.60939200  0.47232050  0.58736650  1
  C  1205  1  0.59161900  0.43253350  0.57504350  1
  C  1206  1  0.55132000  0.40754000  0.56045800  1
  C  1207  1  0.52905400  0.42189050  0.55894350  1
  C  1208  1  0.54766950  0.46176750  0.57120500  1
  C  1209  1  0.61415900  0.41825850  0.57706150  1
  C  1210  1  0.64590700  0.43374200  0.60891300  1
  C  1211  1  0.67108750  0.42316850  0.61003300  1
  C  1212  1  0.66513300  0.39703750  0.57923050  1
  C  1213  1  0.63287550  0.38056550  0.54765500  1
  C  1214  1  0.60744450  0.39084450  0.54659000  1
  C  1215  1  0.60645050  0.52799000  0.59822750  1
  C  1216  1  0.63754400  0.55076500  0.59232500  1
  C  1217  1  0.65602850  0.59054100  0.60536550  1
  C  1218  1  0.64379400  0.60862950  0.62451250  1
  C  1219  1  0.61248650  0.58620950  0.63010900  1
  C  1220  1  0.59436500  0.54656700  0.61743900  1
  C  1221  1  0.48899650  0.39713000  0.54742050  1
  C  1222  1  0.47305900  0.40425750  0.56957050  1
  C  1223  1  0.43369950  0.37932200  0.55908650  1
  C  1224  1  0.40923200  0.34709900  0.52590500  1
  C  1225  1  0.42492700  0.33994150  0.50366850  1
  C  1226  1  0.46447950  0.36452750  0.51440100  1
  C  1248  1  0.92898400  0.12692150  0.56575750  1
  C  1249  1  0.91174250  0.14644300  0.56382050  1
  C  1250  1  0.88428350  0.14099435  0.57614885  1
  C  1251  1  0.87390150  0.11530485  0.59076135  1
  C  1252  1  0.88974650  0.09453300  0.59224650  1
  C  1253  1  0.91735950  0.10088700  0.57998350  1
  C  1254  1  0.86798050  0.16150835  0.57412185  1
  C  1255  1  0.85161850  0.16140885  0.54227335  1
  C  1256  1  0.83989950  0.18544935  0.54115185  1
  C  1257  1  0.84452550  0.21026685  0.57194235  1
  C  1258  1  0.85967700  0.20961285  0.60352585  1
  C  1259  1  0.87101350  0.18524185  0.60459035  1
  C  1260  1  0.95654900  0.13264250  0.55295150  1
  C  1261  1  0.98522950  0.16964000  0.55885950  1
  C  1262  1  0.01195250  0.17508150  0.54580200  1
  C  1263  1  0.01089650  0.14370150  0.52665700  1
  C  1264  1  0.98288050  0.10679650  0.52106000  1
  C  1265  1  0.95590350  0.10134200  0.53372650  1
  C  1266  1  0.87650750  0.06599950  0.60377100  1
  C  1267  1  0.86148150  0.02791050  0.58161700  1
  C  1268  1  0.84700400  0.99902700  0.59208900  1
  C  1269  1  0.84795850  0.00774150  0.62526900  1
  C  1270  1  0.86304650  0.04567335  0.64751285  1
  C  1271  1  0.87691500  0.07449735  0.63678635  1
  C  1653  1  0.10066850  0.23700100  0.09219450  1
  C  1654  1  0.11000400  0.22977500  0.12096900  1
  C  1655  1  0.10294185  0.19413685  0.11598100  1
  C  1656  1  0.08506485  0.16380835  0.08210750  1
  C  1657  1  0.07975535  0.17319235  0.05395100  1
  C  1658  1  0.08665150  0.20869950  0.05868800  1
  C  1659  1  0.07528285  0.12410385  0.07559300  1
  C  1660  1  0.10847435  0.12736335  0.06908500  1
  C  1661  1  0.10494235  0.11138385  0.03521450  1
  C  1662  1  0.13559200  0.11344150  0.03023950  1
  C  1663  1  0.17159650  0.13289300  0.05901550  1
  C  1664  1  0.17678300  0.15236150  0.09251950  1
  C  1665  1  0.14600885  0.15020085  0.09724900  1
  C  1666  1  0.07201435  0.11432335  0.10551600  1
  C  1667  1  0.03558185  0.09091335  0.04566050  1
  C  1668  1  0.02620085  0.05337685  0.03095700  1
  C  1669  1  0.99069687  0.02261187  0.00234000  1
  C  1670  1  0.96239987  0.02781887  0.98805100  1
  C  1671  1  0.96962235  0.06381635  0.00462600  1
  C  1672  1  0.00525735  0.09446335  0.03320600  1
  C  1673  1  0.04914635  0.11961685  0.12019050  1
  C  1674  1  0.04698636  0.11272786  0.14880550  1
  C  1675  1  0.06648336  0.09872186  0.16309950  1
  C  1676  1  0.08591235  0.08936935  0.14653600  1
  C  1677  1  0.08798535  0.09642285  0.11795650  1
  C  1694  1  0.92795500  0.99732450  0.95420450  1
  C  1695  1  0.10127250  0.27144850  0.09613400  1
  C  1696  1  0.20211450  0.12957737  0.05507987  1
  C  1697  1  0.06983600  0.09814950  0.19695650  1
  C  1759  1  0.93818400  0.47044650  0.66308650  1
  C  1760  1  0.93097900  0.43445550  0.64652750  1
  C  1761  1  0.89535150  0.40380250  0.61794400  1
  C  1762  1  0.86500100  0.40732150  0.60550550  1
  C  1763  1  0.87436950  0.44485650  0.62018700  1
  C  1764  1  0.90987100  0.47563600  0.64879900  1
  C  1765  1  0.82529950  0.37411950  0.57558400  1
  C  1766  1  0.82853950  0.38387400  0.54564350  1
  C  1767  1  0.81255550  0.40176100  0.53319950  1
  C  1768  1  0.81460200  0.40879250  0.50460350  1
  C  1769  1  0.83405800  0.39947750  0.48805250  1
  C  1770  1  0.85354550  0.38545950  0.50233700  1
  C  1771  1  0.85138150  0.37855850  0.53094500  1
  C  1772  1  0.81554550  0.33442700  0.56908350  1
  C  1773  1  0.79210900  0.37085150  0.58209750  1
  C  1774  1  0.75456600  0.34799450  0.55394250  1
  C  1775  1  0.72379700  0.34583950  0.55867850  1
  C  1776  1  0.72900650  0.36535050  0.59218000  1
  C  1777  1  0.76500950  0.38479450  0.62095400  1
  C  1778  1  0.79564900  0.38683550  0.61597150  1
  C  1779  1  0.82087400  0.32506150  0.59725150  1
  C  1780  1  0.81395350  0.28954700  0.59252550  1
  C  1781  1  0.79994300  0.26124050  0.55902550  1
  C  1782  1  0.79059200  0.26844900  0.53024100  1
  C  1783  1  0.79763100  0.30407600  0.53521600  1
  C  1800  1  0.69851150  0.36870900  0.59612050  1
  C  1801  1  0.97262050  0.50095600  0.69693650  1
  C  1802  1  0.83071900  0.40006800  0.45420400  1
  C  1803  1  0.79934150  0.22679637  0.55509087  1
  H  25  1  0.97539850  0.70206800  0.15758950  1
  H  26  1  0.98428600  0.73363900  0.12143500  1
  H  27  1  0.09386050  0.77744950  0.22543800  1
  H  28  1  0.10351150  0.80786200  0.18864550  1
  H  29  1  0.15687300  0.89024000  0.16660600  1
  H  30  1  0.20595550  0.95737100  0.19115850  1
  H  31  1  0.07569350  0.90519950  0.11308000  1
  H  32  1  0.12512100  0.97270250  0.13838650  1
  H  33  1  0.99062750  0.79496750  0.02423500  1
  H  34  1  0.94922150  0.75156900  0.96330450  1
  H  35  1  0.99106200  0.68542450  0.97092750  1
  H  36  1  0.03268300  0.72864050  0.03180950  1
  H  37  1  0.01255750  0.74175200  0.08152150  1
  H  38  1  0.09090100  0.84900950  0.17028550  1
  H  39  1  0.06717550  0.84214250  0.07018400  1
  H  41  1  0.92205750  0.66193050  0.92797900  1
  H  43  1  0.21789250  0.01342400  0.17143150  1
  H  45  1  0.03523650  0.73722500  0.23968550  1
  H  70  1  0.57126250  0.34799250  0.39938500  1
  H  71  1  0.63898850  0.39304350  0.43553300  1
  H  72  1  0.57877850  0.39855050  0.33149500  1
  H  73  1  0.64598200  0.44500550  0.36828050  1
  H  74  1  0.75038800  0.52043850  0.39031550  1
  H  75  1  0.79295800  0.54496150  0.36575450  1
  H  76  1  0.81890550  0.49283050  0.44387000  1
  H  77  1  0.86109700  0.51694750  0.41855750  1
  H  78  1  0.79756950  0.49666800  0.53272850  1
  H  79  1  0.81505050  0.51614200  0.59365450  1
  H  80  1  0.74117450  0.55022550  0.58597700  1
  H  81  1  0.72356250  0.53101950  0.52511600  1
  H  82  1  0.68700900  0.46121450  0.47542050  1
  H  83  1  0.70550350  0.45078500  0.38665450  1
  H  84  1  0.79873100  0.52720350  0.48675550  1
  H  86  1  0.76066150  0.52423850  0.62893200  1
  H  88  1  0.86874450  0.57664850  0.38548200  1
  H  90  1  0.52429750  0.32569100  0.31727550  1
  H  115  1  0.20033150  0.07296650  0.25341900  1
  H  116  1  0.23191350  0.14069500  0.27609250  1
  H  117  1  0.27573500  0.08047250  0.21037650  1
  H  118  1  0.30615650  0.14767800  0.23112250  1
  H  119  1  0.38854350  0.25211950  0.26012000  1
  H  120  1  0.45567350  0.29468850  0.27816900  1
  H  121  1  0.40351100  0.32058850  0.35627050  1
  H  122  1  0.47101600  0.36277950  0.37434950  1
  H  123  1  0.29327550  0.29922800  0.33109950  1
  H  124  1  0.24986850  0.31673250  0.32910400  1
  H  125  1  0.18374250  0.24298500  0.22111350  1
  H  126  1  0.22697400  0.22534200  0.22270700  1
  H  127  1  0.24005750  0.18872200  0.25593750  1
  H  128  1  0.34730350  0.20719050  0.28486500  1
  H  129  1  0.34046250  0.30044050  0.30172200  1
  H  131  1  0.16025200  0.26241600  0.26664300  1
  H  133  1  0.51173500  0.37045700  0.32228800  1
  H  135  1  0.23548200  0.02600700  0.22876500  1
  H  160  1  0.84629450  0.47707400  0.30351050  1
  H  161  1  0.89134050  0.48596850  0.28082900  1
  H  162  1  0.89684600  0.59551950  0.34653050  1
  H  163  1  0.94329750  0.60518150  0.32577700  1
  H  164  1  0.01872950  0.65856750  0.29680900  1
  H  165  1  0.04326250  0.70765850  0.27877300  1
  H  166  1  0.99111850  0.57741400  0.20067750  1
  H  167  1  0.01524500  0.62685100  0.18261400  1
  H  168  1  0.99492200  0.49235300  0.22586100  1
  H  169  1  0.01443450  0.45094100  0.22787750  1
  H  170  1  0.04860250  0.49279900  0.33586350  1
  H  171  1  0.02935200  0.53441350  0.33423550  1
  H  172  1  0.95952250  0.51426050  0.30098000  1
  H  173  1  0.94906100  0.59257000  0.27203600  1
  H  174  1  0.02548600  0.56890200  0.25522400  1
  H  176  1  0.02255700  0.42380000  0.29036900  1
  H  178  1  0.07495900  0.71961300  0.23467800  1
  H  180  1  0.82399200  0.53687900  0.32815100  1
  H  205  1  0.88136000  0.15810700  0.89935900  1
  H  206  1  0.87246250  0.12653450  0.93551200  1
  H  207  1  0.76290650  0.08270600  0.83148150  1
  H  208  1  0.75324400  0.05229500  0.86827300  1
  H  209  1  0.69985750  0.96992850  0.89032700  1
  H  210  1  0.65077000  0.90279600  0.86577300  1
  H  211  1  0.78102800  0.95496550  0.94385950  1
  H  212  1  0.73159800  0.88746250  0.91855450  1
  H  213  1  0.86610750  0.06520550  0.03272400  1
  H  214  1  0.90750300  0.10862100  0.09364800  1
  H  215  1  0.86565900  0.17475150  0.08597250  1
  H  216  1  0.82404300  0.13152150  0.02509750  1
  H  217  1  0.84417900  0.11840850  0.97540550  1
  H  218  1  0.76583700  0.01114800  0.88664400  1
  H  219  1  0.78954750  0.01803100  0.98675450  1
  H  221  1  0.93466100  0.19824950  0.12892850  1
  H  223  1  0.63883050  0.84674300  0.88550550  1
  H  225  1  0.82153800  0.12295400  0.81725400  1
  H  250  1  0.28552400  0.51220800  0.65759000  1
  H  251  1  0.21779600  0.46717050  0.62143450  1
  H  252  1  0.27797550  0.46162150  0.72545800  1
  H  253  1  0.21076950  0.41517850  0.68866400  1
  H  254  1  0.10636500  0.33975750  0.66660050  1
  H  255  1  0.06379200  0.31520350  0.69114950  1
  H  256  1  0.03786300  0.36741100  0.61310500  1
  H  257  1  0.99566700  0.34326150  0.63840550  1
  H  258  1  0.05924850  0.36362550  0.52422000  1
  H  259  1  0.04173500  0.34409550  0.46330250  1
  H  260  1  0.11550000  0.30987350  0.47095750  1
  H  261  1  0.13315150  0.32913850  0.53183600  1
  H  262  1  0.16976050  0.39898700  0.58153450  1
  H  263  1  0.15126850  0.40942250  0.67030000  1
  H  264  1  0.05803550  0.33303650  0.57020000  1
  H  266  1  0.09603450  0.33591300  0.42799250  1
  H  268  1  0.98801500  0.28352250  0.67143850  1
  H  270  1  0.33246300  0.53448050  0.73969450  1
  H  295  1  0.65639150  0.78721100  0.80350650  1
  H  296  1  0.62482450  0.71948650  0.78083700  1
  H  297  1  0.58100000  0.77968850  0.84656950  1
  H  298  1  0.55059300  0.71248650  0.82582650  1
  H  299  1  0.46822850  0.60806750  0.79684900  1
  H  300  1  0.40109750  0.56549900  0.77880150  1
  H  301  1  0.45325900  0.53957600  0.70070700  1
  H  302  1  0.38575350  0.49738650  0.68263200  1
  H  303  1  0.56345000  0.56090600  0.72587200  1
  H  304  1  0.60687800  0.54341300  0.72785300  1
  H  305  1  0.67309350  0.61729250  0.83582300  1
  H  306  1  0.62985400  0.63490600  0.83423300  1
  H  307  1  0.61670700  0.67146650  0.80099350  1
  H  308  1  0.50944750  0.65296900  0.77208250  1
  H  309  1  0.51632200  0.55974050  0.75524950  1
  H  311  1  0.69655700  0.59779050  0.79032250  1
  H  313  1  0.34503400  0.48972400  0.73468400  1
  H  315  1  0.62123350  0.83415800  0.82817250  1
  H  340  1  0.01047700  0.38308350  0.75343550  1
  H  341  1  0.96542900  0.37418600  0.77611300  1
  H  342  1  0.95990350  0.26463050  0.71038700  1
  H  343  1  0.91345050  0.25496800  0.73113850  1
  H  344  1  0.83800500  0.20158350  0.76011650  1
  H  345  1  0.81346350  0.15249100  0.77815250  1
  H  346  1  0.86566450  0.28275000  0.85626350  1
  H  347  1  0.84153200  0.23331550  0.87433050  1
  H  348  1  0.86187150  0.36781900  0.83110550  1
  H  349  1  0.84235900  0.40922250  0.82911450  1
  H  350  1  0.80815500  0.36739550  0.72113050  1
  H  351  1  0.82740500  0.32576850  0.72272050  1
  H  352  1  0.89725000  0.34590100  0.75596200  1
  H  353  1  0.90768000  0.26756350  0.78487750  1
  H  354  1  0.83128600  0.29127150  0.80171950  1
  H  356  1  0.83421550  0.43639800  0.76665850  1
  H  358  1  0.78179900  0.14054500  0.82226600  1
  H  360  1  0.03276350  0.32326450  0.72876900  1
  H  746  1  0.96435650  0.17776150  0.19388500  1
  H  747  1  0.02428300  0.22948350  0.24276050  1
  H  748  1  0.92767400  0.24946200  0.19802700  1
  H  749  1  0.98699450  0.30081600  0.24718350  1
  H  750  1  0.01350550  0.31173750  0.31420400  1
  H  751  1  0.01063250  0.30067200  0.36306150  1
  H  752  1  0.07814000  0.25978800  0.35891700  1
  H  753  1  0.08036900  0.26996900  0.30976700  1
  H  754  1  0.12894150  0.34493450  0.32500700  1
  H  755  1  0.18067700  0.34782400  0.31681400  1
  H  756  1  0.10901850  0.28029450  0.20842500  1
  H  757  1  0.05763400  0.27804900  0.21637300  1
  H  758  1  0.04674250  0.33415400  0.23197550  1
  H  759  1  0.08842250  0.37143350  0.34059700  1
  H  760  1  0.09861100  0.43076450  0.34856050  1
  H  761  1  0.05781650  0.39408250  0.24017700  1
  H  766  1  0.88603300  0.18582950  0.15038650  1
  H  767  1  0.89116600  0.15168350  0.15917650  1
  H  768  1  0.20678500  0.33923950  0.26972050  1
  H  769  1  0.17266050  0.29630600  0.23043350  1
  H  770  1  0.09264700  0.47241750  0.32656050  1
  H  771  1  0.09628950  0.46726500  0.28727350  1
  H  772  1  0.06215650  0.26582650  0.40656600  1
  H  773  1  0.01922250  0.26217450  0.39776500  1
  H  852  1  0.67606300  0.51234450  0.74016550  1
  H  853  1  0.72778250  0.51520550  0.73196200  1
  H  854  1  0.74775000  0.57990150  0.84854850  1
  H  855  1  0.79911700  0.58211850  0.84058750  1
  H  856  1  0.81005450  0.52604550  0.82500600  1
  H  857  1  0.79898800  0.46612500  0.81682900  1
  H  858  1  0.75808150  0.42936050  0.70842700  1
  H  859  1  0.76826100  0.48868500  0.71637100  1
  H  860  1  0.84322650  0.54842500  0.74274150  1
  H  861  1  0.84609500  0.55949400  0.69388900  1
  H  862  1  0.77856500  0.60035300  0.69803600  1
  H  863  1  0.77634350  0.59016800  0.74718450  1
  H  864  1  0.83241650  0.63065850  0.81417800  1
  H  865  1  0.86977200  0.55938100  0.80975800  1
  H  866  1  0.92910150  0.61076750  0.85889900  1
  H  867  1  0.89233950  0.68240400  0.86303050  1
  H  872  1  0.68412750  0.56392900  0.82654750  1
  H  873  1  0.64997850  0.52098900  0.78727250  1
  H  874  1  0.83748350  0.59797150  0.65918000  1
  H  875  1  0.79455500  0.59432900  0.65038300  1
  H  876  1  0.97071150  0.67440250  0.90653700  1
  H  877  1  0.96554200  0.70852950  0.89774550  1
  H  878  1  0.76412050  0.38775400  0.73044550  1
  H  879  1  0.76047300  0.39290900  0.76973000  1
  H  957  1  0.99732350  0.52110300  0.95469950  1
  H  958  1  0.00621100  0.55267400  0.91854500  1
  H  959  1  0.11578550  0.59648450  0.02254800  1
  H  960  1  0.12543650  0.62689700  0.98575550  1
  H  961  1  0.17879800  0.70927500  0.96371600  1
  H  962  1  0.22788037  0.77640587  0.98826850  1
  H  963  1  0.09761850  0.72423450  0.91019000  1
  H  964  1  0.14704586  0.79173736  0.93549650  1
  H  965  1  0.01255250  0.61400250  0.82134500  1
  H  966  1  0.97114650  0.57060400  0.76041450  1
  H  967  1  0.01298700  0.50445950  0.76803750  1
  H  968  1  0.05460800  0.54767550  0.82891950  1
  H  969  1  0.03448250  0.56078700  0.87863150  1
  H  970  1  0.11282600  0.66804450  0.96739550  1
  H  971  1  0.08910050  0.66117750  0.86729400  1
  H  973  1  0.94398250  0.48096550  0.72508900  1
  H  975  1  0.23981735  0.83245885  0.96854150  1
  H  977  1  0.05716150  0.55626000  0.03679550  1
  H  1002  1  0.59318750  0.16702750  0.19649500  1
  H  1003  1  0.66091350  0.21207850  0.23264300  1
  H  1004  1  0.60070350  0.21758550  0.12860500  1
  H  1005  1  0.66790700  0.26404050  0.16539050  1
  H  1006  1  0.77231300  0.33947350  0.18742550  1
  H  1007  1  0.81488287  0.36399637  0.16286450  1
  H  1008  1  0.84083050  0.31186550  0.24098000  1
  H  1009  1  0.88302187  0.33598237  0.21566750  1
  H  1010  1  0.81949450  0.31570285  0.32983835  1
  H  1011  1  0.83697550  0.33517685  0.39076435  1
  H  1012  1  0.76309950  0.36926037  0.38308687  1
  H  1013  1  0.74548750  0.35005435  0.32222585  1
  H  1014  1  0.70893400  0.28024935  0.27253035  1
  H  1015  1  0.72742850  0.26982000  0.18376450  1
  H  1016  1  0.82065600  0.34623835  0.28386535  1
  H  1018  1  0.78258650  0.34327337  0.42604187  1
  H  1020  1  0.89066935  0.39568335  0.18259200  1
  H  1022  1  0.54622250  0.14472600  0.11438550  1
  H  1047  1  0.22225635  0.89200135  0.05052900  1
  H  1048  1  0.25383835  0.95972985  0.07320250  1
  H  1049  1  0.29765985  0.89950735  0.00748650  1
  H  1050  1  0.32808150  0.96671300  0.02823250  1
  H  1051  1  0.41046850  0.07115450  0.05723000  1
  H  1052  1  0.47759850  0.11372350  0.07527900  1
  H  1053  1  0.42543600  0.13962335  0.15338035  1
  H  1054  1  0.49294100  0.18181435  0.17145935  1
  H  1055  1  0.31520050  0.11826285  0.12820935  1
  H  1056  1  0.27179350  0.13576737  0.12621387  1
  H  1057  1  0.20566750  0.06201985  0.01822335  1
  H  1058  1  0.24889900  0.04437685  0.01981685  1
  H  1059  1  0.26198250  0.00775700  0.05304750  1
  H  1060  1  0.36922850  0.02622550  0.08197500  1
  H  1061  1  0.36238750  0.11947535  0.09883185  1
  H  1063  1  0.18217685  0.08145070  0.06375285  1
  H  1065  1  0.53366000  0.18949200  0.11939800  1
  H  1067  1  0.25740685  0.84504185  0.02587500  1
  H  1092  1  0.86821935  0.29610885  0.10062050  1
  H  1093  1  0.91326535  0.30500335  0.07793900  1
  H  1094  1  0.91877085  0.41455435  0.14364050  1
  H  1095  1  0.96522250  0.42421650  0.12288700  1
  H  1096  1  0.04065450  0.47760250  0.09391900  1
  H  1097  1  0.06518750  0.52669350  0.07588300  1
  H  1098  1  0.01304350  0.39644900  0.99778750  1
  H  1099  1  0.03717000  0.44588600  0.97972400  1
  H  1100  1  0.01684700  0.31138800  0.02297100  1
  H  1101  1  0.03635950  0.26997600  0.02498750  1
  H  1102  1  0.07052750  0.31183400  0.13297350  1
  H  1103  1  0.05127700  0.35344850  0.13134550  1
  H  1104  1  0.98144750  0.33329550  0.09809000  1
  H  1105  1  0.97098600  0.41160500  0.06914600  1
  H  1106  1  0.04741100  0.38793700  0.05233400  1
  H  1108  1  0.04448185  0.24283485  0.08747900  1
  H  1110  1  0.09688400  0.53864800  0.03178800  1
  H  1112  1  0.84591685  0.35591385  0.12526100  1
  H  1137  1  0.90328485  0.97714185  0.69646900  1
  H  1138  1  0.89438735  0.94556935  0.73262200  1
  H  1139  1  0.78483135  0.90174085  0.62859150  1
  H  1140  1  0.77516900  0.87133000  0.66538300  1
  H  1141  1  0.72178250  0.78896350  0.68743700  1
  H  1142  1  0.67269500  0.72183100  0.66288300  1
  H  1143  1  0.80295300  0.77400050  0.74096950  1
  H  1144  1  0.75352300  0.70649750  0.71566450  1
  H  1145  1  0.88803250  0.88424035  0.82983385  1
  H  1146  1  0.92942800  0.92765585  0.89075785  1
  H  1147  1  0.88758400  0.99378637  0.88308237  1
  H  1148  1  0.84596800  0.95055635  0.82220735  1
  H  1149  1  0.86610385  0.93744320  0.77251535  1
  H  1150  1  0.78776200  0.83018300  0.68375400  1
  H  1151  1  0.81147250  0.83706585  0.78386435  1
  H  1153  1  0.95658585  0.01728422  0.92603837  1
  H  1155  1  0.66075550  0.66577800  0.68261550  1
  H  1157  1  0.84346285  0.94198885  0.61436400  1
  H  1182  1  0.30744885  0.33124285  0.45470000  1
  H  1183  1  0.23972085  0.28620535  0.41854450  1
  H  1184  1  0.29990035  0.28065635  0.52256800  1
  H  1185  1  0.23269450  0.23421350  0.48577400  1
  H  1186  1  0.12829000  0.15879250  0.46371050  1
  H  1187  1  0.08571700  0.13423850  0.48825950  1
  H  1188  1  0.05978800  0.18644600  0.41021500  1
  H  1189  1  0.01759200  0.16229650  0.43551550  1
  H  1190  1  0.08117350  0.18266050  0.32133000  1
  H  1191  1  0.06366000  0.16313050  0.26041250  1
  H  1192  1  0.13742500  0.12890850  0.26806750  1
  H  1193  1  0.15507650  0.14817350  0.32894600  1
  H  1194  1  0.19168535  0.21802185  0.37864450  1
  H  1195  1  0.17319350  0.22845750  0.46741000  1
  H  1196  1  0.07996050  0.15207150  0.36731000  1
  H  1198  1  0.11795935  0.15494785  0.22510250  1
  H  1200  1  0.00994000  0.10255750  0.46854850  1
  H  1202  1  0.35438785  0.35351535  0.53680450  1
  H  1227  1  0.67831650  0.60624600  0.60061650  1
  H  1228  1  0.64674950  0.53852150  0.57794700  1
  H  1229  1  0.60292500  0.59872350  0.64367950  1
  H  1230  1  0.57251800  0.53152150  0.62293650  1
  H  1231  1  0.49015350  0.42710250  0.59395900  1
  H  1232  1  0.42302250  0.38453400  0.57591150  1
  H  1233  1  0.47518400  0.35861100  0.49781700  1
  H  1234  1  0.40767850  0.31642150  0.47974200  1
  H  1235  1  0.58537500  0.37994100  0.52298200  1
  H  1236  1  0.62880300  0.36244800  0.52496300  1
  H  1237  1  0.69501850  0.43632750  0.63293300  1
  H  1238  1  0.65177900  0.45394100  0.63134300  1
  H  1239  1  0.63863200  0.49050150  0.59810350  1
  H  1240  1  0.53137250  0.47200400  0.56919250  1
  H  1241  1  0.53824700  0.37877550  0.55235950  1
  H  1243  1  0.71848200  0.41682550  0.58743250  1
  H  1245  1  0.36695885  0.30875885  0.53179400  1
  H  1247  1  0.64315850  0.65319300  0.62528250  1
  H  1272  1  0.03240200  0.20211850  0.55054550  1
  H  1273  1  0.98735400  0.19322100  0.57322300  1
  H  1274  1  0.98182850  0.08366550  0.50749700  1
  H  1275  1  0.93537550  0.07400300  0.52824850  1
  H  1276  1  0.85993000  0.02061850  0.55722650  1
  H  1277  1  0.83538850  0.97152600  0.57526250  1
  H  1278  1  0.88758950  0.10178485  0.65337335  1
  H  1279  1  0.86345700  0.05235035  0.67144035  1
  H  1280  1  0.88379650  0.18685385  0.62821535  1
  H  1281  1  0.86428400  0.22825737  0.62622437  1
  H  1282  1  0.83008000  0.18643035  0.51824035  1
  H  1283  1  0.84933000  0.14480335  0.51983035  1
  H  1284  1  0.91917500  0.16493600  0.55307200  1
  H  1285  1  0.92960500  0.08659850  0.58198750  1
  H  1286  1  0.85321100  0.11030635  0.59882935  1
  H  1288  1  0.85614050  0.25543285  0.56376835  1
  H  1290  1  0.80372385  0.95957985  0.61937600  1
  H  1292  1  0.05468850  0.14229950  0.52587900  1
  H  1678  1  0.98628150  0.99679650  0.99099500  1
  H  1679  1  0.04620785  0.04851835  0.03987050  1
  H  1680  1  0.94959885  0.06849685  0.99513700  1
  H  1681  1  0.00891935  0.11985085  0.04429350  1
  H  1682  1  0.03543035  0.13077235  0.11131400  1
  H  1683  1  0.03255750  0.11970700  0.16017150  1
  H  1684  1  0.10006485  0.07882285  0.15602700  1
  H  1685  1  0.10229385  0.08900385  0.10687700  1
  H  1686  1  0.15086635  0.16396935  0.12211700  1
  H  1687  1  0.20260200  0.16685900  0.11392400  1
  H  1688  1  0.13094350  0.09932935  0.00553485  1
  H  1689  1  0.07955885  0.09708385  0.01348300  1
  H  1690  1  0.06866735  0.15318885  0.02908550  1
  H  1691  1  0.11034735  0.19046835  0.13770700  1
  H  1692  1  0.12053600  0.24979950  0.14567050  1
  H  1693  1  0.07974150  0.21311750  0.03728700  1
  H  1698  1  0.90795800  0.00486450  0.94749650  1
  H  1699  1  0.91309100  0.97071850  0.95628650  1
  H  1700  1  0.22871000  0.15827437  0.06683037  1
  H  1701  1  0.19458550  0.11534085  0.02754335  1
  H  1702  1  0.11457200  0.29145250  0.12367050  1
  H  1703  1  0.11821450  0.28630000  0.08438350  1
  H  1704  1  0.08408150  0.08486150  0.20367600  1
  H  1705  1  0.04114750  0.08120950  0.19487500  1
  H  1784  1  0.69798800  0.33137950  0.53727550  1
  H  1785  1  0.74970750  0.33424050  0.52907200  1
  H  1786  1  0.76967500  0.39893650  0.64565850  1
  H  1787  1  0.82104200  0.40115350  0.63769750  1
  H  1788  1  0.83197950  0.34508050  0.62211600  1
  H  1789  1  0.82091300  0.28516000  0.61393900  1
  H  1790  1  0.78000650  0.24839535  0.50553685  1
  H  1791  1  0.79018600  0.30772000  0.51348100  1
  H  1792  1  0.86515150  0.36746000  0.53985150  1
  H  1793  1  0.86802000  0.37852900  0.49099900  1
  H  1794  1  0.80049000  0.41938800  0.49514600  1
  H  1795  1  0.79826850  0.40920300  0.54429450  1
  H  1796  1  0.85434150  0.44969350  0.61128800  1
  H  1797  1  0.89169700  0.37841600  0.60686800  1
  H  1798  1  0.95102650  0.42980250  0.65600900  1
  H  1799  1  0.91426450  0.50143900  0.66014050  1
  H  1804  1  0.70605250  0.38296400  0.62365750  1
  H  1805  1  0.67190350  0.34002400  0.58438250  1
  H  1806  1  0.85940850  0.41700650  0.45629000  1
  H  1807  1  0.81648000  0.41336400  0.44749300  1
  H  1808  1  0.99263650  0.49343750  0.70364700  1
  H  1809  1  0.98746700  0.52756450  0.69485550  1
  H  1810  1  0.78604550  0.20678885  0.52755535  1
  H  1811  1  0.78239800  0.21194387  0.56683987  1
  N  40  1  0.93822450  0.68742650  0.92733800  1
  N  42  1  0.19818150  0.01053100  0.18050550  1
  N  44  1  0.02713200  0.71775100  0.21546100  1
  N  85  1  0.78680200  0.54105400  0.62958400  1
  N  87  1  0.85678450  0.54786500  0.37641950  1
  N  89  1  0.52906200  0.34182800  0.34150100  1
  N  130  1  0.18573600  0.28856000  0.27595800  1
  N  132  1  0.50883850  0.35849100  0.33910650  1
  N  134  1  0.21601750  0.03076450  0.21739100  1
  N  175  1  0.03937400  0.43995850  0.28103950  1
  N  177  1  0.04617400  0.69990800  0.21785400  1
  N  179  1  0.84012800  0.52879550  0.33953450  1
  N  220  1  0.91849300  0.17276200  0.12958000  1
  N  222  1  0.65853950  0.84963550  0.87643000  1
  N  224  1  0.82963400  0.14242100  0.84147900  1
  N  265  1  0.06989900  0.31909750  0.42734950  1
  N  267  1  0.99997400  0.31230550  0.68051250  1
  N  269  1  0.32770600  0.51835200  0.71547000  1
  N  310  1  0.67106600  0.57165500  0.78101100  1
  N  312  1  0.34793000  0.50169000  0.71786600  1
  N  314  1  0.64070350  0.82940450  0.83954500  1
  N  355  1  0.81739100  0.42022000  0.77597100  1
  N  357  1  0.81058350  0.16025300  0.83908450  1
  N  359  1  0.01663200  0.33135650  0.71739750  1
  N  972  1  0.96014950  0.50646150  0.72444800  1
  N  974  1  0.22010635  0.82956585  0.97761550  1
  N  976  1  0.04905700  0.53678600  0.01257100  1
  N  1017  1  0.80872700  0.36008885  0.42669385  1
  N  1019  1  0.87870935  0.36689985  0.17352950  1
  N  1021  1  0.55098700  0.16086300  0.13861100  1
  N  1062  1  0.20766100  0.10759485  0.07306785  1
  N  1064  1  0.53076350  0.17752600  0.13621650  1
  N  1066  1  0.23794235  0.84979935  0.01450100  1
  N  1107  1  0.06129900  0.25899350  0.07814950  1
  N  1109  1  0.06809900  0.51894300  0.01496400  1
  N  1111  1  0.86205285  0.34783035  0.13664450  1
  N  1152  1  0.94041786  0.99179672  0.92668985  1
  N  1154  1  0.68046450  0.66867050  0.67354000  1
  N  1156  1  0.85155885  0.96145585  0.63858900  1
  N  1197  1  0.09182386  0.13813236  0.22445950  1
  N  1199  1  0.02189900  0.13134050  0.47762250  1
  N  1201  1  0.34963085  0.33738685  0.51258000  1
  N  1242  1  0.69299100  0.39069000  0.57812100  1
  N  1244  1  0.36985485  0.32072485  0.51497600  1
  N  1246  1  0.66262850  0.64843950  0.63665500  1
  N  1287  1  0.83931600  0.23925485  0.57308085  1
  N  1289  1  0.83250835  0.97928785  0.63619450  1
  N  1291  1  0.03855700  0.15039150  0.51450750  1
