# generated using pymatgen
data_H28C55(N3O4)4
_symmetry_space_group_name_H-M   'P 1'
_cell_length_a   49.78840000
_cell_length_b   49.78840000
_cell_length_c   49.78840000
_cell_angle_alpha   90.00000000
_cell_angle_beta   90.00000000
_cell_angle_gamma   90.00000000
_symmetry_Int_Tables_number   1
_chemical_formula_structural   H28C55(N3O4)4
_chemical_formula_sum   'H672 C1320 N288 O384'
_cell_volume   123419.70670970
_cell_formula_units_Z   24
loop_
 _symmetry_equiv_pos_site_id
 _symmetry_equiv_pos_as_xyz
  1  'x, y, z'
loop_
 _atom_site_type_symbol
 _atom_site_label
 _atom_site_symmetry_multiplicity
 _atom_site_fract_x
 _atom_site_fract_y
 _atom_site_fract_z
 _atom_site_occupancy
  H  25  1  0.06399000  0.00685500  0.91241200  1
  H  26  1  0.03544300  0.96905900  0.91838300  1
  H  27  1  0.96618300  0.91920400  0.96837200  1
  H  28  1  0.93868100  0.91262700  0.00665100  1
  H  29  1  0.96620500  0.98574200  0.03931400  1
  H  30  1  0.03679600  0.03936600  0.98568600  1
  H  31  1  0.03714700  0.96182100  0.01416500  1
  H  32  1  0.06388100  0.99413400  0.08768500  1
  H  33  1  0.03504400  0.03176100  0.08181700  1
  H  34  1  0.96613300  0.01489600  0.96070600  1
  H  35  1  0.96547000  0.08129300  0.03177400  1
  H  36  1  0.93790400  0.08768300  0.99349300  1
  H  39  1  0.98800000  0.95808100  0.93930700  1
  H  40  1  0.01327300  0.93999000  0.95672500  1
  H  42  1  0.98758800  0.04251800  0.06078300  1
  H  43  1  0.01274900  0.06085900  0.04346900  1
  H  47  1  0.07634800  0.05914500  0.96005300  1
  H  48  1  0.93659400  0.95735200  0.06557100  1
  H  49  1  0.93584300  0.04274600  0.93471600  1
  H  51  1  0.07688100  0.94241300  0.03963600  1
  H  76  1  0.43545500  0.99263900  0.41238500  1
  H  77  1  0.46400800  0.03042900  0.41836900  1
  H  78  1  0.53322700  0.08029600  0.46841400  1
  H  79  1  0.56069300  0.08687800  0.50671700  1
  H  80  1  0.53319100  0.01373100  0.53932900  1
  H  81  1  0.46263000  0.96011600  0.48566300  1
  H  82  1  0.46227000  0.03764800  0.51414000  1
  H  83  1  0.43551300  0.00532900  0.58764900  1
  H  84  1  0.46435700  0.96770400  0.58178600  1
  H  85  1  0.53331500  0.98458300  0.46070600  1
  H  86  1  0.53394600  0.91817400  0.53175900  1
  H  87  1  0.56152100  0.91178700  0.49348500  1
  H  90  1  0.51145100  0.04141400  0.43931700  1
  H  91  1  0.48615800  0.05949000  0.45672300  1
  H  93  1  0.51182800  0.95695600  0.56076900  1
  H  94  1  0.48667200  0.93861300  0.54345200  1
  H  98  1  0.42306900  0.94035800  0.46002500  1
  H  99  1  0.56273400  0.04214800  0.56563200  1
  H  100  1  0.56355700  0.95670300  0.43469200  1
  H  102  1  0.42253400  0.05706100  0.53959600  1
  H  127  1  0.24529000  0.81304300  0.16226000  1
  H  128  1  0.28248600  0.78370500  0.16879600  1
  H  129  1  0.33088200  0.71455400  0.21976400  1
  H  130  1  0.33633500  0.68647700  0.25775700  1
  H  131  1  0.26293900  0.71454200  0.28936700  1
  H  132  1  0.21107100  0.78647500  0.23498700  1
  H  133  1  0.28707100  0.78679800  0.26475300  1
  H  134  1  0.25286200  0.81317600  0.33754500  1
  H  135  1  0.21584800  0.78354800  0.33112100  1
  H  136  1  0.23576000  0.71440600  0.21058900  1
  H  137  1  0.16801600  0.71375500  0.28038100  1
  H  138  1  0.16277300  0.68555800  0.24244000  1
  H  141  1  0.29276300  0.73642700  0.19011400  1
  H  142  1  0.31056800  0.76173000  0.20779500  1
  H  144  1  0.20595800  0.73612400  0.30989000  1
  H  145  1  0.18784500  0.76121200  0.29221500  1
  H  149  1  0.19992200  0.83403600  0.20652400  1
  H  150  1  0.29126300  0.68505900  0.31618400  1
  H  151  1  0.20789200  0.68438500  0.18399100  1
  H  153  1  0.29801300  0.83442000  0.29321700  1
  H  178  1  0.25434800  0.18634600  0.66237900  1
  H  179  1  0.21712300  0.21567100  0.66885700  1
  H  180  1  0.16862500  0.28482500  0.71975600  1
  H  181  1  0.16313200  0.31292600  0.75773100  1
  H  182  1  0.23651700  0.28491600  0.78940900  1
  H  183  1  0.28847900  0.21299900  0.73511300  1
  H  184  1  0.21244700  0.21263400  0.76481300  1
  H  185  1  0.24663000  0.18629500  0.83763300  1
  H  186  1  0.28363000  0.21594400  0.83122200  1
  H  187  1  0.26372600  0.28505800  0.71067600  1
  H  188  1  0.33144500  0.28576300  0.78048900  1
  H  189  1  0.33667300  0.31397500  0.74255500  1
  H  192  1  0.20678700  0.26296500  0.69014500  1
  H  193  1  0.18898600  0.23765200  0.70781800  1
  H  195  1  0.29350600  0.26336700  0.80998600  1
  H  196  1  0.31164300  0.23828900  0.79232100  1
  H  200  1  0.29923000  0.16502400  0.70635400  1
  H  201  1  0.20815500  0.31437500  0.81619600  1
  H  202  1  0.29158400  0.31508200  0.68408500  1
  H  204  1  0.20150900  0.16501600  0.79327900  1
  H  229  1  0.75361600  0.18220700  0.83559900  1
  H  230  1  0.71749100  0.21325700  0.83069000  1
  H  231  1  0.66892900  0.28309600  0.78035100  1
  H  232  1  0.66244600  0.31000800  0.74165300  1
  H  233  1  0.73527600  0.28146300  0.70927800  1
  H  234  1  0.78720600  0.20918700  0.76275400  1
  H  235  1  0.71290700  0.20883400  0.73549500  1
  H  236  1  0.74644100  0.18288100  0.66225900  1
  H  237  1  0.78223100  0.21432100  0.66726400  1
  H  238  1  0.76414600  0.28125600  0.78934900  1
  H  239  1  0.83019800  0.28430300  0.71804500  1
  H  240  1  0.83649200  0.31097800  0.75694000  1
  H  243  1  0.70817700  0.26153100  0.80966300  1
  H  244  1  0.68916300  0.23641100  0.79302600  1
  H  246  1  0.79107600  0.26252500  0.68870100  1
  H  247  1  0.81047800  0.23748700  0.70501000  1
  H  251  1  0.79498100  0.15874500  0.79114000  1
  H  252  1  0.70659900  0.31040600  0.68235000  1
  H  253  1  0.79229100  0.31070900  0.81624900  1
  H  255  1  0.70555400  0.15859000  0.70686400  1
  H  280  1  0.74584700  0.81723100  0.33565300  1
  H  281  1  0.78197400  0.78618100  0.33074000  1
  H  282  1  0.83056100  0.71638200  0.28036500  1
  H  283  1  0.83705500  0.68948000  0.24165900  1
  H  284  1  0.76427300  0.71810300  0.20923800  1
  H  285  1  0.71232100  0.79034500  0.26274600  1
  H  286  1  0.78665300  0.79071700  0.23556500  1
  H  287  1  0.75310900  0.81691300  0.16242200  1
  H  288  1  0.71732800  0.78543400  0.16731700  1
  H  289  1  0.73536800  0.71822600  0.28925600  1
  H  290  1  0.66933300  0.71533000  0.21793200  1
  H  291  1  0.66302000  0.68859000  0.25678500  1
  H  294  1  0.79130100  0.73793100  0.30966100  1
  H  295  1  0.81033200  0.76307000  0.29307000  1
  H  297  1  0.70848500  0.73714800  0.18863000  1
  H  298  1  0.68908000  0.76215800  0.20498000  1
  H  302  1  0.70456400  0.84080900  0.29124700  1
  H  303  1  0.79292400  0.68910700  0.18233600  1
  H  304  1  0.70730600  0.68862700  0.31604400  1
  H  306  1  0.79337000  0.84153400  0.20644600  1
  H  331  1  0.56669000  0.50380800  0.41390400  1
  H  332  1  0.53648300  0.46709500  0.41931300  1
  H  333  1  0.46578300  0.41892900  0.46889300  1
  H  334  1  0.43604300  0.41429500  0.50602200  1
  H  335  1  0.46505400  0.48678400  0.53864800  1
  H  336  1  0.53851500  0.53808700  0.48596700  1
  H  337  1  0.53906600  0.46273200  0.51402600  1
  H  338  1  0.56601400  0.49690700  0.58659300  1
  H  339  1  0.53523300  0.53318100  0.58118000  1
  H  340  1  0.46527700  0.51315600  0.46101300  1
  H  341  1  0.46432700  0.58062300  0.53115200  1
  H  342  1  0.43491700  0.58505000  0.49373600  1
  H  345  1  0.48858600  0.45686800  0.43985400  1
  H  346  1  0.51365800  0.43896400  0.45774900  1
  H  348  1  0.48736300  0.54278500  0.56020100  1
  H  349  1  0.51233200  0.56123900  0.54272700  1
  H  353  1  0.58741200  0.54822400  0.45947100  1
  H  354  1  0.42272900  0.46357600  0.55607300  1
  H  355  1  0.42265100  0.53594000  0.44339300  1
  H  357  1  0.58882400  0.45439100  0.54173300  1
  H  382  1  0.93285200  0.49573800  0.91371900  1
  H  383  1  0.96325300  0.53231900  0.91906000  1
  H  384  1  0.03396700  0.58038200  0.96873600  1
  H  385  1  0.06359900  0.58501600  0.00595200  1
  H  386  1  0.03428800  0.51267800  0.03864200  1
  H  387  1  0.96070200  0.46156800  0.98595500  1
  H  388  1  0.96043700  0.53687400  0.01389600  1
  H  389  1  0.93322400  0.50274200  0.08638400  1
  H  390  1  0.96392800  0.46638800  0.08103000  1
  H  391  1  0.03416500  0.48624200  0.96099700  1
  H  392  1  0.03479500  0.41875400  0.03111300  1
  H  393  1  0.06425500  0.41424900  0.99374400  1
  H  396  1  0.01114900  0.54240800  0.93971300  1
  H  397  1  0.98608900  0.56047400  0.95746200  1
  H  399  1  0.01182600  0.45665500  0.06014200  1
  H  400  1  0.98683100  0.43828300  0.04262000  1
  H  404  1  0.91112600  0.45245500  0.95885800  1
  H  405  1  0.07667600  0.53581800  0.05610200  1
  H  406  1  0.07673600  0.46337100  0.94344100  1
  H  408  1  0.91023400  0.54484600  0.04194500  1
  H  415  1  0.92495300  0.93207900  0.10661400  1
  H  422  1  0.85673000  0.80861000  0.16047100  1
  H  423  1  0.80206300  0.87275800  0.16359700  1
  H  424  1  0.88594400  0.88749000  0.04646500  1
  H  445  1  0.57443700  0.06742500  0.60666400  1
  H  452  1  0.64305200  0.19093400  0.66013800  1
  H  453  1  0.69748000  0.12660100  0.66352600  1
  H  454  1  0.61352500  0.11189700  0.54647900  1
  H  475  1  0.31312500  0.66744100  0.35582200  1
  H  482  1  0.43413300  0.62036800  0.41920200  1
  H  483  1  0.38299500  0.55318700  0.41923000  1
  H  484  1  0.36011600  0.63219800  0.29517500  1
  H  505  1  0.18629100  0.33197700  0.85581000  1
  H  512  1  0.06529900  0.37892800  0.91925300  1
  H  513  1  0.11635800  0.44617000  0.91926700  1
  H  514  1  0.13929600  0.36723400  0.79517500  1
  H  535  1  0.57465200  0.93170700  0.39333300  1
  H  542  1  0.64250100  0.80846200  0.33824400  1
  H  543  1  0.69710800  0.87264900  0.33517500  1
  H  544  1  0.61360700  0.88626700  0.45287100  1
  H  565  1  0.92482600  0.06775900  0.89333100  1
  H  572  1  0.85697700  0.19099000  0.83822600  1
  H  573  1  0.80236200  0.12680800  0.83514900  1
  H  574  1  0.88586500  0.11322400  0.95284700  1
  H  595  1  0.18598200  0.66725400  0.14413800  1
  H  602  1  0.06511700  0.62025100  0.08028900  1
  H  603  1  0.11626700  0.55307900  0.08021000  1
  H  604  1  0.13879200  0.63173400  0.20446700  1
  H  625  1  0.31346300  0.33221000  0.64423700  1
  H  632  1  0.43427400  0.37913900  0.58028200  1
  H  633  1  0.38317000  0.44634900  0.58022600  1
  H  634  1  0.36066400  0.36777700  0.70453200  1
  H  655  1  0.07233900  0.06708000  0.87056900  1
  H  662  1  0.14471000  0.19633300  0.84500600  1
  H  663  1  0.19700800  0.13062500  0.83717500  1
  H  664  1  0.10476200  0.09464400  0.94350500  1
  H  685  1  0.42710400  0.93239600  0.37054400  1
  H  692  1  0.35478400  0.80312700  0.34497200  1
  H  693  1  0.30246200  0.86881700  0.33713500  1
  H  694  1  0.39468000  0.90484200  0.44348300  1
  H  715  1  0.68203300  0.32468400  0.64181200  1
  H  722  1  0.55813000  0.39374800  0.59027600  1
  H  723  1  0.62228800  0.44828100  0.58611300  1
  H  724  1  0.63854500  0.36356500  0.70282700  1
  H  745  1  0.81743200  0.67474400  0.14180800  1
  H  752  1  0.94134800  0.60611100  0.09002200  1
  H  753  1  0.87744400  0.55124500  0.08609900  1
  H  754  1  0.86101200  0.63597000  0.20282400  1
  H  775  1  0.42674400  0.06678100  0.62888000  1
  H  782  1  0.35719000  0.19545200  0.65641600  1
  H  783  1  0.30237000  0.13152400  0.66108600  1
  H  784  1  0.39440700  0.09266200  0.55534000  1
  H  805  1  0.07264000  0.93268500  0.12892000  1
  H  812  1  0.14253700  0.80407500  0.15632900  1
  H  813  1  0.19718000  0.86815800  0.16092700  1
  H  814  1  0.10494400  0.90678200  0.05537400  1
  H  835  1  0.81644500  0.32480700  0.85711200  1
  H  842  1  0.94052700  0.39255300  0.91011200  1
  H  843  1  0.87706800  0.44796000  0.91306800  1
  H  844  1  0.86129900  0.36298200  0.79664400  1
  H  865  1  0.68323800  0.67458300  0.35697100  1
  H  872  1  0.55930700  0.60680400  0.41032500  1
  H  873  1  0.62253500  0.55108400  0.41230500  1
  H  874  1  0.63796200  0.63678100  0.29658300  1
  H  913  1  0.06399000  0.00685500  0.17351700  1
  H  914  1  0.03544300  0.96905900  0.17948800  1
  H  915  1  0.96618300  0.91920400  0.22947700  1
  H  916  1  0.93868100  0.91262700  0.26775600  1
  H  917  1  0.96620500  0.98574200  0.30041900  1
  H  918  1  0.03679600  0.03936600  0.24679100  1
  H  919  1  0.03714700  0.96182100  0.27527000  1
  H  920  1  0.06388100  0.99413400  0.34879000  1
  H  921  1  0.03504400  0.03176100  0.34292200  1
  H  922  1  0.96613300  0.01489600  0.22181100  1
  H  923  1  0.96547000  0.08129300  0.29287900  1
  H  924  1  0.93790400  0.08768300  0.25459800  1
  H  927  1  0.98800000  0.95808100  0.20041200  1
  H  928  1  0.01327300  0.93999000  0.21783000  1
  H  930  1  0.98758800  0.04251800  0.32188800  1
  H  931  1  0.01274900  0.06085900  0.30457400  1
  H  935  1  0.07634800  0.05914500  0.22115800  1
  H  936  1  0.93659400  0.95735200  0.32667600  1
  H  937  1  0.93584300  0.04274600  0.19582100  1
  H  939  1  0.07688100  0.94241300  0.30074100  1
  H  964  1  0.43545500  0.99263900  0.67349000  1
  H  965  1  0.46400800  0.03042900  0.67947400  1
  H  966  1  0.53322700  0.08029600  0.72951900  1
  H  967  1  0.56069300  0.08687800  0.76782200  1
  H  968  1  0.53319100  0.01373100  0.80043400  1
  H  969  1  0.46263000  0.96011600  0.74676800  1
  H  970  1  0.46227000  0.03764800  0.77524500  1
  H  971  1  0.43551300  0.00532900  0.84875400  1
  H  972  1  0.46435700  0.96770400  0.84289100  1
  H  973  1  0.53331500  0.98458300  0.72181100  1
  H  974  1  0.53394600  0.91817400  0.79286400  1
  H  975  1  0.56152100  0.91178700  0.75459000  1
  H  978  1  0.51145100  0.04141400  0.70042200  1
  H  979  1  0.48615800  0.05949000  0.71782800  1
  H  981  1  0.51182800  0.95695600  0.82187400  1
  H  982  1  0.48667200  0.93861300  0.80455700  1
  H  986  1  0.42306900  0.94035800  0.72113000  1
  H  987  1  0.56273400  0.04214800  0.82673700  1
  H  988  1  0.56355700  0.95670300  0.69579700  1
  H  990  1  0.42253400  0.05706100  0.80070100  1
  H  1015  1  0.24529000  0.81304300  0.42336500  1
  H  1016  1  0.28248600  0.78370500  0.42990100  1
  H  1017  1  0.33088200  0.71455400  0.48086900  1
  H  1018  1  0.33633500  0.68647700  0.51886200  1
  H  1019  1  0.26293900  0.71454200  0.55047200  1
  H  1020  1  0.21107100  0.78647500  0.49609200  1
  H  1021  1  0.28707100  0.78679800  0.52585800  1
  H  1022  1  0.25286200  0.81317600  0.59865000  1
  H  1023  1  0.21584800  0.78354800  0.59222600  1
  H  1024  1  0.23576000  0.71440600  0.47169400  1
  H  1025  1  0.16801600  0.71375500  0.54148600  1
  H  1026  1  0.16277300  0.68555800  0.50354500  1
  H  1029  1  0.29276300  0.73642700  0.45121900  1
  H  1030  1  0.31056800  0.76173000  0.46890000  1
  H  1032  1  0.20595800  0.73612400  0.57099500  1
  H  1033  1  0.18784500  0.76121200  0.55332000  1
  H  1037  1  0.19992200  0.83403600  0.46762900  1
  H  1038  1  0.29126300  0.68505900  0.57728900  1
  H  1039  1  0.20789200  0.68438500  0.44509600  1
  H  1041  1  0.29801300  0.83442000  0.55432200  1
  H  1066  1  0.25434800  0.18634600  0.92348400  1
  H  1067  1  0.21712300  0.21567100  0.92996200  1
  H  1068  1  0.16862500  0.28482500  0.98086100  1
  H  1069  1  0.16313200  0.31292600  0.01883600  1
  H  1070  1  0.23651700  0.28491600  0.05051400  1
  H  1071  1  0.28847900  0.21299900  0.99621800  1
  H  1072  1  0.21244700  0.21263400  0.02591800  1
  H  1073  1  0.24663000  0.18629500  0.09873800  1
  H  1074  1  0.28363000  0.21594400  0.09232700  1
  H  1075  1  0.26372600  0.28505800  0.97178100  1
  H  1076  1  0.33144500  0.28576300  0.04159400  1
  H  1077  1  0.33667300  0.31397500  0.00366000  1
  H  1080  1  0.20678700  0.26296500  0.95125000  1
  H  1081  1  0.18898600  0.23765200  0.96892300  1
  H  1083  1  0.29350600  0.26336700  0.07109100  1
  H  1084  1  0.31164300  0.23828900  0.05342600  1
  H  1088  1  0.29923000  0.16502400  0.96745900  1
  H  1089  1  0.20815500  0.31437500  0.07730100  1
  H  1090  1  0.29158400  0.31508200  0.94519000  1
  H  1092  1  0.20150900  0.16501600  0.05438400  1
  H  1117  1  0.75361600  0.18220700  0.09670400  1
  H  1118  1  0.71749100  0.21325700  0.09179500  1
  H  1119  1  0.66892900  0.28309600  0.04145600  1
  H  1120  1  0.66244600  0.31000800  0.00275800  1
  H  1121  1  0.73527600  0.28146300  0.97038300  1
  H  1122  1  0.78720600  0.20918700  0.02385900  1
  H  1123  1  0.71290700  0.20883400  0.99660000  1
  H  1124  1  0.74644100  0.18288100  0.92336400  1
  H  1125  1  0.78223100  0.21432100  0.92836900  1
  H  1126  1  0.76414600  0.28125600  0.05045400  1
  H  1127  1  0.83019800  0.28430300  0.97915000  1
  H  1128  1  0.83649200  0.31097800  0.01804500  1
  H  1131  1  0.70817700  0.26153100  0.07076800  1
  H  1132  1  0.68916300  0.23641100  0.05413100  1
  H  1134  1  0.79107600  0.26252500  0.94980600  1
  H  1135  1  0.81047800  0.23748700  0.96611500  1
  H  1139  1  0.79498100  0.15874500  0.05224500  1
  H  1140  1  0.70659900  0.31040600  0.94345500  1
  H  1141  1  0.79229100  0.31070900  0.07735400  1
  H  1143  1  0.70555400  0.15859000  0.96796900  1
  H  1168  1  0.74584700  0.81723100  0.59675800  1
  H  1169  1  0.78197400  0.78618100  0.59184500  1
  H  1170  1  0.83056100  0.71638200  0.54147000  1
  H  1171  1  0.83705500  0.68948000  0.50276400  1
  H  1172  1  0.76427300  0.71810300  0.47034300  1
  H  1173  1  0.71232100  0.79034500  0.52385100  1
  H  1174  1  0.78665300  0.79071700  0.49667000  1
  H  1175  1  0.75310900  0.81691300  0.42352700  1
  H  1176  1  0.71732800  0.78543400  0.42842200  1
  H  1177  1  0.73536800  0.71822600  0.55036100  1
  H  1178  1  0.66933300  0.71533000  0.47903700  1
  H  1179  1  0.66302000  0.68859000  0.51789000  1
  H  1182  1  0.79130100  0.73793100  0.57076600  1
  H  1183  1  0.81033200  0.76307000  0.55417500  1
  H  1185  1  0.70848500  0.73714800  0.44973500  1
  H  1186  1  0.68908000  0.76215800  0.46608500  1
  H  1190  1  0.70456400  0.84080900  0.55235200  1
  H  1191  1  0.79292400  0.68910700  0.44344100  1
  H  1192  1  0.70730600  0.68862700  0.57714900  1
  H  1194  1  0.79337000  0.84153400  0.46755100  1
  H  1219  1  0.56669000  0.50380800  0.67500900  1
  H  1220  1  0.53648300  0.46709500  0.68041800  1
  H  1221  1  0.46578300  0.41892900  0.72999800  1
  H  1222  1  0.43604300  0.41429500  0.76712700  1
  H  1223  1  0.46505400  0.48678400  0.79975300  1
  H  1224  1  0.53851500  0.53808700  0.74707200  1
  H  1225  1  0.53906600  0.46273200  0.77513100  1
  H  1226  1  0.56601400  0.49690700  0.84769800  1
  H  1227  1  0.53523300  0.53318100  0.84228500  1
  H  1228  1  0.46527700  0.51315600  0.72211800  1
  H  1229  1  0.46432700  0.58062300  0.79225700  1
  H  1230  1  0.43491700  0.58505000  0.75484100  1
  H  1233  1  0.48858600  0.45686800  0.70095900  1
  H  1234  1  0.51365800  0.43896400  0.71885400  1
  H  1236  1  0.48736300  0.54278500  0.82130600  1
  H  1237  1  0.51233200  0.56123900  0.80383200  1
  H  1241  1  0.58741200  0.54822400  0.72057600  1
  H  1242  1  0.42272900  0.46357600  0.81717800  1
  H  1243  1  0.42265100  0.53594000  0.70449800  1
  H  1245  1  0.58882400  0.45439100  0.80283800  1
  H  1270  1  0.93285200  0.49573800  0.17482400  1
  H  1271  1  0.96325300  0.53231900  0.18016500  1
  H  1272  1  0.03396700  0.58038200  0.22984100  1
  H  1273  1  0.06359900  0.58501600  0.26705700  1
  H  1274  1  0.03428800  0.51267800  0.29974700  1
  H  1275  1  0.96070200  0.46156800  0.24706000  1
  H  1276  1  0.96043700  0.53687400  0.27500100  1
  H  1277  1  0.93322400  0.50274200  0.34748900  1
  H  1278  1  0.96392800  0.46638800  0.34213500  1
  H  1279  1  0.03416500  0.48624200  0.22210200  1
  H  1280  1  0.03479500  0.41875400  0.29221800  1
  H  1281  1  0.06425500  0.41424900  0.25484900  1
  H  1284  1  0.01114900  0.54240800  0.20081800  1
  H  1285  1  0.98608900  0.56047400  0.21856700  1
  H  1287  1  0.01182600  0.45665500  0.32124700  1
  H  1288  1  0.98683100  0.43828300  0.30372500  1
  H  1292  1  0.91112600  0.45245500  0.21996300  1
  H  1293  1  0.07667600  0.53581800  0.31720700  1
  H  1294  1  0.07673600  0.46337100  0.20454600  1
  H  1296  1  0.91023400  0.54484600  0.30305000  1
  H  1303  1  0.92495300  0.93207900  0.36771900  1
  H  1310  1  0.85673000  0.80861000  0.42157600  1
  H  1311  1  0.80206300  0.87275800  0.42470200  1
  H  1312  1  0.88594400  0.88749000  0.30757000  1
  H  1333  1  0.57443700  0.06742500  0.86776900  1
  H  1340  1  0.64305200  0.19093400  0.92124300  1
  H  1341  1  0.69748000  0.12660100  0.92463100  1
  H  1342  1  0.61352500  0.11189700  0.80758400  1
  H  1363  1  0.31312500  0.66744100  0.61692700  1
  H  1370  1  0.43413300  0.62036800  0.68030700  1
  H  1371  1  0.38299500  0.55318700  0.68033500  1
  H  1372  1  0.36011600  0.63219800  0.55628000  1
  H  1393  1  0.18629100  0.33197700  0.11691500  1
  H  1400  1  0.06529900  0.37892800  0.18035800  1
  H  1401  1  0.11635800  0.44617000  0.18037200  1
  H  1402  1  0.13929600  0.36723400  0.05628000  1
  H  1423  1  0.57465200  0.93170700  0.65443800  1
  H  1430  1  0.64250100  0.80846200  0.59934900  1
  H  1431  1  0.69710800  0.87264900  0.59628000  1
  H  1432  1  0.61360700  0.88626700  0.71397600  1
  H  1453  1  0.92482600  0.06775900  0.15443600  1
  H  1460  1  0.85697700  0.19099000  0.09933100  1
  H  1461  1  0.80236200  0.12680800  0.09625400  1
  H  1462  1  0.88586500  0.11322400  0.21395200  1
  H  1483  1  0.18598200  0.66725400  0.40524300  1
  H  1490  1  0.06511700  0.62025100  0.34139400  1
  H  1491  1  0.11626700  0.55307900  0.34131500  1
  H  1492  1  0.13879200  0.63173400  0.46557200  1
  H  1513  1  0.31346300  0.33221000  0.90534200  1
  H  1520  1  0.43427400  0.37913900  0.84138700  1
  H  1521  1  0.38317000  0.44634900  0.84133100  1
  H  1522  1  0.36066400  0.36777700  0.96563700  1
  H  1543  1  0.07233900  0.06708000  0.13167400  1
  H  1550  1  0.14471000  0.19633300  0.10611100  1
  H  1551  1  0.19700800  0.13062500  0.09828000  1
  H  1552  1  0.10476200  0.09464400  0.20461000  1
  H  1573  1  0.42710400  0.93239600  0.63164900  1
  H  1580  1  0.35478400  0.80312700  0.60607700  1
  H  1581  1  0.30246200  0.86881700  0.59824000  1
  H  1582  1  0.39468000  0.90484200  0.70458800  1
  H  1603  1  0.68203300  0.32468400  0.90291700  1
  H  1610  1  0.55813000  0.39374800  0.85138100  1
  H  1611  1  0.62228800  0.44828100  0.84721800  1
  H  1612  1  0.63854500  0.36356500  0.96393200  1
  H  1633  1  0.81743200  0.67474400  0.40291300  1
  H  1640  1  0.94134800  0.60611100  0.35112700  1
  H  1641  1  0.87744400  0.55124500  0.34720400  1
  H  1642  1  0.86101200  0.63597000  0.46392900  1
  H  1663  1  0.42674400  0.06678100  0.88998500  1
  H  1670  1  0.35719000  0.19545200  0.91752100  1
  H  1671  1  0.30237000  0.13152400  0.92219100  1
  H  1672  1  0.39440700  0.09266200  0.81644500  1
  H  1693  1  0.07264000  0.93268500  0.39002500  1
  H  1700  1  0.14253700  0.80407500  0.41743400  1
  H  1701  1  0.19718000  0.86815800  0.42203200  1
  H  1702  1  0.10494400  0.90678200  0.31647900  1
  H  1723  1  0.81644500  0.32480700  0.11821700  1
  H  1730  1  0.94052700  0.39255300  0.17121700  1
  H  1731  1  0.87706800  0.44796000  0.17417300  1
  H  1732  1  0.86129900  0.36298200  0.05774900  1
  H  1753  1  0.68323800  0.67458300  0.61807600  1
  H  1760  1  0.55930700  0.60680400  0.67143000  1
  H  1761  1  0.62253500  0.55108400  0.67341000  1
  H  1762  1  0.63796200  0.63678100  0.55768800  1
  H  1801  1  0.06399000  0.00685500  0.43462200  1
  H  1802  1  0.03544300  0.96905900  0.44059300  1
  H  1803  1  0.96618300  0.91920400  0.49058200  1
  H  1804  1  0.93868100  0.91262700  0.52886100  1
  H  1805  1  0.96620500  0.98574200  0.56152400  1
  H  1806  1  0.03679600  0.03936600  0.50789600  1
  H  1807  1  0.03714700  0.96182100  0.53637500  1
  H  1808  1  0.06388100  0.99413400  0.60989500  1
  H  1809  1  0.03504400  0.03176100  0.60402700  1
  H  1810  1  0.96613300  0.01489600  0.48291600  1
  H  1811  1  0.96547000  0.08129300  0.55398400  1
  H  1812  1  0.93790400  0.08768300  0.51570300  1
  H  1815  1  0.98800000  0.95808100  0.46151700  1
  H  1816  1  0.01327300  0.93999000  0.47893500  1
  H  1818  1  0.98758800  0.04251800  0.58299300  1
  H  1819  1  0.01274900  0.06085900  0.56567900  1
  H  1823  1  0.07634800  0.05914500  0.48226300  1
  H  1824  1  0.93659400  0.95735200  0.58778100  1
  H  1825  1  0.93584300  0.04274600  0.45692600  1
  H  1827  1  0.07688100  0.94241300  0.56184600  1
  H  1852  1  0.43545500  0.99263900  0.93459500  1
  H  1853  1  0.46400800  0.03042900  0.94057900  1
  H  1854  1  0.53322700  0.08029600  0.99062400  1
  H  1855  1  0.56069300  0.08687800  0.02892700  1
  H  1856  1  0.53319100  0.01373100  0.06153900  1
  H  1857  1  0.46263000  0.96011600  0.00787299  1
  H  1858  1  0.46227000  0.03764800  0.03635000  1
  H  1859  1  0.43551300  0.00532900  0.10985900  1
  H  1860  1  0.46435700  0.96770400  0.10399600  1
  H  1861  1  0.53331500  0.98458300  0.98291600  1
  H  1862  1  0.53394600  0.91817400  0.05396900  1
  H  1863  1  0.56152100  0.91178700  0.01569500  1
  H  1866  1  0.51145100  0.04141400  0.96152700  1
  H  1867  1  0.48615800  0.05949000  0.97893300  1
  H  1869  1  0.51182800  0.95695600  0.08297900  1
  H  1870  1  0.48667200  0.93861300  0.06566200  1
  H  1874  1  0.42306900  0.94035800  0.98223500  1
  H  1875  1  0.56273400  0.04214800  0.08784200  1
  H  1876  1  0.56355700  0.95670300  0.95690200  1
  H  1878  1  0.42253400  0.05706100  0.06180600  1
  H  1903  1  0.24529000  0.81304300  0.68447000  1
  H  1904  1  0.28248600  0.78370500  0.69100600  1
  H  1905  1  0.33088200  0.71455400  0.74197400  1
  H  1906  1  0.33633500  0.68647700  0.77996700  1
  H  1907  1  0.26293900  0.71454200  0.81157700  1
  H  1908  1  0.21107100  0.78647500  0.75719700  1
  H  1909  1  0.28707100  0.78679800  0.78696300  1
  H  1910  1  0.25286200  0.81317600  0.85975500  1
  H  1911  1  0.21584800  0.78354800  0.85333100  1
  H  1912  1  0.23576000  0.71440600  0.73279900  1
  H  1913  1  0.16801600  0.71375500  0.80259100  1
  H  1914  1  0.16277300  0.68555800  0.76465000  1
  H  1917  1  0.29276300  0.73642700  0.71232400  1
  H  1918  1  0.31056800  0.76173000  0.73000500  1
  H  1920  1  0.20595800  0.73612400  0.83210000  1
  H  1921  1  0.18784500  0.76121200  0.81442500  1
  H  1925  1  0.19992200  0.83403600  0.72873400  1
  H  1926  1  0.29126300  0.68505900  0.83839400  1
  H  1927  1  0.20789200  0.68438500  0.70620100  1
  H  1929  1  0.29801300  0.83442000  0.81542700  1
  H  1954  1  0.25434800  0.18634600  0.18458900  1
  H  1955  1  0.21712300  0.21567100  0.19106700  1
  H  1956  1  0.16862500  0.28482500  0.24196600  1
  H  1957  1  0.16313200  0.31292600  0.27994100  1
  H  1958  1  0.23651700  0.28491600  0.31161900  1
  H  1959  1  0.28847900  0.21299900  0.25732300  1
  H  1960  1  0.21244700  0.21263400  0.28702300  1
  H  1961  1  0.24663000  0.18629500  0.35984300  1
  H  1962  1  0.28363000  0.21594400  0.35343200  1
  H  1963  1  0.26372600  0.28505800  0.23288600  1
  H  1964  1  0.33144500  0.28576300  0.30269900  1
  H  1965  1  0.33667300  0.31397500  0.26476500  1
  H  1968  1  0.20678700  0.26296500  0.21235500  1
  H  1969  1  0.18898600  0.23765200  0.23002800  1
  H  1971  1  0.29350600  0.26336700  0.33219600  1
  H  1972  1  0.31164300  0.23828900  0.31453100  1
  H  1976  1  0.29923000  0.16502400  0.22856400  1
  H  1977  1  0.20815500  0.31437500  0.33840600  1
  H  1978  1  0.29158400  0.31508200  0.20629500  1
  H  1980  1  0.20150900  0.16501600  0.31548900  1
  H  2005  1  0.75361600  0.18220700  0.35780900  1
  H  2006  1  0.71749100  0.21325700  0.35290000  1
  H  2007  1  0.66892900  0.28309600  0.30256100  1
  H  2008  1  0.66244600  0.31000800  0.26386300  1
  H  2009  1  0.73527600  0.28146300  0.23148800  1
  H  2010  1  0.78720600  0.20918700  0.28496400  1
  H  2011  1  0.71290700  0.20883400  0.25770500  1
  H  2012  1  0.74644100  0.18288100  0.18446900  1
  H  2013  1  0.78223100  0.21432100  0.18947400  1
  H  2014  1  0.76414600  0.28125600  0.31155900  1
  H  2015  1  0.83019800  0.28430300  0.24025500  1
  H  2016  1  0.83649200  0.31097800  0.27915000  1
  H  2019  1  0.70817700  0.26153100  0.33187300  1
  H  2020  1  0.68916300  0.23641100  0.31523600  1
  H  2022  1  0.79107600  0.26252500  0.21091100  1
  H  2023  1  0.81047800  0.23748700  0.22722000  1
  H  2027  1  0.79498100  0.15874500  0.31335000  1
  H  2028  1  0.70659900  0.31040600  0.20456000  1
  H  2029  1  0.79229100  0.31070900  0.33845900  1
  H  2031  1  0.70555400  0.15859000  0.22907400  1
  H  2056  1  0.74584700  0.81723100  0.85786300  1
  H  2057  1  0.78197400  0.78618100  0.85295000  1
  H  2058  1  0.83056100  0.71638200  0.80257500  1
  H  2059  1  0.83705500  0.68948000  0.76386900  1
  H  2060  1  0.76427300  0.71810300  0.73144800  1
  H  2061  1  0.71232100  0.79034500  0.78495600  1
  H  2062  1  0.78665300  0.79071700  0.75777500  1
  H  2063  1  0.75310900  0.81691300  0.68463200  1
  H  2064  1  0.71732800  0.78543400  0.68952700  1
  H  2065  1  0.73536800  0.71822600  0.81146600  1
  H  2066  1  0.66933300  0.71533000  0.74014200  1
  H  2067  1  0.66302000  0.68859000  0.77899500  1
  H  2070  1  0.79130100  0.73793100  0.83187100  1
  H  2071  1  0.81033200  0.76307000  0.81528000  1
  H  2073  1  0.70848500  0.73714800  0.71084000  1
  H  2074  1  0.68908000  0.76215800  0.72719000  1
  H  2078  1  0.70456400  0.84080900  0.81345700  1
  H  2079  1  0.79292400  0.68910700  0.70454600  1
  H  2080  1  0.70730600  0.68862700  0.83825400  1
  H  2082  1  0.79337000  0.84153400  0.72865600  1
  H  2107  1  0.56669000  0.50380800  0.93611400  1
  H  2108  1  0.53648300  0.46709500  0.94152300  1
  H  2109  1  0.46578300  0.41892900  0.99110300  1
  H  2110  1  0.43604300  0.41429500  0.02823200  1
  H  2111  1  0.46505400  0.48678400  0.06085800  1
  H  2112  1  0.53851500  0.53808700  0.00817699  1
  H  2113  1  0.53906600  0.46273200  0.03623600  1
  H  2114  1  0.56601400  0.49690700  0.10880300  1
  H  2115  1  0.53523300  0.53318100  0.10339000  1
  H  2116  1  0.46527700  0.51315600  0.98322300  1
  H  2117  1  0.46432700  0.58062300  0.05336200  1
  H  2118  1  0.43491700  0.58505000  0.01594600  1
  H  2121  1  0.48858600  0.45686800  0.96206400  1
  H  2122  1  0.51365800  0.43896400  0.97995900  1
  H  2124  1  0.48736300  0.54278500  0.08241100  1
  H  2125  1  0.51233200  0.56123900  0.06493700  1
  H  2129  1  0.58741200  0.54822400  0.98168100  1
  H  2130  1  0.42272900  0.46357600  0.07828300  1
  H  2131  1  0.42265100  0.53594000  0.96560300  1
  H  2133  1  0.58882400  0.45439100  0.06394300  1
  H  2158  1  0.93285200  0.49573800  0.43592900  1
  H  2159  1  0.96325300  0.53231900  0.44127000  1
  H  2160  1  0.03396700  0.58038200  0.49094600  1
  H  2161  1  0.06359900  0.58501600  0.52816200  1
  H  2162  1  0.03428800  0.51267800  0.56085200  1
  H  2163  1  0.96070200  0.46156800  0.50816500  1
  H  2164  1  0.96043700  0.53687400  0.53610600  1
  H  2165  1  0.93322400  0.50274200  0.60859400  1
  H  2166  1  0.96392800  0.46638800  0.60324000  1
  H  2167  1  0.03416500  0.48624200  0.48320700  1
  H  2168  1  0.03479500  0.41875400  0.55332300  1
  H  2169  1  0.06425500  0.41424900  0.51595400  1
  H  2172  1  0.01114900  0.54240800  0.46192300  1
  H  2173  1  0.98608900  0.56047400  0.47967200  1
  H  2175  1  0.01182600  0.45665500  0.58235200  1
  H  2176  1  0.98683100  0.43828300  0.56483000  1
  H  2180  1  0.91112600  0.45245500  0.48106800  1
  H  2181  1  0.07667600  0.53581800  0.57831200  1
  H  2182  1  0.07673600  0.46337100  0.46565100  1
  H  2184  1  0.91023400  0.54484600  0.56415500  1
  H  2191  1  0.92495300  0.93207900  0.62882400  1
  H  2198  1  0.85673000  0.80861000  0.68268100  1
  H  2199  1  0.80206300  0.87275800  0.68580700  1
  H  2200  1  0.88594400  0.88749000  0.56867500  1
  H  2221  1  0.57443700  0.06742500  0.12887400  1
  H  2228  1  0.64305200  0.19093400  0.18234800  1
  H  2229  1  0.69748000  0.12660100  0.18573600  1
  H  2230  1  0.61352500  0.11189700  0.06868900  1
  H  2251  1  0.31312500  0.66744100  0.87803200  1
  H  2258  1  0.43413300  0.62036800  0.94141200  1
  H  2259  1  0.38299500  0.55318700  0.94144000  1
  H  2260  1  0.36011600  0.63219800  0.81738500  1
  H  2281  1  0.18629100  0.33197700  0.37802000  1
  H  2288  1  0.06529900  0.37892800  0.44146300  1
  H  2289  1  0.11635800  0.44617000  0.44147700  1
  H  2290  1  0.13929600  0.36723400  0.31738500  1
  H  2311  1  0.57465200  0.93170700  0.91554300  1
  H  2318  1  0.64250100  0.80846200  0.86045400  1
  H  2319  1  0.69710800  0.87264900  0.85738500  1
  H  2320  1  0.61360700  0.88626700  0.97508100  1
  H  2341  1  0.92482600  0.06775900  0.41554100  1
  H  2348  1  0.85697700  0.19099000  0.36043600  1
  H  2349  1  0.80236200  0.12680800  0.35735900  1
  H  2350  1  0.88586500  0.11322400  0.47505700  1
  H  2371  1  0.18598200  0.66725400  0.66634800  1
  H  2378  1  0.06511700  0.62025100  0.60249900  1
  H  2379  1  0.11626700  0.55307900  0.60242000  1
  H  2380  1  0.13879200  0.63173400  0.72667700  1
  H  2401  1  0.31346300  0.33221000  0.16644700  1
  H  2408  1  0.43427400  0.37913900  0.10249200  1
  H  2409  1  0.38317000  0.44634900  0.10243600  1
  H  2410  1  0.36066400  0.36777700  0.22674200  1
  H  2431  1  0.07233900  0.06708000  0.39277900  1
  H  2438  1  0.14471000  0.19633300  0.36721600  1
  H  2439  1  0.19700800  0.13062500  0.35938500  1
  H  2440  1  0.10476200  0.09464400  0.46571500  1
  H  2461  1  0.42710400  0.93239600  0.89275400  1
  H  2468  1  0.35478400  0.80312700  0.86718200  1
  H  2469  1  0.30246200  0.86881700  0.85934500  1
  H  2470  1  0.39468000  0.90484200  0.96569300  1
  H  2491  1  0.68203300  0.32468400  0.16402200  1
  H  2498  1  0.55813000  0.39374800  0.11248600  1
  H  2499  1  0.62228800  0.44828100  0.10832300  1
  H  2500  1  0.63854500  0.36356500  0.22503700  1
  H  2521  1  0.81743200  0.67474400  0.66401800  1
  H  2528  1  0.94134800  0.60611100  0.61223200  1
  H  2529  1  0.87744400  0.55124500  0.60830900  1
  H  2530  1  0.86101200  0.63597000  0.72503400  1
  H  2551  1  0.42674400  0.06678100  0.15109000  1
  H  2558  1  0.35719000  0.19545200  0.17862600  1
  H  2559  1  0.30237000  0.13152400  0.18329600  1
  H  2560  1  0.39440700  0.09266200  0.07755000  1
  H  2581  1  0.07264000  0.93268500  0.65113000  1
  H  2588  1  0.14253700  0.80407500  0.67853900  1
  H  2589  1  0.19718000  0.86815800  0.68313700  1
  H  2590  1  0.10494400  0.90678200  0.57758400  1
  H  2611  1  0.81644500  0.32480700  0.37932200  1
  H  2618  1  0.94052700  0.39255300  0.43232200  1
  H  2619  1  0.87706800  0.44796000  0.43527800  1
  H  2620  1  0.86129900  0.36298200  0.31885400  1
  H  2641  1  0.68323800  0.67458300  0.87918100  1
  H  2648  1  0.55930700  0.60680400  0.93253500  1
  H  2649  1  0.62253500  0.55108400  0.93451500  1
  H  2650  1  0.63796200  0.63678100  0.81879300  1
  C  1  1  0.98278100  0.02467200  0.99854200  1
  C  2  1  0.98269500  0.04440300  0.01910000  1
  C  3  1  0.01862300  0.01928500  0.04447200  1
  C  4  1  0.01933600  0.99909200  0.02435500  1
  C  5  1  0.03682600  0.97682600  0.02823700  1
  C  6  1  0.05291400  0.97417500  0.05149200  1
  C  7  1  0.05227900  0.99502700  0.07072600  1
  C  8  1  0.03539300  0.01725100  0.06724300  1
  C  9  1  0.96563700  0.06693900  0.01704100  1
  C  10  1  0.94936600  0.07064500  0.99439700  1
  C  11  1  0.94943000  0.05182400  0.97310000  1
  C  12  1  0.96581000  0.02874900  0.97591000  1
  C  13  1  0.01932400  0.00188700  0.97564500  1
  C  14  1  0.01881500  0.98160200  0.95561200  1
  C  15  1  0.98305100  0.95628100  0.98098200  1
  C  16  1  0.98295600  0.97605700  0.00149600  1
  C  17  1  0.96620100  0.93359500  0.98307300  1
  C  18  1  0.94996300  0.92978300  0.00571500  1
  C  19  1  0.94983600  0.94864900  0.02697200  1
  C  20  1  0.96601900  0.97186100  0.02413500  1
  C  21  1  0.03664800  0.02427800  0.97170100  1
  C  22  1  0.05275200  0.02695500  0.94845400  1
  C  23  1  0.05235500  0.00597400  0.92934700  1
  C  24  1  0.03563400  0.98364500  0.93288600  1
  C  37  1  0.00112500  0.00043300  0.00000500  1
  C  38  1  0.00076500  0.95806100  0.95720100  1
  C  41  1  0.00038500  0.04269300  0.04291400  1
  C  44  1  0.93548500  0.94415600  0.05061500  1
  C  45  1  0.93501700  0.05618700  0.94947000  1
  C  46  1  0.06834300  0.04970600  0.94439700  1
  C  50  1  0.06870700  0.95154700  0.05538300  1
  C  52  1  0.51665100  0.97480400  0.49853400  1
  C  53  1  0.51672700  0.95506800  0.51908500  1
  C  54  1  0.48079100  0.98018400  0.54445000  1
  C  55  1  0.48008000  0.00037700  0.52433300  1
  C  56  1  0.46257600  0.02263500  0.52820600  1
  C  57  1  0.44648600  0.02528900  0.55146000  1
  C  58  1  0.44711800  0.00443600  0.57069100  1
  C  59  1  0.46401800  0.98222100  0.56722100  1
  C  60  1  0.53378700  0.93253300  0.51703000  1
  C  61  1  0.55006200  0.92882700  0.49438800  1
  C  62  1  0.55001600  0.94765700  0.47310000  1
  C  63  1  0.53363100  0.97072800  0.47590600  1
  C  64  1  0.48011800  0.99758800  0.47562300  1
  C  65  1  0.48063200  0.01787600  0.45559600  1
  C  66  1  0.51636900  0.04320500  0.48099600  1
  C  67  1  0.51646800  0.02341900  0.50149900  1
  C  68  1  0.53320100  0.06590300  0.48310900  1
  C  69  1  0.54942500  0.06971200  0.50576300  1
  C  70  1  0.54955200  0.05083500  0.52701000  1
  C  71  1  0.53339800  0.02760700  0.52414400  1
  C  72  1  0.46280700  0.97519100  0.47166200  1
  C  73  1  0.44669100  0.97252800  0.44842400  1
  C  74  1  0.44709800  0.99350900  0.42931700  1
  C  75  1  0.46383100  0.01582900  0.43285600  1
  C  88  1  0.49830500  0.99904000  0.49999200  1
  C  89  1  0.49867300  0.04142500  0.45720100  1
  C  92  1  0.49903200  0.95677900  0.54289800  1
  C  95  1  0.56388700  0.05532400  0.55066500  1
  C  96  1  0.56442300  0.94328400  0.44946400  1
  C  97  1  0.43108700  0.94978600  0.44436900  1
  C  101  1  0.43068900  0.04791700  0.55534600  1
  C  103  1  0.22503000  0.73148800  0.24798000  1
  C  104  1  0.20493500  0.73128100  0.26818500  1
  C  105  1  0.22936100  0.76723700  0.29406300  1
  C  106  1  0.24997800  0.76809700  0.27435100  1
  C  107  1  0.27184300  0.78603300  0.27856100  1
  C  108  1  0.27351400  0.80228000  0.30176100  1
  C  109  1  0.25247700  0.80135200  0.32070300  1
  C  110  1  0.23068800  0.78401800  0.31688500  1
  C  111  1  0.18262000  0.71397200  0.26589300  1
  C  112  1  0.17963600  0.69726900  0.24348500  1
  C  113  1  0.19893600  0.69719100  0.22262800  1
  C  114  1  0.22159600  0.71415900  0.22550000  1
  C  115  1  0.24832700  0.76803300  0.22549000  1
  C  116  1  0.26899800  0.76732200  0.20583100  1
  C  117  1  0.29372500  0.73166700  0.23182300  1
  C  118  1  0.27357800  0.73169700  0.25197800  1
  C  119  1  0.31622800  0.71461900  0.23420300  1
  C  120  1  0.31934200  0.69798600  0.25664600  1
  C  121  1  0.29997200  0.69770700  0.27743600  1
  C  122  1  0.27714500  0.71443600  0.27449200  1
  C  123  1  0.22633000  0.78580000  0.22120800  1
  C  124  1  0.22458300  0.80200400  0.19797700  1
  C  125  1  0.24568800  0.80121300  0.17909800  1
  C  126  1  0.26760100  0.78406000  0.18298700  1
  C  139  1  0.24922500  0.74988600  0.24994600  1
  C  140  1  0.29246200  0.74926300  0.20795800  1
  C  143  1  0.20607800  0.74893200  0.29202400  1
  C  146  1  0.30373400  0.68266300  0.30077300  1
  C  147  1  0.19527200  0.68211900  0.19929400  1
  C  148  1  0.20323600  0.81911300  0.19364800  1
  C  152  1  0.29484800  0.81940400  0.30602100  1
  C  154  1  0.27446200  0.26798000  0.74806600  1
  C  155  1  0.29454500  0.26820700  0.76828200  1
  C  156  1  0.27012900  0.23223500  0.79415100  1
  C  157  1  0.24952800  0.23135500  0.77442800  1
  C  158  1  0.22767800  0.21339900  0.77862100  1
  C  159  1  0.22599900  0.19716200  0.80183000  1
  C  160  1  0.24701900  0.19811200  0.82078600  1
  C  161  1  0.26880400  0.21545600  0.81697600  1
  C  162  1  0.31684300  0.28553600  0.76600000  1
  C  163  1  0.31983000  0.30223300  0.74358300  1
  C  164  1  0.30053200  0.30230100  0.72272500  1
  C  165  1  0.27789000  0.28531000  0.72558700  1
  C  166  1  0.25121700  0.23140700  0.72557100  1
  C  167  1  0.23056400  0.23209200  0.70589200  1
  C  168  1  0.20577900  0.26773500  0.73185500  1
  C  169  1  0.22591000  0.26772900  0.75202700  1
  C  170  1  0.18326100  0.28476700  0.73421300  1
  C  171  1  0.18012000  0.30140800  0.75664800  1
  C  172  1  0.19948000  0.30171900  0.77744800  1
  C  173  1  0.22231300  0.28499400  0.77453000  1
  C  174  1  0.27323200  0.21365800  0.72131900  1
  C  175  1  0.27500400  0.19743200  0.69810900  1
  C  176  1  0.25392100  0.19819000  0.67920700  1
  C  177  1  0.23199800  0.21534100  0.68305900  1
  C  190  1  0.25028100  0.24956000  0.75001800  1
  C  191  1  0.20708200  0.25013300  0.70799200  1
  C  194  1  0.29340200  0.25055600  0.79212300  1
  C  197  1  0.19570900  0.31679100  0.80076500  1
  C  198  1  0.30417700  0.31739100  0.69940000  1
  C  199  1  0.29636400  0.18033400  0.69383300  1
  C  203  1  0.20466400  0.18003500  0.80608200  1
  C  205  1  0.77402400  0.26539300  0.75118100  1
  C  206  1  0.79362300  0.26627500  0.73051800  1
  C  207  1  0.76912100  0.23033700  0.70459000  1
  C  208  1  0.74899800  0.22886900  0.72476300  1
  C  209  1  0.72771600  0.21011100  0.72126900  1
  C  210  1  0.72639600  0.19325900  0.69852200  1
  C  211  1  0.74673600  0.19499200  0.67889900  1
  C  212  1  0.76777100  0.21341700  0.68186400  1
  C  213  1  0.81595100  0.28356600  0.73286600  1
  C  214  1  0.81957900  0.29934700  0.75586300  1
  C  215  1  0.80085300  0.29860600  0.77723200  1
  C  216  1  0.77797900  0.28197300  0.77414600  1
  C  217  1  0.75083600  0.22871200  0.77349200  1
  C  218  1  0.73060400  0.22976800  0.79358300  1
  C  219  1  0.70578300  0.26564200  0.76787600  1
  C  220  1  0.72546800  0.26516800  0.74728300  1
  C  221  1  0.68325000  0.28267400  0.76558800  1
  C  222  1  0.67951400  0.29860200  0.74271100  1
  C  223  1  0.69833400  0.29828200  0.72141900  1
  C  224  1  0.72139700  0.28189900  0.72444600  1
  C  225  1  0.77232500  0.21017600  0.77692600  1
  C  226  1  0.77374300  0.19315000  0.79954400  1
  C  227  1  0.75326800  0.19445900  0.81906500  1
  C  228  1  0.73203400  0.21265800  0.81615800  1
  C  241  1  0.74983600  0.24701900  0.74918500  1
  C  242  1  0.70754500  0.24843300  0.79202600  1
  C  245  1  0.79195800  0.24927100  0.70621100  1
  C  248  1  0.69393500  0.31250100  0.69764900  1
  C  249  1  0.80515400  0.31269100  0.80110100  1
  C  250  1  0.79429400  0.17495000  0.80280600  1
  C  254  1  0.70604800  0.17484300  0.69525700  1
  C  256  1  0.72550700  0.73415700  0.25111500  1
  C  257  1  0.70591600  0.73331800  0.23044100  1
  C  258  1  0.73044100  0.76930000  0.20459000  1
  C  259  1  0.75056300  0.77071200  0.22476900  1
  C  260  1  0.77185100  0.78947100  0.22132900  1
  C  261  1  0.77315600  0.80640500  0.19864400  1
  C  262  1  0.75281400  0.80474200  0.17901800  1
  C  263  1  0.73179100  0.78629000  0.18191600  1
  C  264  1  0.68358100  0.71602600  0.23275300  1
  C  265  1  0.67992600  0.70023400  0.25573800  1
  C  266  1  0.69864900  0.70092500  0.27710900  1
  C  267  1  0.72153800  0.71754300  0.27405000  1
  C  268  1  0.74867900  0.77080000  0.27349400  1
  C  269  1  0.76889000  0.76971600  0.29360100  1
  C  270  1  0.79373300  0.73387000  0.26787000  1
  C  271  1  0.77406600  0.73437200  0.24725800  1
  C  272  1  0.81625500  0.71682200  0.26559000  1
  C  273  1  0.82000700  0.70091900  0.24269900  1
  C  274  1  0.80119900  0.70125200  0.22139700  1
  C  275  1  0.77814900  0.71765900  0.22441000  1
  C  276  1  0.72718800  0.78933500  0.27693200  1
  C  277  1  0.72575000  0.80633100  0.29957000  1
  C  278  1  0.74620800  0.80499700  0.31910500  1
  C  279  1  0.76744000  0.78679600  0.31619600  1
  C  292  1  0.74970100  0.75252500  0.24916300  1
  C  293  1  0.79195200  0.75105100  0.29204000  1
  C  296  1  0.70759900  0.75036600  0.20616500  1
  C  299  1  0.80559800  0.68702600  0.19763000  1
  C  300  1  0.69436100  0.68678500  0.30094800  1
  C  301  1  0.70520300  0.82454000  0.30282200  1
  C  305  1  0.79348000  0.82484900  0.19546300  1
  C  307  1  0.48298400  0.52426300  0.49809200  1
  C  308  1  0.48257800  0.54420300  0.51846400  1
  C  309  1  0.51864700  0.51971200  0.54423500  1
  C  310  1  0.51957100  0.49922100  0.52440300  1
  C  311  1  0.53806300  0.47772200  0.52807700  1
  C  312  1  0.55502100  0.47640400  0.55076900  1
  C  313  1  0.55376400  0.49710400  0.57005700  1
  C  314  1  0.53573100  0.51844200  0.56684100  1
  C  315  1  0.46483300  0.56623400  0.51646200  1
  C  316  1  0.44758000  0.56885600  0.49440200  1
  C  317  1  0.44766500  0.54954600  0.47362900  1
  C  318  1  0.46521100  0.52733600  0.47591800  1
  C  319  1  0.51971600  0.50122300  0.47566700  1
  C  320  1  0.51930400  0.48058200  0.45597600  1
  C  321  1  0.48336000  0.45569300  0.48154200  1
  C  322  1  0.48327100  0.47575600  0.50179400  1
  C  323  1  0.46592400  0.43341200  0.48349800  1
  C  324  1  0.44848000  0.43066900  0.50539300  1
  C  325  1  0.44806800  0.45009300  0.52605400  1
  C  326  1  0.46533300  0.47253200  0.52381700  1
  C  327  1  0.53789500  0.52299300  0.47200000  1
  C  328  1  0.55501700  0.52447400  0.44942800  1
  C  329  1  0.55428600  0.50356700  0.43032300  1
  C  330  1  0.53659100  0.48195400  0.43353700  1
  C  343  1  0.50143000  0.50012100  0.49998200  1
  C  344  1  0.50121300  0.45708500  0.45784400  1
  C  347  1  0.50018900  0.54292000  0.54235100  1
  C  350  1  0.43098200  0.44734700  0.54786900  1
  C  351  1  0.43077700  0.55220300  0.45165600  1
  C  352  1  0.57290500  0.54537000  0.44603200  1
  C  356  1  0.57325000  0.45585700  0.55416300  1
  C  358  1  0.01636200  0.47517900  0.99804400  1
  C  359  1  0.01667600  0.45523300  0.01841100  1
  C  360  1  0.98063600  0.47983100  0.04413100  1
  C  361  1  0.97981300  0.50033400  0.02430700  1
  C  362  1  0.96137700  0.52188300  0.02795100  1
  C  363  1  0.94436700  0.52323000  0.05060100  1
  C  364  1  0.94551600  0.50251700  0.06987800  1
  C  365  1  0.96350600  0.48113600  0.06670000  1
  C  366  1  0.03435500  0.43314700  0.01642700  1
  C  367  1  0.05163600  0.43048000  0.99439500  1
  C  368  1  0.05164700  0.44979600  0.97362500  1
  C  369  1  0.03416000  0.47205600  0.97589400  1
  C  370  1  0.97972500  0.49829900  0.97556900  1
  C  371  1  0.98027500  0.51887800  0.95581300  1
  C  372  1  0.01623700  0.54370300  0.98141600  1
  C  373  1  0.01620400  0.52368800  0.00171800  1
  C  374  1  0.03373600  0.56593500  0.98337400  1
  C  375  1  0.05111700  0.56867900  0.00531900  1
  C  376  1  0.05141000  0.54929700  0.02602400  1
  C  377  1  0.03409400  0.52690200  0.02378000  1
  C  378  1  0.96144700  0.47660700  0.97194000  1
  C  379  1  0.94434900  0.47516900  0.94935400  1
  C  380  1  0.94523100  0.49598300  0.93016100  1
  C  381  1  0.96303800  0.51751000  0.93333200  1
  C  394  1  0.99798200  0.49937200  0.99990500  1
  C  395  1  0.99846000  0.54230500  0.95766100  1
  C  398  1  0.99902800  0.45656600  0.04227100  1
  C  401  1  0.06843000  0.55204600  0.04788700  1
  C  402  1  0.06857600  0.44711600  0.95168600  1
  C  403  1  0.92629400  0.45443500  0.94600200  1
  C  407  1  0.92617200  0.54381200  0.05394700  1
  C  409  1  0.90724800  0.91211800  0.07359400  1
  C  410  1  0.88861900  0.89216400  0.06632900  1
  C  411  1  0.87346700  0.87830500  0.08590300  1
  C  412  1  0.87753800  0.88434500  0.11347700  1
  C  413  1  0.89625900  0.90441000  0.12116600  1
  C  414  1  0.91098600  0.91809200  0.10104200  1
  C  416  1  0.86232800  0.87026300  0.13314500  1
  C  417  1  0.86980300  0.84373900  0.14050400  1
  C  418  1  0.85202800  0.82819500  0.15631000  1
  C  419  1  0.82743400  0.83880000  0.16528500  1
  C  420  1  0.82052700  0.86538500  0.15836800  1
  C  421  1  0.83766500  0.88128000  0.14224700  1
  C  439  1  0.59217400  0.08733200  0.57363000  1
  C  440  1  0.61083700  0.10724800  0.56634700  1
  C  441  1  0.62601100  0.12109600  0.58591000  1
  C  442  1  0.62192600  0.11509200  0.61349100  1
  C  443  1  0.60317700  0.09506200  0.62119500  1
  C  444  1  0.58843000  0.08138100  0.60108200  1
  C  446  1  0.63717700  0.12915800  0.63314000  1
  C  447  1  0.62979800  0.15574100  0.64040200  1
  C  448  1  0.64765100  0.17129700  0.65610700  1
  C  449  1  0.67222700  0.16064800  0.66507500  1
  C  450  1  0.67902400  0.13400500  0.65829800  1
  C  451  1  0.66180500  0.11809600  0.64227600  1
  C  469  1  0.33406400  0.65146700  0.32251500  1
  C  470  1  0.35481000  0.63378800  0.31499500  1
  C  471  1  0.36930500  0.61890700  0.33434900  1
  C  472  1  0.36277500  0.62196200  0.36190600  1
  C  473  1  0.34175400  0.63951300  0.36983700  1
  C  474  1  0.32755600  0.65406000  0.34996700  1
  C  476  1  0.37898400  0.60928500  0.38171600  1
  C  477  1  0.40201100  0.62282200  0.39166200  1
  C  478  1  0.41776000  0.61038700  0.41173500  1
  C  479  1  0.41129700  0.58474300  0.42170700  1
  C  480  1  0.38836600  0.57148900  0.41161400  1
  C  481  1  0.37206100  0.58349600  0.39165400  1
  C  499  1  0.16535700  0.34796100  0.82250500  1
  C  500  1  0.14460400  0.36563800  0.81499300  1
  C  501  1  0.13010500  0.38050600  0.83435700  1
  C  502  1  0.13662700  0.37743500  0.86191400  1
  C  503  1  0.15766100  0.35989100  0.86983100  1
  C  504  1  0.17187500  0.34537200  0.84995500  1
  C  506  1  0.12041500  0.39008700  0.88173600  1
  C  507  1  0.09740900  0.37652000  0.89169200  1
  C  508  1  0.08166100  0.38892600  0.91178500  1
  C  509  1  0.08811900  0.41455900  0.92178700  1
  C  510  1  0.11100000  0.42786700  0.91165000  1
  C  511  1  0.12731000  0.41588400  0.89167800  1
  C  529  1  0.59232700  0.91128300  0.42608300  1
  C  530  1  0.61091000  0.89118600  0.43306900  1
  C  531  1  0.62599100  0.87752400  0.41330100  1
  C  532  1  0.62189600  0.88390100  0.38580500  1
  C  533  1  0.60323500  0.90412700  0.37840000  1
  C  534  1  0.58858100  0.91760800  0.39871300  1
  C  536  1  0.63699200  0.86997000  0.36593300  1
  C  537  1  0.62948400  0.84349000  0.35843300  1
  C  538  1  0.64719100  0.82803900  0.34245900  1
  C  539  1  0.67172900  0.83871000  0.33342300  1
  C  540  1  0.67866000  0.86525600  0.34044300  1
  C  541  1  0.66160000  0.88105100  0.35675200  1
  C  559  1  0.90714500  0.08819600  0.92606900  1
  C  560  1  0.88856500  0.10829700  0.93304700  1
  C  561  1  0.87348100  0.12194700  0.91327300  1
  C  562  1  0.87758200  0.11556000  0.88577900  1
  C  563  1  0.89624300  0.09533100  0.87838200  1
  C  564  1  0.91088900  0.08185400  0.89870400  1
  C  566  1  0.86248000  0.12947600  0.86590300  1
  C  567  1  0.86999800  0.15595400  0.85839300  1
  C  568  1  0.85229500  0.17140500  0.84241500  1
  C  569  1  0.82774700  0.16074100  0.83339500  1
  C  570  1  0.82081600  0.13419600  0.84040900  1
  C  571  1  0.83787600  0.11840000  0.85671600  1
  C  589  1  0.16493700  0.65112600  0.17730300  1
  C  590  1  0.14417300  0.63340300  0.18467600  1
  C  591  1  0.12977000  0.61858400  0.16520800  1
  C  592  1  0.13640000  0.62175100  0.13768700  1
  C  593  1  0.15743600  0.63935200  0.12990500  1
  C  594  1  0.17154500  0.65383100  0.14988600  1
  C  596  1  0.12026600  0.60914400  0.11777200  1
  C  597  1  0.09724700  0.62269300  0.10782100  1
  C  598  1  0.08150500  0.61027700  0.08773200  1
  C  599  1  0.08796500  0.58463800  0.07774400  1
  C  600  1  0.11090400  0.57138200  0.08782100  1
  C  601  1  0.12720100  0.58336900  0.10780100  1
  C  619  1  0.33451000  0.34836800  0.67738900  1
  C  620  1  0.35527600  0.36609500  0.68474200  1
  C  621  1  0.36967300  0.38090200  0.66526000  1
  C  622  1  0.36304100  0.37770900  0.63774100  1
  C  623  1  0.34199700  0.36010600  0.62998000  1
  C  624  1  0.32788200  0.34565500  0.64997700  1
  C  626  1  0.37916500  0.39029600  0.61780700  1
  C  627  1  0.40216800  0.37672800  0.60784500  1
  C  628  1  0.41789700  0.38912500  0.58773100  1
  C  629  1  0.41142300  0.41474900  0.57771700  1
  C  630  1  0.38853000  0.42804600  0.58784000  1
  C  631  1  0.37223900  0.41607300  0.60783700  1
  C  649  1  0.08597100  0.07825900  0.90913200  1
  C  650  1  0.10312700  0.09597000  0.92308500  1
  C  651  1  0.11917900  0.11484800  0.90915000  1
  C  652  1  0.11782300  0.11600400  0.88068700  1
  C  653  1  0.10026500  0.09866800  0.86645300  1
  C  654  1  0.08449200  0.08004500  0.88095000  1
  C  656  1  0.13596900  0.13264600  0.86619600  1
  C  657  1  0.12984100  0.16008700  0.86150600  1
  C  658  1  0.14870300  0.17635300  0.84778600  1
  C  659  1  0.17294200  0.16553400  0.83808300  1
  C  660  1  0.17885100  0.13829900  0.84302800  1
  C  661  1  0.16062800  0.12164400  0.85702300  1
  C  679  1  0.41346600  0.92122500  0.40910700  1
  C  680  1  0.39630100  0.90352400  0.42306100  1
  C  681  1  0.38026700  0.88462600  0.40913000  1
  C  682  1  0.38163300  0.88346300  0.38066900  1
  C  683  1  0.39918300  0.90080300  0.36643100  1
  C  684  1  0.41495800  0.91942700  0.38092600  1
  C  686  1  0.36349200  0.86681500  0.36617800  1
  C  687  1  0.36963400  0.83937900  0.36148200  1
  C  688  1  0.35078300  0.82310600  0.34775000  1
  C  689  1  0.32654200  0.83391700  0.33804300  1
  C  690  1  0.32062100  0.86114900  0.34299200  1
  C  691  1  0.33883200  0.87780900  0.35699900  1
  C  709  1  0.66265900  0.34225500  0.67524400  1
  C  710  1  0.64298100  0.36103600  0.68289000  1
  C  711  1  0.62899800  0.37647100  0.66361700  1
  C  712  1  0.63462800  0.37259500  0.63592900  1
  C  713  1  0.65445400  0.35377300  0.62785700  1
  C  714  1  0.66825400  0.33873600  0.64768500  1
  C  716  1  0.62024700  0.38794400  0.61654700  1
  C  717  1  0.59358400  0.38054700  0.60959200  1
  C  718  1  0.57780500  0.39838000  0.59407400  1
  C  719  1  0.58830600  0.42296200  0.58493400  1
  C  720  1  0.61500300  0.42980500  0.59143500  1
  C  721  1  0.63112500  0.41261600  0.60729600  1
  C  739  1  0.83684400  0.65722200  0.17524300  1
  C  740  1  0.85654700  0.63846600  0.18288900  1
  C  741  1  0.87053600  0.62303300  0.16361900  1
  C  742  1  0.86488000  0.62687700  0.13593200  1
  C  743  1  0.84502400  0.64566900  0.12786000  1
  C  744  1  0.83121400  0.66070000  0.14768600  1
  C  746  1  0.87930800  0.61157800  0.11654200  1
  C  747  1  0.90590800  0.61911200  0.10949900  1
  C  748  1  0.92171500  0.60137100  0.09390700  1
  C  749  1  0.91130900  0.57673500  0.08481100  1
  C  750  1  0.88466000  0.56975900  0.09138100  1
  C  751  1  0.86851800  0.58685000  0.10733100  1
  C  769  1  0.41308200  0.07703800  0.59008700  1
  C  770  1  0.39596400  0.09447200  0.57574500  1
  C  771  1  0.37999600  0.11368500  0.58911500  1
  C  772  1  0.38136000  0.11561300  0.61764800  1
  C  773  1  0.39890800  0.09854500  0.63225400  1
  C  774  1  0.41459500  0.07950900  0.61820400  1
  C  776  1  0.36343800  0.13259000  0.63203500  1
  C  777  1  0.37076500  0.15941600  0.63837600  1
  C  778  1  0.35237900  0.17583500  0.65256200  1
  C  779  1  0.32757600  0.16561700  0.66144100  1
  C  780  1  0.32076400  0.13880800  0.65548000  1
  C  781  1  0.33848700  0.12203800  0.64099100  1
  C  799  1  0.08628500  0.92241400  0.09012500  1
  C  800  1  0.10341100  0.90498800  0.07578100  1
  C  801  1  0.11939000  0.88578500  0.08915000  1
  C  802  1  0.11804300  0.88387700  0.11768500  1
  C  803  1  0.10049500  0.90093900  0.13229500  1
  C  804  1  0.08477800  0.91995000  0.11824500  1
  C  806  1  0.13602200  0.86695500  0.13206600  1
  C  807  1  0.12878700  0.84010200  0.13839900  1
  C  808  1  0.14726700  0.82371600  0.15250200  1
  C  809  1  0.17206900  0.83399600  0.16130800  1
  C  810  1  0.17878300  0.86083300  0.15537600  1
  C  811  1  0.16096800  0.87757000  0.14096100  1
  C  829  1  0.83653700  0.34203200  0.82392500  1
  C  830  1  0.85655500  0.36054600  0.81652200  1
  C  831  1  0.87045200  0.37585300  0.83595800  1
  C  832  1  0.86437600  0.37211900  0.86357300  1
  C  833  1  0.84420300  0.35356600  0.87140000  1
  C  834  1  0.83049900  0.33865300  0.85140700  1
  C  836  1  0.87866300  0.38736100  0.88311400  1
  C  837  1  0.90513100  0.37965900  0.89047700  1
  C  838  1  0.92095400  0.39739800  0.90605900  1
  C  839  1  0.91066600  0.42218300  0.91487600  1
  C  840  1  0.88415400  0.42933900  0.90798500  1
  C  841  1  0.86800400  0.41225100  0.89204100  1
  C  859  1  0.66292800  0.65755100  0.32381900  1
  C  860  1  0.64281500  0.63912300  0.31644500  1
  C  861  1  0.62899400  0.62376000  0.33589000  1
  C  862  1  0.63524100  0.62734500  0.36348600  1
  C  863  1  0.65549000  0.64582500  0.37128500  1
  C  864  1  0.66912400  0.66079300  0.35128300  1
  C  866  1  0.62104000  0.61202400  0.38303100  1
  C  867  1  0.59465500  0.61977300  0.39063700  1
  C  868  1  0.57884200  0.60194200  0.40612100  1
  C  869  1  0.58907700  0.57701200  0.41457100  1
  C  870  1  0.61551900  0.56980600  0.40749300  1
  C  871  1  0.63164500  0.58699000  0.39162100  1
  C  889  1  0.98278100  0.02467200  0.25964700  1
  C  890  1  0.98269500  0.04440300  0.28020500  1
  C  891  1  0.01862300  0.01928500  0.30557700  1
  C  892  1  0.01933600  0.99909200  0.28546000  1
  C  893  1  0.03682600  0.97682600  0.28934200  1
  C  894  1  0.05291400  0.97417500  0.31259700  1
  C  895  1  0.05227900  0.99502700  0.33183100  1
  C  896  1  0.03539300  0.01725100  0.32834800  1
  C  897  1  0.96563700  0.06693900  0.27814600  1
  C  898  1  0.94936600  0.07064500  0.25550200  1
  C  899  1  0.94943000  0.05182400  0.23420500  1
  C  900  1  0.96581000  0.02874900  0.23701500  1
  C  901  1  0.01932400  0.00188700  0.23675000  1
  C  902  1  0.01881500  0.98160200  0.21671700  1
  C  903  1  0.98305100  0.95628100  0.24208700  1
  C  904  1  0.98295600  0.97605700  0.26260100  1
  C  905  1  0.96620100  0.93359500  0.24417800  1
  C  906  1  0.94996300  0.92978300  0.26682000  1
  C  907  1  0.94983600  0.94864900  0.28807700  1
  C  908  1  0.96601900  0.97186100  0.28524000  1
  C  909  1  0.03664800  0.02427800  0.23280600  1
  C  910  1  0.05275200  0.02695500  0.20955900  1
  C  911  1  0.05235500  0.00597400  0.19045200  1
  C  912  1  0.03563400  0.98364500  0.19399100  1
  C  925  1  0.00112500  0.00043300  0.26111000  1
  C  926  1  0.00076500  0.95806100  0.21830600  1
  C  929  1  0.00038500  0.04269300  0.30401900  1
  C  932  1  0.93548500  0.94415600  0.31172000  1
  C  933  1  0.93501700  0.05618700  0.21057500  1
  C  934  1  0.06834300  0.04970600  0.20550200  1
  C  938  1  0.06870700  0.95154700  0.31648800  1
  C  940  1  0.51665100  0.97480400  0.75963900  1
  C  941  1  0.51672700  0.95506800  0.78019000  1
  C  942  1  0.48079100  0.98018400  0.80555500  1
  C  943  1  0.48008000  0.00037700  0.78543800  1
  C  944  1  0.46257600  0.02263500  0.78931100  1
  C  945  1  0.44648600  0.02528900  0.81256500  1
  C  946  1  0.44711800  0.00443600  0.83179600  1
  C  947  1  0.46401800  0.98222100  0.82832600  1
  C  948  1  0.53378700  0.93253300  0.77813500  1
  C  949  1  0.55006200  0.92882700  0.75549300  1
  C  950  1  0.55001600  0.94765700  0.73420500  1
  C  951  1  0.53363100  0.97072800  0.73701100  1
  C  952  1  0.48011800  0.99758800  0.73672800  1
  C  953  1  0.48063200  0.01787600  0.71670100  1
  C  954  1  0.51636900  0.04320500  0.74210100  1
  C  955  1  0.51646800  0.02341900  0.76260400  1
  C  956  1  0.53320100  0.06590300  0.74421400  1
  C  957  1  0.54942500  0.06971200  0.76686800  1
  C  958  1  0.54955200  0.05083500  0.78811500  1
  C  959  1  0.53339800  0.02760700  0.78524900  1
  C  960  1  0.46280700  0.97519100  0.73276700  1
  C  961  1  0.44669100  0.97252800  0.70952900  1
  C  962  1  0.44709800  0.99350900  0.69042200  1
  C  963  1  0.46383100  0.01582900  0.69396100  1
  C  976  1  0.49830500  0.99904000  0.76109700  1
  C  977  1  0.49867300  0.04142500  0.71830600  1
  C  980  1  0.49903200  0.95677900  0.80400300  1
  C  983  1  0.56388700  0.05532400  0.81177000  1
  C  984  1  0.56442300  0.94328400  0.71056900  1
  C  985  1  0.43108700  0.94978600  0.70547400  1
  C  989  1  0.43068900  0.04791700  0.81645100  1
  C  991  1  0.22503000  0.73148800  0.50908500  1
  C  992  1  0.20493500  0.73128100  0.52929000  1
  C  993  1  0.22936100  0.76723700  0.55516800  1
  C  994  1  0.24997800  0.76809700  0.53545600  1
  C  995  1  0.27184300  0.78603300  0.53966600  1
  C  996  1  0.27351400  0.80228000  0.56286600  1
  C  997  1  0.25247700  0.80135200  0.58180800  1
  C  998  1  0.23068800  0.78401800  0.57799000  1
  C  999  1  0.18262000  0.71397200  0.52699800  1
  C  1000  1  0.17963600  0.69726900  0.50459000  1
  C  1001  1  0.19893600  0.69719100  0.48373300  1
  C  1002  1  0.22159600  0.71415900  0.48660500  1
  C  1003  1  0.24832700  0.76803300  0.48659500  1
  C  1004  1  0.26899800  0.76732200  0.46693600  1
  C  1005  1  0.29372500  0.73166700  0.49292800  1
  C  1006  1  0.27357800  0.73169700  0.51308300  1
  C  1007  1  0.31622800  0.71461900  0.49530800  1
  C  1008  1  0.31934200  0.69798600  0.51775100  1
  C  1009  1  0.29997200  0.69770700  0.53854100  1
  C  1010  1  0.27714500  0.71443600  0.53559700  1
  C  1011  1  0.22633000  0.78580000  0.48231300  1
  C  1012  1  0.22458300  0.80200400  0.45908200  1
  C  1013  1  0.24568800  0.80121300  0.44020300  1
  C  1014  1  0.26760100  0.78406000  0.44409200  1
  C  1027  1  0.24922500  0.74988600  0.51105100  1
  C  1028  1  0.29246200  0.74926300  0.46906300  1
  C  1031  1  0.20607800  0.74893200  0.55312900  1
  C  1034  1  0.30373400  0.68266300  0.56187800  1
  C  1035  1  0.19527200  0.68211900  0.46039900  1
  C  1036  1  0.20323600  0.81911300  0.45475300  1
  C  1040  1  0.29484800  0.81940400  0.56712600  1
  C  1042  1  0.27446200  0.26798000  0.00917100  1
  C  1043  1  0.29454500  0.26820700  0.02938700  1
  C  1044  1  0.27012900  0.23223500  0.05525600  1
  C  1045  1  0.24952800  0.23135500  0.03553300  1
  C  1046  1  0.22767800  0.21339900  0.03972600  1
  C  1047  1  0.22599900  0.19716200  0.06293500  1
  C  1048  1  0.24701900  0.19811200  0.08189100  1
  C  1049  1  0.26880400  0.21545600  0.07808100  1
  C  1050  1  0.31684300  0.28553600  0.02710500  1
  C  1051  1  0.31983000  0.30223300  0.00468800  1
  C  1052  1  0.30053200  0.30230100  0.98383000  1
  C  1053  1  0.27789000  0.28531000  0.98669200  1
  C  1054  1  0.25121700  0.23140700  0.98667600  1
  C  1055  1  0.23056400  0.23209200  0.96699700  1
  C  1056  1  0.20577900  0.26773500  0.99296000  1
  C  1057  1  0.22591000  0.26772900  0.01313200  1
  C  1058  1  0.18326100  0.28476700  0.99531800  1
  C  1059  1  0.18012000  0.30140800  0.01775300  1
  C  1060  1  0.19948000  0.30171900  0.03855300  1
  C  1061  1  0.22231300  0.28499400  0.03563500  1
  C  1062  1  0.27323200  0.21365800  0.98242400  1
  C  1063  1  0.27500400  0.19743200  0.95921400  1
  C  1064  1  0.25392100  0.19819000  0.94031200  1
  C  1065  1  0.23199800  0.21534100  0.94416400  1
  C  1078  1  0.25028100  0.24956000  0.01112300  1
  C  1079  1  0.20708200  0.25013300  0.96909700  1
  C  1082  1  0.29340200  0.25055600  0.05322800  1
  C  1085  1  0.19570900  0.31679100  0.06187000  1
  C  1086  1  0.30417700  0.31739100  0.96050500  1
  C  1087  1  0.29636400  0.18033400  0.95493800  1
  C  1091  1  0.20466400  0.18003500  0.06718700  1
  C  1093  1  0.77402400  0.26539300  0.01228600  1
  C  1094  1  0.79362300  0.26627500  0.99162300  1
  C  1095  1  0.76912100  0.23033700  0.96569500  1
  C  1096  1  0.74899800  0.22886900  0.98586800  1
  C  1097  1  0.72771600  0.21011100  0.98237400  1
  C  1098  1  0.72639600  0.19325900  0.95962700  1
  C  1099  1  0.74673600  0.19499200  0.94000400  1
  C  1100  1  0.76777100  0.21341700  0.94296900  1
  C  1101  1  0.81595100  0.28356600  0.99397100  1
  C  1102  1  0.81957900  0.29934700  0.01696800  1
  C  1103  1  0.80085300  0.29860600  0.03833700  1
  C  1104  1  0.77797900  0.28197300  0.03525100  1
  C  1105  1  0.75083600  0.22871200  0.03459700  1
  C  1106  1  0.73060400  0.22976800  0.05468800  1
  C  1107  1  0.70578300  0.26564200  0.02898100  1
  C  1108  1  0.72546800  0.26516800  0.00838800  1
  C  1109  1  0.68325000  0.28267400  0.02669300  1
  C  1110  1  0.67951400  0.29860200  0.00381600  1
  C  1111  1  0.69833400  0.29828200  0.98252400  1
  C  1112  1  0.72139700  0.28189900  0.98555100  1
  C  1113  1  0.77232500  0.21017600  0.03803100  1
  C  1114  1  0.77374300  0.19315000  0.06064900  1
  C  1115  1  0.75326800  0.19445900  0.08017000  1
  C  1116  1  0.73203400  0.21265800  0.07726300  1
  C  1129  1  0.74983600  0.24701900  0.01029000  1
  C  1130  1  0.70754500  0.24843300  0.05313100  1
  C  1133  1  0.79195800  0.24927100  0.96731600  1
  C  1136  1  0.69393500  0.31250100  0.95875400  1
  C  1137  1  0.80515400  0.31269100  0.06220600  1
  C  1138  1  0.79429400  0.17495000  0.06391100  1
  C  1142  1  0.70604800  0.17484300  0.95636200  1
  C  1144  1  0.72550700  0.73415700  0.51222000  1
  C  1145  1  0.70591600  0.73331800  0.49154600  1
  C  1146  1  0.73044100  0.76930000  0.46569500  1
  C  1147  1  0.75056300  0.77071200  0.48587400  1
  C  1148  1  0.77185100  0.78947100  0.48243400  1
  C  1149  1  0.77315600  0.80640500  0.45974900  1
  C  1150  1  0.75281400  0.80474200  0.44012300  1
  C  1151  1  0.73179100  0.78629000  0.44302100  1
  C  1152  1  0.68358100  0.71602600  0.49385800  1
  C  1153  1  0.67992600  0.70023400  0.51684300  1
  C  1154  1  0.69864900  0.70092500  0.53821400  1
  C  1155  1  0.72153800  0.71754300  0.53515500  1
  C  1156  1  0.74867900  0.77080000  0.53459900  1
  C  1157  1  0.76889000  0.76971600  0.55470600  1
  C  1158  1  0.79373300  0.73387000  0.52897500  1
  C  1159  1  0.77406600  0.73437200  0.50836300  1
  C  1160  1  0.81625500  0.71682200  0.52669500  1
  C  1161  1  0.82000700  0.70091900  0.50380400  1
  C  1162  1  0.80119900  0.70125200  0.48250200  1
  C  1163  1  0.77814900  0.71765900  0.48551500  1
  C  1164  1  0.72718800  0.78933500  0.53803700  1
  C  1165  1  0.72575000  0.80633100  0.56067500  1
  C  1166  1  0.74620800  0.80499700  0.58021000  1
  C  1167  1  0.76744000  0.78679600  0.57730100  1
  C  1180  1  0.74970100  0.75252500  0.51026800  1
  C  1181  1  0.79195200  0.75105100  0.55314500  1
  C  1184  1  0.70759900  0.75036600  0.46727000  1
  C  1187  1  0.80559800  0.68702600  0.45873500  1
  C  1188  1  0.69436100  0.68678500  0.56205300  1
  C  1189  1  0.70520300  0.82454000  0.56392700  1
  C  1193  1  0.79348000  0.82484900  0.45656800  1
  C  1195  1  0.48298400  0.52426300  0.75919700  1
  C  1196  1  0.48257800  0.54420300  0.77956900  1
  C  1197  1  0.51864700  0.51971200  0.80534000  1
  C  1198  1  0.51957100  0.49922100  0.78550800  1
  C  1199  1  0.53806300  0.47772200  0.78918200  1
  C  1200  1  0.55502100  0.47640400  0.81187400  1
  C  1201  1  0.55376400  0.49710400  0.83116200  1
  C  1202  1  0.53573100  0.51844200  0.82794600  1
  C  1203  1  0.46483300  0.56623400  0.77756700  1
  C  1204  1  0.44758000  0.56885600  0.75550700  1
  C  1205  1  0.44766500  0.54954600  0.73473400  1
  C  1206  1  0.46521100  0.52733600  0.73702300  1
  C  1207  1  0.51971600  0.50122300  0.73677200  1
  C  1208  1  0.51930400  0.48058200  0.71708100  1
  C  1209  1  0.48336000  0.45569300  0.74264700  1
  C  1210  1  0.48327100  0.47575600  0.76289900  1
  C  1211  1  0.46592400  0.43341200  0.74460300  1
  C  1212  1  0.44848000  0.43066900  0.76649800  1
  C  1213  1  0.44806800  0.45009300  0.78715900  1
  C  1214  1  0.46533300  0.47253200  0.78492200  1
  C  1215  1  0.53789500  0.52299300  0.73310500  1
  C  1216  1  0.55501700  0.52447400  0.71053300  1
  C  1217  1  0.55428600  0.50356700  0.69142800  1
  C  1218  1  0.53659100  0.48195400  0.69464200  1
  C  1231  1  0.50143000  0.50012100  0.76108700  1
  C  1232  1  0.50121300  0.45708500  0.71894900  1
  C  1235  1  0.50018900  0.54292000  0.80345600  1
  C  1238  1  0.43098200  0.44734700  0.80897400  1
  C  1239  1  0.43077700  0.55220300  0.71276100  1
  C  1240  1  0.57290500  0.54537000  0.70713700  1
  C  1244  1  0.57325000  0.45585700  0.81526800  1
  C  1246  1  0.01636200  0.47517900  0.25914900  1
  C  1247  1  0.01667600  0.45523300  0.27951600  1
  C  1248  1  0.98063600  0.47983100  0.30523600  1
  C  1249  1  0.97981300  0.50033400  0.28541200  1
  C  1250  1  0.96137700  0.52188300  0.28905600  1
  C  1251  1  0.94436700  0.52323000  0.31170600  1
  C  1252  1  0.94551600  0.50251700  0.33098300  1
  C  1253  1  0.96350600  0.48113600  0.32780500  1
  C  1254  1  0.03435500  0.43314700  0.27753200  1
  C  1255  1  0.05163600  0.43048000  0.25550000  1
  C  1256  1  0.05164700  0.44979600  0.23473000  1
  C  1257  1  0.03416000  0.47205600  0.23699900  1
  C  1258  1  0.97972500  0.49829900  0.23667400  1
  C  1259  1  0.98027500  0.51887800  0.21691800  1
  C  1260  1  0.01623700  0.54370300  0.24252100  1
  C  1261  1  0.01620400  0.52368800  0.26282300  1
  C  1262  1  0.03373600  0.56593500  0.24447900  1
  C  1263  1  0.05111700  0.56867900  0.26642400  1
  C  1264  1  0.05141000  0.54929700  0.28712900  1
  C  1265  1  0.03409400  0.52690200  0.28488500  1
  C  1266  1  0.96144700  0.47660700  0.23304500  1
  C  1267  1  0.94434900  0.47516900  0.21045900  1
  C  1268  1  0.94523100  0.49598300  0.19126600  1
  C  1269  1  0.96303800  0.51751000  0.19443700  1
  C  1282  1  0.99798200  0.49937200  0.26101000  1
  C  1283  1  0.99846000  0.54230500  0.21876600  1
  C  1286  1  0.99902800  0.45656600  0.30337600  1
  C  1289  1  0.06843000  0.55204600  0.30899200  1
  C  1290  1  0.06857600  0.44711600  0.21279100  1
  C  1291  1  0.92629400  0.45443500  0.20710700  1
  C  1295  1  0.92617200  0.54381200  0.31505200  1
  C  1297  1  0.90724800  0.91211800  0.33469900  1
  C  1298  1  0.88861900  0.89216400  0.32743400  1
  C  1299  1  0.87346700  0.87830500  0.34700800  1
  C  1300  1  0.87753800  0.88434500  0.37458200  1
  C  1301  1  0.89625900  0.90441000  0.38227100  1
  C  1302  1  0.91098600  0.91809200  0.36214700  1
  C  1304  1  0.86232800  0.87026300  0.39425000  1
  C  1305  1  0.86980300  0.84373900  0.40160900  1
  C  1306  1  0.85202800  0.82819500  0.41741500  1
  C  1307  1  0.82743400  0.83880000  0.42639000  1
  C  1308  1  0.82052700  0.86538500  0.41947300  1
  C  1309  1  0.83766500  0.88128000  0.40335200  1
  C  1327  1  0.59217400  0.08733200  0.83473500  1
  C  1328  1  0.61083700  0.10724800  0.82745200  1
  C  1329  1  0.62601100  0.12109600  0.84701500  1
  C  1330  1  0.62192600  0.11509200  0.87459600  1
  C  1331  1  0.60317700  0.09506200  0.88230000  1
  C  1332  1  0.58843000  0.08138100  0.86218700  1
  C  1334  1  0.63717700  0.12915800  0.89424500  1
  C  1335  1  0.62979800  0.15574100  0.90150700  1
  C  1336  1  0.64765100  0.17129700  0.91721200  1
  C  1337  1  0.67222700  0.16064800  0.92618000  1
  C  1338  1  0.67902400  0.13400500  0.91940300  1
  C  1339  1  0.66180500  0.11809600  0.90338100  1
  C  1357  1  0.33406400  0.65146700  0.58362000  1
  C  1358  1  0.35481000  0.63378800  0.57610000  1
  C  1359  1  0.36930500  0.61890700  0.59545400  1
  C  1360  1  0.36277500  0.62196200  0.62301100  1
  C  1361  1  0.34175400  0.63951300  0.63094200  1
  C  1362  1  0.32755600  0.65406000  0.61107200  1
  C  1364  1  0.37898400  0.60928500  0.64282100  1
  C  1365  1  0.40201100  0.62282200  0.65276700  1
  C  1366  1  0.41776000  0.61038700  0.67284000  1
  C  1367  1  0.41129700  0.58474300  0.68281200  1
  C  1368  1  0.38836600  0.57148900  0.67271900  1
  C  1369  1  0.37206100  0.58349600  0.65275900  1
  C  1387  1  0.16535700  0.34796100  0.08361000  1
  C  1388  1  0.14460400  0.36563800  0.07609800  1
  C  1389  1  0.13010500  0.38050600  0.09546200  1
  C  1390  1  0.13662700  0.37743500  0.12301900  1
  C  1391  1  0.15766100  0.35989100  0.13093600  1
  C  1392  1  0.17187500  0.34537200  0.11106000  1
  C  1394  1  0.12041500  0.39008700  0.14284100  1
  C  1395  1  0.09740900  0.37652000  0.15279700  1
  C  1396  1  0.08166100  0.38892600  0.17289000  1
  C  1397  1  0.08811900  0.41455900  0.18289200  1
  C  1398  1  0.11100000  0.42786700  0.17275500  1
  C  1399  1  0.12731000  0.41588400  0.15278300  1
  C  1417  1  0.59232700  0.91128300  0.68718800  1
  C  1418  1  0.61091000  0.89118600  0.69417400  1
  C  1419  1  0.62599100  0.87752400  0.67440600  1
  C  1420  1  0.62189600  0.88390100  0.64691000  1
  C  1421  1  0.60323500  0.90412700  0.63950500  1
  C  1422  1  0.58858100  0.91760800  0.65981800  1
  C  1424  1  0.63699200  0.86997000  0.62703800  1
  C  1425  1  0.62948400  0.84349000  0.61953800  1
  C  1426  1  0.64719100  0.82803900  0.60356400  1
  C  1427  1  0.67172900  0.83871000  0.59452800  1
  C  1428  1  0.67866000  0.86525600  0.60154800  1
  C  1429  1  0.66160000  0.88105100  0.61785700  1
  C  1447  1  0.90714500  0.08819600  0.18717400  1
  C  1448  1  0.88856500  0.10829700  0.19415200  1
  C  1449  1  0.87348100  0.12194700  0.17437800  1
  C  1450  1  0.87758200  0.11556000  0.14688400  1
  C  1451  1  0.89624300  0.09533100  0.13948700  1
  C  1452  1  0.91088900  0.08185400  0.15980900  1
  C  1454  1  0.86248000  0.12947600  0.12700800  1
  C  1455  1  0.86999800  0.15595400  0.11949800  1
  C  1456  1  0.85229500  0.17140500  0.10352000  1
  C  1457  1  0.82774700  0.16074100  0.09450000  1
  C  1458  1  0.82081600  0.13419600  0.10151400  1
  C  1459  1  0.83787600  0.11840000  0.11782100  1
  C  1477  1  0.16493700  0.65112600  0.43840800  1
  C  1478  1  0.14417300  0.63340300  0.44578100  1
  C  1479  1  0.12977000  0.61858400  0.42631300  1
  C  1480  1  0.13640000  0.62175100  0.39879200  1
  C  1481  1  0.15743600  0.63935200  0.39101000  1
  C  1482  1  0.17154500  0.65383100  0.41099100  1
  C  1484  1  0.12026600  0.60914400  0.37887700  1
  C  1485  1  0.09724700  0.62269300  0.36892600  1
  C  1486  1  0.08150500  0.61027700  0.34883700  1
  C  1487  1  0.08796500  0.58463800  0.33884900  1
  C  1488  1  0.11090400  0.57138200  0.34892600  1
  C  1489  1  0.12720100  0.58336900  0.36890600  1
  C  1507  1  0.33451000  0.34836800  0.93849400  1
  C  1508  1  0.35527600  0.36609500  0.94584700  1
  C  1509  1  0.36967300  0.38090200  0.92636500  1
  C  1510  1  0.36304100  0.37770900  0.89884600  1
  C  1511  1  0.34199700  0.36010600  0.89108500  1
  C  1512  1  0.32788200  0.34565500  0.91108200  1
  C  1514  1  0.37916500  0.39029600  0.87891200  1
  C  1515  1  0.40216800  0.37672800  0.86895000  1
  C  1516  1  0.41789700  0.38912500  0.84883600  1
  C  1517  1  0.41142300  0.41474900  0.83882200  1
  C  1518  1  0.38853000  0.42804600  0.84894500  1
  C  1519  1  0.37223900  0.41607300  0.86894200  1
  C  1537  1  0.08597100  0.07825900  0.17023700  1
  C  1538  1  0.10312700  0.09597000  0.18419000  1
  C  1539  1  0.11917900  0.11484800  0.17025500  1
  C  1540  1  0.11782300  0.11600400  0.14179200  1
  C  1541  1  0.10026500  0.09866800  0.12755800  1
  C  1542  1  0.08449200  0.08004500  0.14205500  1
  C  1544  1  0.13596900  0.13264600  0.12730100  1
  C  1545  1  0.12984100  0.16008700  0.12261100  1
  C  1546  1  0.14870300  0.17635300  0.10889100  1
  C  1547  1  0.17294200  0.16553400  0.09918800  1
  C  1548  1  0.17885100  0.13829900  0.10413300  1
  C  1549  1  0.16062800  0.12164400  0.11812800  1
  C  1567  1  0.41346600  0.92122500  0.67021200  1
  C  1568  1  0.39630100  0.90352400  0.68416600  1
  C  1569  1  0.38026700  0.88462600  0.67023500  1
  C  1570  1  0.38163300  0.88346300  0.64177400  1
  C  1571  1  0.39918300  0.90080300  0.62753600  1
  C  1572  1  0.41495800  0.91942700  0.64203100  1
  C  1574  1  0.36349200  0.86681500  0.62728300  1
  C  1575  1  0.36963400  0.83937900  0.62258700  1
  C  1576  1  0.35078300  0.82310600  0.60885500  1
  C  1577  1  0.32654200  0.83391700  0.59914800  1
  C  1578  1  0.32062100  0.86114900  0.60409700  1
  C  1579  1  0.33883200  0.87780900  0.61810400  1
  C  1597  1  0.66265900  0.34225500  0.93634900  1
  C  1598  1  0.64298100  0.36103600  0.94399500  1
  C  1599  1  0.62899800  0.37647100  0.92472200  1
  C  1600  1  0.63462800  0.37259500  0.89703400  1
  C  1601  1  0.65445400  0.35377300  0.88896200  1
  C  1602  1  0.66825400  0.33873600  0.90879000  1
  C  1604  1  0.62024700  0.38794400  0.87765200  1
  C  1605  1  0.59358400  0.38054700  0.87069700  1
  C  1606  1  0.57780500  0.39838000  0.85517900  1
  C  1607  1  0.58830600  0.42296200  0.84603900  1
  C  1608  1  0.61500300  0.42980500  0.85254000  1
  C  1609  1  0.63112500  0.41261600  0.86840100  1
  C  1627  1  0.83684400  0.65722200  0.43634800  1
  C  1628  1  0.85654700  0.63846600  0.44399400  1
  C  1629  1  0.87053600  0.62303300  0.42472400  1
  C  1630  1  0.86488000  0.62687700  0.39703700  1
  C  1631  1  0.84502400  0.64566900  0.38896500  1
  C  1632  1  0.83121400  0.66070000  0.40879100  1
  C  1634  1  0.87930800  0.61157800  0.37764700  1
  C  1635  1  0.90590800  0.61911200  0.37060400  1
  C  1636  1  0.92171500  0.60137100  0.35501200  1
  C  1637  1  0.91130900  0.57673500  0.34591600  1
  C  1638  1  0.88466000  0.56975900  0.35248600  1
  C  1639  1  0.86851800  0.58685000  0.36843600  1
  C  1657  1  0.41308200  0.07703800  0.85119200  1
  C  1658  1  0.39596400  0.09447200  0.83685000  1
  C  1659  1  0.37999600  0.11368500  0.85022000  1
  C  1660  1  0.38136000  0.11561300  0.87875300  1
  C  1661  1  0.39890800  0.09854500  0.89335900  1
  C  1662  1  0.41459500  0.07950900  0.87930900  1
  C  1664  1  0.36343800  0.13259000  0.89314000  1
  C  1665  1  0.37076500  0.15941600  0.89948100  1
  C  1666  1  0.35237900  0.17583500  0.91366700  1
  C  1667  1  0.32757600  0.16561700  0.92254600  1
  C  1668  1  0.32076400  0.13880800  0.91658500  1
  C  1669  1  0.33848700  0.12203800  0.90209600  1
  C  1687  1  0.08628500  0.92241400  0.35123000  1
  C  1688  1  0.10341100  0.90498800  0.33688600  1
  C  1689  1  0.11939000  0.88578500  0.35025500  1
  C  1690  1  0.11804300  0.88387700  0.37879000  1
  C  1691  1  0.10049500  0.90093900  0.39340000  1
  C  1692  1  0.08477800  0.91995000  0.37935000  1
  C  1694  1  0.13602200  0.86695500  0.39317100  1
  C  1695  1  0.12878700  0.84010200  0.39950400  1
  C  1696  1  0.14726700  0.82371600  0.41360700  1
  C  1697  1  0.17206900  0.83399600  0.42241300  1
  C  1698  1  0.17878300  0.86083300  0.41648100  1
  C  1699  1  0.16096800  0.87757000  0.40206600  1
  C  1717  1  0.83653700  0.34203200  0.08503000  1
  C  1718  1  0.85655500  0.36054600  0.07762700  1
  C  1719  1  0.87045200  0.37585300  0.09706300  1
  C  1720  1  0.86437600  0.37211900  0.12467800  1
  C  1721  1  0.84420300  0.35356600  0.13250500  1
  C  1722  1  0.83049900  0.33865300  0.11251200  1
  C  1724  1  0.87866300  0.38736100  0.14421900  1
  C  1725  1  0.90513100  0.37965900  0.15158200  1
  C  1726  1  0.92095400  0.39739800  0.16716400  1
  C  1727  1  0.91066600  0.42218300  0.17598100  1
  C  1728  1  0.88415400  0.42933900  0.16909000  1
  C  1729  1  0.86800400  0.41225100  0.15314600  1
  C  1747  1  0.66292800  0.65755100  0.58492400  1
  C  1748  1  0.64281500  0.63912300  0.57755000  1
  C  1749  1  0.62899400  0.62376000  0.59699500  1
  C  1750  1  0.63524100  0.62734500  0.62459100  1
  C  1751  1  0.65549000  0.64582500  0.63239000  1
  C  1752  1  0.66912400  0.66079300  0.61238800  1
  C  1754  1  0.62104000  0.61202400  0.64413600  1
  C  1755  1  0.59465500  0.61977300  0.65174200  1
  C  1756  1  0.57884200  0.60194200  0.66722600  1
  C  1757  1  0.58907700  0.57701200  0.67567600  1
  C  1758  1  0.61551900  0.56980600  0.66859800  1
  C  1759  1  0.63164500  0.58699000  0.65272600  1
  C  1777  1  0.98278100  0.02467200  0.52075200  1
  C  1778  1  0.98269500  0.04440300  0.54131000  1
  C  1779  1  0.01862300  0.01928500  0.56668200  1
  C  1780  1  0.01933600  0.99909200  0.54656500  1
  C  1781  1  0.03682600  0.97682600  0.55044700  1
  C  1782  1  0.05291400  0.97417500  0.57370200  1
  C  1783  1  0.05227900  0.99502700  0.59293600  1
  C  1784  1  0.03539300  0.01725100  0.58945300  1
  C  1785  1  0.96563700  0.06693900  0.53925100  1
  C  1786  1  0.94936600  0.07064500  0.51660700  1
  C  1787  1  0.94943000  0.05182400  0.49531000  1
  C  1788  1  0.96581000  0.02874900  0.49812000  1
  C  1789  1  0.01932400  0.00188700  0.49785500  1
  C  1790  1  0.01881500  0.98160200  0.47782200  1
  C  1791  1  0.98305100  0.95628100  0.50319200  1
  C  1792  1  0.98295600  0.97605700  0.52370600  1
  C  1793  1  0.96620100  0.93359500  0.50528300  1
  C  1794  1  0.94996300  0.92978300  0.52792500  1
  C  1795  1  0.94983600  0.94864900  0.54918200  1
  C  1796  1  0.96601900  0.97186100  0.54634500  1
  C  1797  1  0.03664800  0.02427800  0.49391100  1
  C  1798  1  0.05275200  0.02695500  0.47066400  1
  C  1799  1  0.05235500  0.00597400  0.45155700  1
  C  1800  1  0.03563400  0.98364500  0.45509600  1
  C  1813  1  0.00112500  0.00043300  0.52221500  1
  C  1814  1  0.00076500  0.95806100  0.47941100  1
  C  1817  1  0.00038500  0.04269300  0.56512400  1
  C  1820  1  0.93548500  0.94415600  0.57282500  1
  C  1821  1  0.93501700  0.05618700  0.47168000  1
  C  1822  1  0.06834300  0.04970600  0.46660700  1
  C  1826  1  0.06870700  0.95154700  0.57759300  1
  C  1828  1  0.51665100  0.97480400  0.02074400  1
  C  1829  1  0.51672700  0.95506800  0.04129500  1
  C  1830  1  0.48079100  0.98018400  0.06666000  1
  C  1831  1  0.48008000  0.00037700  0.04654300  1
  C  1832  1  0.46257600  0.02263500  0.05041600  1
  C  1833  1  0.44648600  0.02528900  0.07367000  1
  C  1834  1  0.44711800  0.00443600  0.09290100  1
  C  1835  1  0.46401800  0.98222100  0.08943100  1
  C  1836  1  0.53378700  0.93253300  0.03924000  1
  C  1837  1  0.55006200  0.92882700  0.01659800  1
  C  1838  1  0.55001600  0.94765700  0.99531000  1
  C  1839  1  0.53363100  0.97072800  0.99811600  1
  C  1840  1  0.48011800  0.99758800  0.99783300  1
  C  1841  1  0.48063200  0.01787600  0.97780600  1
  C  1842  1  0.51636900  0.04320500  0.00320599  1
  C  1843  1  0.51646800  0.02341900  0.02370900  1
  C  1844  1  0.53320100  0.06590300  0.00531899  1
  C  1845  1  0.54942500  0.06971200  0.02797300  1
  C  1846  1  0.54955200  0.05083500  0.04922000  1
  C  1847  1  0.53339800  0.02760700  0.04635400  1
  C  1848  1  0.46280700  0.97519100  0.99387200  1
  C  1849  1  0.44669100  0.97252800  0.97063400  1
  C  1850  1  0.44709800  0.99350900  0.95152700  1
  C  1851  1  0.46383100  0.01582900  0.95506600  1
  C  1864  1  0.49830500  0.99904000  0.02220200  1
  C  1865  1  0.49867300  0.04142500  0.97941100  1
  C  1868  1  0.49903200  0.95677900  0.06510800  1
  C  1871  1  0.56388700  0.05532400  0.07287500  1
  C  1872  1  0.56442300  0.94328400  0.97167400  1
  C  1873  1  0.43108700  0.94978600  0.96657900  1
  C  1877  1  0.43068900  0.04791700  0.07755600  1
  C  1879  1  0.22503000  0.73148800  0.77019000  1
  C  1880  1  0.20493500  0.73128100  0.79039500  1
  C  1881  1  0.22936100  0.76723700  0.81627300  1
  C  1882  1  0.24997800  0.76809700  0.79656100  1
  C  1883  1  0.27184300  0.78603300  0.80077100  1
  C  1884  1  0.27351400  0.80228000  0.82397100  1
  C  1885  1  0.25247700  0.80135200  0.84291300  1
  C  1886  1  0.23068800  0.78401800  0.83909500  1
  C  1887  1  0.18262000  0.71397200  0.78810300  1
  C  1888  1  0.17963600  0.69726900  0.76569500  1
  C  1889  1  0.19893600  0.69719100  0.74483800  1
  C  1890  1  0.22159600  0.71415900  0.74771000  1
  C  1891  1  0.24832700  0.76803300  0.74770000  1
  C  1892  1  0.26899800  0.76732200  0.72804100  1
  C  1893  1  0.29372500  0.73166700  0.75403300  1
  C  1894  1  0.27357800  0.73169700  0.77418800  1
  C  1895  1  0.31622800  0.71461900  0.75641300  1
  C  1896  1  0.31934200  0.69798600  0.77885600  1
  C  1897  1  0.29997200  0.69770700  0.79964600  1
  C  1898  1  0.27714500  0.71443600  0.79670200  1
  C  1899  1  0.22633000  0.78580000  0.74341800  1
  C  1900  1  0.22458300  0.80200400  0.72018700  1
  C  1901  1  0.24568800  0.80121300  0.70130800  1
  C  1902  1  0.26760100  0.78406000  0.70519700  1
  C  1915  1  0.24922500  0.74988600  0.77215600  1
  C  1916  1  0.29246200  0.74926300  0.73016800  1
  C  1919  1  0.20607800  0.74893200  0.81423400  1
  C  1922  1  0.30373400  0.68266300  0.82298300  1
  C  1923  1  0.19527200  0.68211900  0.72150400  1
  C  1924  1  0.20323600  0.81911300  0.71585800  1
  C  1928  1  0.29484800  0.81940400  0.82823100  1
  C  1930  1  0.27446200  0.26798000  0.27027600  1
  C  1931  1  0.29454500  0.26820700  0.29049200  1
  C  1932  1  0.27012900  0.23223500  0.31636100  1
  C  1933  1  0.24952800  0.23135500  0.29663800  1
  C  1934  1  0.22767800  0.21339900  0.30083100  1
  C  1935  1  0.22599900  0.19716200  0.32404000  1
  C  1936  1  0.24701900  0.19811200  0.34299600  1
  C  1937  1  0.26880400  0.21545600  0.33918600  1
  C  1938  1  0.31684300  0.28553600  0.28821000  1
  C  1939  1  0.31983000  0.30223300  0.26579300  1
  C  1940  1  0.30053200  0.30230100  0.24493500  1
  C  1941  1  0.27789000  0.28531000  0.24779700  1
  C  1942  1  0.25121700  0.23140700  0.24778100  1
  C  1943  1  0.23056400  0.23209200  0.22810200  1
  C  1944  1  0.20577900  0.26773500  0.25406500  1
  C  1945  1  0.22591000  0.26772900  0.27423700  1
  C  1946  1  0.18326100  0.28476700  0.25642300  1
  C  1947  1  0.18012000  0.30140800  0.27885800  1
  C  1948  1  0.19948000  0.30171900  0.29965800  1
  C  1949  1  0.22231300  0.28499400  0.29674000  1
  C  1950  1  0.27323200  0.21365800  0.24352900  1
  C  1951  1  0.27500400  0.19743200  0.22031900  1
  C  1952  1  0.25392100  0.19819000  0.20141700  1
  C  1953  1  0.23199800  0.21534100  0.20526900  1
  C  1966  1  0.25028100  0.24956000  0.27222800  1
  C  1967  1  0.20708200  0.25013300  0.23020200  1
  C  1970  1  0.29340200  0.25055600  0.31433300  1
  C  1973  1  0.19570900  0.31679100  0.32297500  1
  C  1974  1  0.30417700  0.31739100  0.22161000  1
  C  1975  1  0.29636400  0.18033400  0.21604300  1
  C  1979  1  0.20466400  0.18003500  0.32829200  1
  C  1981  1  0.77402400  0.26539300  0.27339100  1
  C  1982  1  0.79362300  0.26627500  0.25272800  1
  C  1983  1  0.76912100  0.23033700  0.22680000  1
  C  1984  1  0.74899800  0.22886900  0.24697300  1
  C  1985  1  0.72771600  0.21011100  0.24347900  1
  C  1986  1  0.72639600  0.19325900  0.22073200  1
  C  1987  1  0.74673600  0.19499200  0.20110900  1
  C  1988  1  0.76777100  0.21341700  0.20407400  1
  C  1989  1  0.81595100  0.28356600  0.25507600  1
  C  1990  1  0.81957900  0.29934700  0.27807300  1
  C  1991  1  0.80085300  0.29860600  0.29944200  1
  C  1992  1  0.77797900  0.28197300  0.29635600  1
  C  1993  1  0.75083600  0.22871200  0.29570200  1
  C  1994  1  0.73060400  0.22976800  0.31579300  1
  C  1995  1  0.70578300  0.26564200  0.29008600  1
  C  1996  1  0.72546800  0.26516800  0.26949300  1
  C  1997  1  0.68325000  0.28267400  0.28779800  1
  C  1998  1  0.67951400  0.29860200  0.26492100  1
  C  1999  1  0.69833400  0.29828200  0.24362900  1
  C  2000  1  0.72139700  0.28189900  0.24665600  1
  C  2001  1  0.77232500  0.21017600  0.29913600  1
  C  2002  1  0.77374300  0.19315000  0.32175400  1
  C  2003  1  0.75326800  0.19445900  0.34127500  1
  C  2004  1  0.73203400  0.21265800  0.33836800  1
  C  2017  1  0.74983600  0.24701900  0.27139500  1
  C  2018  1  0.70754500  0.24843300  0.31423600  1
  C  2021  1  0.79195800  0.24927100  0.22842100  1
  C  2024  1  0.69393500  0.31250100  0.21985900  1
  C  2025  1  0.80515400  0.31269100  0.32331100  1
  C  2026  1  0.79429400  0.17495000  0.32501600  1
  C  2030  1  0.70604800  0.17484300  0.21746700  1
  C  2032  1  0.72550700  0.73415700  0.77332500  1
  C  2033  1  0.70591600  0.73331800  0.75265100  1
  C  2034  1  0.73044100  0.76930000  0.72680000  1
  C  2035  1  0.75056300  0.77071200  0.74697900  1
  C  2036  1  0.77185100  0.78947100  0.74353900  1
  C  2037  1  0.77315600  0.80640500  0.72085400  1
  C  2038  1  0.75281400  0.80474200  0.70122800  1
  C  2039  1  0.73179100  0.78629000  0.70412600  1
  C  2040  1  0.68358100  0.71602600  0.75496300  1
  C  2041  1  0.67992600  0.70023400  0.77794800  1
  C  2042  1  0.69864900  0.70092500  0.79931900  1
  C  2043  1  0.72153800  0.71754300  0.79626000  1
  C  2044  1  0.74867900  0.77080000  0.79570400  1
  C  2045  1  0.76889000  0.76971600  0.81581100  1
  C  2046  1  0.79373300  0.73387000  0.79008000  1
  C  2047  1  0.77406600  0.73437200  0.76946800  1
  C  2048  1  0.81625500  0.71682200  0.78780000  1
  C  2049  1  0.82000700  0.70091900  0.76490900  1
  C  2050  1  0.80119900  0.70125200  0.74360700  1
  C  2051  1  0.77814900  0.71765900  0.74662000  1
  C  2052  1  0.72718800  0.78933500  0.79914200  1
  C  2053  1  0.72575000  0.80633100  0.82178000  1
  C  2054  1  0.74620800  0.80499700  0.84131500  1
  C  2055  1  0.76744000  0.78679600  0.83840600  1
  C  2068  1  0.74970100  0.75252500  0.77137300  1
  C  2069  1  0.79195200  0.75105100  0.81425000  1
  C  2072  1  0.70759900  0.75036600  0.72837500  1
  C  2075  1  0.80559800  0.68702600  0.71984000  1
  C  2076  1  0.69436100  0.68678500  0.82315800  1
  C  2077  1  0.70520300  0.82454000  0.82503200  1
  C  2081  1  0.79348000  0.82484900  0.71767300  1
  C  2083  1  0.48298400  0.52426300  0.02030200  1
  C  2084  1  0.48257800  0.54420300  0.04067400  1
  C  2085  1  0.51864700  0.51971200  0.06644500  1
  C  2086  1  0.51957100  0.49922100  0.04661300  1
  C  2087  1  0.53806300  0.47772200  0.05028700  1
  C  2088  1  0.55502100  0.47640400  0.07297900  1
  C  2089  1  0.55376400  0.49710400  0.09226700  1
  C  2090  1  0.53573100  0.51844200  0.08905100  1
  C  2091  1  0.46483300  0.56623400  0.03867200  1
  C  2092  1  0.44758000  0.56885600  0.01661200  1
  C  2093  1  0.44766500  0.54954600  0.99583900  1
  C  2094  1  0.46521100  0.52733600  0.99812800  1
  C  2095  1  0.51971600  0.50122300  0.99787700  1
  C  2096  1  0.51930400  0.48058200  0.97818600  1
  C  2097  1  0.48336000  0.45569300  0.00375199  1
  C  2098  1  0.48327100  0.47575600  0.02400400  1
  C  2099  1  0.46592400  0.43341200  0.00570799  1
  C  2100  1  0.44848000  0.43066900  0.02760300  1
  C  2101  1  0.44806800  0.45009300  0.04826400  1
  C  2102  1  0.46533300  0.47253200  0.04602700  1
  C  2103  1  0.53789500  0.52299300  0.99421000  1
  C  2104  1  0.55501700  0.52447400  0.97163800  1
  C  2105  1  0.55428600  0.50356700  0.95253300  1
  C  2106  1  0.53659100  0.48195400  0.95574700  1
  C  2119  1  0.50143000  0.50012100  0.02219200  1
  C  2120  1  0.50121300  0.45708500  0.98005400  1
  C  2123  1  0.50018900  0.54292000  0.06456100  1
  C  2126  1  0.43098200  0.44734700  0.07007900  1
  C  2127  1  0.43077700  0.55220300  0.97386600  1
  C  2128  1  0.57290500  0.54537000  0.96824200  1
  C  2132  1  0.57325000  0.45585700  0.07637300  1
  C  2134  1  0.01636200  0.47517900  0.52025400  1
  C  2135  1  0.01667600  0.45523300  0.54062100  1
  C  2136  1  0.98063600  0.47983100  0.56634100  1
  C  2137  1  0.97981300  0.50033400  0.54651700  1
  C  2138  1  0.96137700  0.52188300  0.55016100  1
  C  2139  1  0.94436700  0.52323000  0.57281100  1
  C  2140  1  0.94551600  0.50251700  0.59208800  1
  C  2141  1  0.96350600  0.48113600  0.58891000  1
  C  2142  1  0.03435500  0.43314700  0.53863700  1
  C  2143  1  0.05163600  0.43048000  0.51660500  1
  C  2144  1  0.05164700  0.44979600  0.49583500  1
  C  2145  1  0.03416000  0.47205600  0.49810400  1
  C  2146  1  0.97972500  0.49829900  0.49777900  1
  C  2147  1  0.98027500  0.51887800  0.47802300  1
  C  2148  1  0.01623700  0.54370300  0.50362600  1
  C  2149  1  0.01620400  0.52368800  0.52392800  1
  C  2150  1  0.03373600  0.56593500  0.50558400  1
  C  2151  1  0.05111700  0.56867900  0.52752900  1
  C  2152  1  0.05141000  0.54929700  0.54823400  1
  C  2153  1  0.03409400  0.52690200  0.54599000  1
  C  2154  1  0.96144700  0.47660700  0.49415000  1
  C  2155  1  0.94434900  0.47516900  0.47156400  1
  C  2156  1  0.94523100  0.49598300  0.45237100  1
  C  2157  1  0.96303800  0.51751000  0.45554200  1
  C  2170  1  0.99798200  0.49937200  0.52211500  1
  C  2171  1  0.99846000  0.54230500  0.47987100  1
  C  2174  1  0.99902800  0.45656600  0.56448100  1
  C  2177  1  0.06843000  0.55204600  0.57009700  1
  C  2178  1  0.06857600  0.44711600  0.47389600  1
  C  2179  1  0.92629400  0.45443500  0.46821200  1
  C  2183  1  0.92617200  0.54381200  0.57615700  1
  C  2185  1  0.90724800  0.91211800  0.59580400  1
  C  2186  1  0.88861900  0.89216400  0.58853900  1
  C  2187  1  0.87346700  0.87830500  0.60811300  1
  C  2188  1  0.87753800  0.88434500  0.63568700  1
  C  2189  1  0.89625900  0.90441000  0.64337600  1
  C  2190  1  0.91098600  0.91809200  0.62325200  1
  C  2192  1  0.86232800  0.87026300  0.65535500  1
  C  2193  1  0.86980300  0.84373900  0.66271400  1
  C  2194  1  0.85202800  0.82819500  0.67852000  1
  C  2195  1  0.82743400  0.83880000  0.68749500  1
  C  2196  1  0.82052700  0.86538500  0.68057800  1
  C  2197  1  0.83766500  0.88128000  0.66445700  1
  C  2215  1  0.59217400  0.08733200  0.09584000  1
  C  2216  1  0.61083700  0.10724800  0.08855700  1
  C  2217  1  0.62601100  0.12109600  0.10812000  1
  C  2218  1  0.62192600  0.11509200  0.13570100  1
  C  2219  1  0.60317700  0.09506200  0.14340500  1
  C  2220  1  0.58843000  0.08138100  0.12329200  1
  C  2222  1  0.63717700  0.12915800  0.15535000  1
  C  2223  1  0.62979800  0.15574100  0.16261200  1
  C  2224  1  0.64765100  0.17129700  0.17831700  1
  C  2225  1  0.67222700  0.16064800  0.18728500  1
  C  2226  1  0.67902400  0.13400500  0.18050800  1
  C  2227  1  0.66180500  0.11809600  0.16448600  1
  C  2245  1  0.33406400  0.65146700  0.84472500  1
  C  2246  1  0.35481000  0.63378800  0.83720500  1
  C  2247  1  0.36930500  0.61890700  0.85655900  1
  C  2248  1  0.36277500  0.62196200  0.88411600  1
  C  2249  1  0.34175400  0.63951300  0.89204700  1
  C  2250  1  0.32755600  0.65406000  0.87217700  1
  C  2252  1  0.37898400  0.60928500  0.90392600  1
  C  2253  1  0.40201100  0.62282200  0.91387200  1
  C  2254  1  0.41776000  0.61038700  0.93394500  1
  C  2255  1  0.41129700  0.58474300  0.94391700  1
  C  2256  1  0.38836600  0.57148900  0.93382400  1
  C  2257  1  0.37206100  0.58349600  0.91386400  1
  C  2275  1  0.16535700  0.34796100  0.34471500  1
  C  2276  1  0.14460400  0.36563800  0.33720300  1
  C  2277  1  0.13010500  0.38050600  0.35656700  1
  C  2278  1  0.13662700  0.37743500  0.38412400  1
  C  2279  1  0.15766100  0.35989100  0.39204100  1
  C  2280  1  0.17187500  0.34537200  0.37216500  1
  C  2282  1  0.12041500  0.39008700  0.40394600  1
  C  2283  1  0.09740900  0.37652000  0.41390200  1
  C  2284  1  0.08166100  0.38892600  0.43399500  1
  C  2285  1  0.08811900  0.41455900  0.44399700  1
  C  2286  1  0.11100000  0.42786700  0.43386000  1
  C  2287  1  0.12731000  0.41588400  0.41388800  1
  C  2305  1  0.59232700  0.91128300  0.94829300  1
  C  2306  1  0.61091000  0.89118600  0.95527900  1
  C  2307  1  0.62599100  0.87752400  0.93551100  1
  C  2308  1  0.62189600  0.88390100  0.90801500  1
  C  2309  1  0.60323500  0.90412700  0.90061000  1
  C  2310  1  0.58858100  0.91760800  0.92092300  1
  C  2312  1  0.63699200  0.86997000  0.88814300  1
  C  2313  1  0.62948400  0.84349000  0.88064300  1
  C  2314  1  0.64719100  0.82803900  0.86466900  1
  C  2315  1  0.67172900  0.83871000  0.85563300  1
  C  2316  1  0.67866000  0.86525600  0.86265300  1
  C  2317  1  0.66160000  0.88105100  0.87896200  1
  C  2335  1  0.90714500  0.08819600  0.44827900  1
  C  2336  1  0.88856500  0.10829700  0.45525700  1
  C  2337  1  0.87348100  0.12194700  0.43548300  1
  C  2338  1  0.87758200  0.11556000  0.40798900  1
  C  2339  1  0.89624300  0.09533100  0.40059200  1
  C  2340  1  0.91088900  0.08185400  0.42091400  1
  C  2342  1  0.86248000  0.12947600  0.38811300  1
  C  2343  1  0.86999800  0.15595400  0.38060300  1
  C  2344  1  0.85229500  0.17140500  0.36462500  1
  C  2345  1  0.82774700  0.16074100  0.35560500  1
  C  2346  1  0.82081600  0.13419600  0.36261900  1
  C  2347  1  0.83787600  0.11840000  0.37892600  1
  C  2365  1  0.16493700  0.65112600  0.69951300  1
  C  2366  1  0.14417300  0.63340300  0.70688600  1
  C  2367  1  0.12977000  0.61858400  0.68741800  1
  C  2368  1  0.13640000  0.62175100  0.65989700  1
  C  2369  1  0.15743600  0.63935200  0.65211500  1
  C  2370  1  0.17154500  0.65383100  0.67209600  1
  C  2372  1  0.12026600  0.60914400  0.63998200  1
  C  2373  1  0.09724700  0.62269300  0.63003100  1
  C  2374  1  0.08150500  0.61027700  0.60994200  1
  C  2375  1  0.08796500  0.58463800  0.59995400  1
  C  2376  1  0.11090400  0.57138200  0.61003100  1
  C  2377  1  0.12720100  0.58336900  0.63001100  1
  C  2395  1  0.33451000  0.34836800  0.19959900  1
  C  2396  1  0.35527600  0.36609500  0.20695200  1
  C  2397  1  0.36967300  0.38090200  0.18747000  1
  C  2398  1  0.36304100  0.37770900  0.15995100  1
  C  2399  1  0.34199700  0.36010600  0.15219000  1
  C  2400  1  0.32788200  0.34565500  0.17218700  1
  C  2402  1  0.37916500  0.39029600  0.14001700  1
  C  2403  1  0.40216800  0.37672800  0.13005500  1
  C  2404  1  0.41789700  0.38912500  0.10994100  1
  C  2405  1  0.41142300  0.41474900  0.09992700  1
  C  2406  1  0.38853000  0.42804600  0.11005000  1
  C  2407  1  0.37223900  0.41607300  0.13004700  1
  C  2425  1  0.08597100  0.07825900  0.43134200  1
  C  2426  1  0.10312700  0.09597000  0.44529500  1
  C  2427  1  0.11917900  0.11484800  0.43136000  1
  C  2428  1  0.11782300  0.11600400  0.40289700  1
  C  2429  1  0.10026500  0.09866800  0.38866300  1
  C  2430  1  0.08449200  0.08004500  0.40316000  1
  C  2432  1  0.13596900  0.13264600  0.38840600  1
  C  2433  1  0.12984100  0.16008700  0.38371600  1
  C  2434  1  0.14870300  0.17635300  0.36999600  1
  C  2435  1  0.17294200  0.16553400  0.36029300  1
  C  2436  1  0.17885100  0.13829900  0.36523800  1
  C  2437  1  0.16062800  0.12164400  0.37923300  1
  C  2455  1  0.41346600  0.92122500  0.93131700  1
  C  2456  1  0.39630100  0.90352400  0.94527100  1
  C  2457  1  0.38026700  0.88462600  0.93134000  1
  C  2458  1  0.38163300  0.88346300  0.90287900  1
  C  2459  1  0.39918300  0.90080300  0.88864100  1
  C  2460  1  0.41495800  0.91942700  0.90313600  1
  C  2462  1  0.36349200  0.86681500  0.88838800  1
  C  2463  1  0.36963400  0.83937900  0.88369200  1
  C  2464  1  0.35078300  0.82310600  0.86996000  1
  C  2465  1  0.32654200  0.83391700  0.86025300  1
  C  2466  1  0.32062100  0.86114900  0.86520200  1
  C  2467  1  0.33883200  0.87780900  0.87920900  1
  C  2485  1  0.66265900  0.34225500  0.19745400  1
  C  2486  1  0.64298100  0.36103600  0.20510000  1
  C  2487  1  0.62899800  0.37647100  0.18582700  1
  C  2488  1  0.63462800  0.37259500  0.15813900  1
  C  2489  1  0.65445400  0.35377300  0.15006700  1
  C  2490  1  0.66825400  0.33873600  0.16989500  1
  C  2492  1  0.62024700  0.38794400  0.13875700  1
  C  2493  1  0.59358400  0.38054700  0.13180200  1
  C  2494  1  0.57780500  0.39838000  0.11628400  1
  C  2495  1  0.58830600  0.42296200  0.10714400  1
  C  2496  1  0.61500300  0.42980500  0.11364500  1
  C  2497  1  0.63112500  0.41261600  0.12950600  1
  C  2515  1  0.83684400  0.65722200  0.69745300  1
  C  2516  1  0.85654700  0.63846600  0.70509900  1
  C  2517  1  0.87053600  0.62303300  0.68582900  1
  C  2518  1  0.86488000  0.62687700  0.65814200  1
  C  2519  1  0.84502400  0.64566900  0.65007000  1
  C  2520  1  0.83121400  0.66070000  0.66989600  1
  C  2522  1  0.87930800  0.61157800  0.63875200  1
  C  2523  1  0.90590800  0.61911200  0.63170900  1
  C  2524  1  0.92171500  0.60137100  0.61611700  1
  C  2525  1  0.91130900  0.57673500  0.60702100  1
  C  2526  1  0.88466000  0.56975900  0.61359100  1
  C  2527  1  0.86851800  0.58685000  0.62954100  1
  C  2545  1  0.41308200  0.07703800  0.11229700  1
  C  2546  1  0.39596400  0.09447200  0.09795500  1
  C  2547  1  0.37999600  0.11368500  0.11132500  1
  C  2548  1  0.38136000  0.11561300  0.13985800  1
  C  2549  1  0.39890800  0.09854500  0.15446400  1
  C  2550  1  0.41459500  0.07950900  0.14041400  1
  C  2552  1  0.36343800  0.13259000  0.15424500  1
  C  2553  1  0.37076500  0.15941600  0.16058600  1
  C  2554  1  0.35237900  0.17583500  0.17477200  1
  C  2555  1  0.32757600  0.16561700  0.18365100  1
  C  2556  1  0.32076400  0.13880800  0.17769000  1
  C  2557  1  0.33848700  0.12203800  0.16320100  1
  C  2575  1  0.08628500  0.92241400  0.61233500  1
  C  2576  1  0.10341100  0.90498800  0.59799100  1
  C  2577  1  0.11939000  0.88578500  0.61136000  1
  C  2578  1  0.11804300  0.88387700  0.63989500  1
  C  2579  1  0.10049500  0.90093900  0.65450500  1
  C  2580  1  0.08477800  0.91995000  0.64045500  1
  C  2582  1  0.13602200  0.86695500  0.65427600  1
  C  2583  1  0.12878700  0.84010200  0.66060900  1
  C  2584  1  0.14726700  0.82371600  0.67471200  1
  C  2585  1  0.17206900  0.83399600  0.68351800  1
  C  2586  1  0.17878300  0.86083300  0.67758600  1
  C  2587  1  0.16096800  0.87757000  0.66317100  1
  C  2605  1  0.83653700  0.34203200  0.34613500  1
  C  2606  1  0.85655500  0.36054600  0.33873200  1
  C  2607  1  0.87045200  0.37585300  0.35816800  1
  C  2608  1  0.86437600  0.37211900  0.38578300  1
  C  2609  1  0.84420300  0.35356600  0.39361000  1
  C  2610  1  0.83049900  0.33865300  0.37361700  1
  C  2612  1  0.87866300  0.38736100  0.40532400  1
  C  2613  1  0.90513100  0.37965900  0.41268700  1
  C  2614  1  0.92095400  0.39739800  0.42826900  1
  C  2615  1  0.91066600  0.42218300  0.43708600  1
  C  2616  1  0.88415400  0.42933900  0.43019500  1
  C  2617  1  0.86800400  0.41225100  0.41425100  1
  C  2635  1  0.66292800  0.65755100  0.84602900  1
  C  2636  1  0.64281500  0.63912300  0.83865500  1
  C  2637  1  0.62899400  0.62376000  0.85810000  1
  C  2638  1  0.63524100  0.62734500  0.88569600  1
  C  2639  1  0.65549000  0.64582500  0.89349500  1
  C  2640  1  0.66912400  0.66079300  0.87349300  1
  C  2642  1  0.62104000  0.61202400  0.90524100  1
  C  2643  1  0.59465500  0.61977300  0.91284700  1
  C  2644  1  0.57884200  0.60194200  0.92833100  1
  C  2645  1  0.58907700  0.57701200  0.93678100  1
  C  2646  1  0.61551900  0.56980600  0.92970300  1
  C  2647  1  0.63164500  0.58699000  0.91383100  1
  N  425  1  0.82996100  0.90739400  0.13394400  1
  N  426  1  0.89442600  0.83294900  0.13114800  1
  N  427  1  0.85436000  0.85859000  0.07832600  1
  N  428  1  0.90010400  0.91008200  0.14877000  1
  N  437  1  0.80927500  0.82217400  0.17526900  1
  N  438  1  0.92165500  0.92262700  0.05388800  1
  N  455  1  0.66941300  0.09192600  0.63406600  1
  N  456  1  0.60520100  0.16657700  0.63103300  1
  N  457  1  0.64516300  0.14076400  0.57831000  1
  N  458  1  0.59932700  0.08941700  0.64880400  1
  N  467  1  0.69053300  0.17724300  0.67481600  1
  N  468  1  0.57776100  0.07682700  0.55392600  1
  N  485  1  0.34883800  0.57044000  0.38168100  1
  N  486  1  0.40873600  0.64858900  0.38158500  1
  N  487  1  0.39062100  0.60164800  0.32673700  1
  N  488  1  0.33589000  0.64277600  0.39749000  1
  N  497  1  0.42622200  0.57557400  0.44172800  1
  N  498  1  0.32396900  0.66684000  0.30329800  1
  N  515  1  0.15050300  0.42897600  0.88168600  1
  N  516  1  0.09069900  0.35075700  0.88159900  1
  N  517  1  0.10878100  0.39775700  0.82675700  1
  N  518  1  0.16351900  0.35660500  0.89748600  1
  N  527  1  0.07315200  0.42374100  0.94177400  1
  N  528  1  0.17546100  0.33260200  0.80328000  1
  N  545  1  0.66935500  0.90710500  0.36519000  1
  N  546  1  0.60490200  0.83264000  0.36782500  1
  N  547  1  0.64507400  0.85768200  0.42061400  1
  N  548  1  0.59937300  0.91016200  0.35087300  1
  N  557  1  0.68997200  0.82216600  0.32348100  1
  N  558  1  0.57798000  0.92162100  0.44593500  1
  N  575  1  0.83011900  0.09234700  0.86516200  1
  N  576  1  0.89457600  0.16680500  0.86779300  1
  N  577  1  0.85439400  0.14178900  0.92057600  1
  N  578  1  0.90010600  0.08928300  0.85085900  1
  N  587  1  0.80949400  0.17729000  0.82348900  1
  N  588  1  0.92149200  0.07786900  0.94592500  1
  N  605  1  0.15041100  0.57030000  0.11778200  1
  N  606  1  0.09050800  0.64844200  0.11793400  1
  N  607  1  0.10844300  0.60127500  0.17267200  1
  N  608  1  0.16339800  0.64273200  0.10228600  1
  N  617  1  0.07296300  0.57543100  0.05779400  1
  N  618  1  0.17493800  0.66644500  0.19661100  1
  N  635  1  0.34905300  0.42916600  0.61783900  1
  N  636  1  0.40890700  0.35098700  0.61797300  1
  N  637  1  0.39100700  0.39821100  0.67270300  1
  N  638  1  0.33603600  0.35669600  0.60236500  1
  N  647  1  0.42644900  0.42396600  0.55778900  1
  N  648  1  0.32451100  0.33306400  0.69671100  1
  N  665  1  0.16696900  0.09445800  0.86262500  1
  N  666  1  0.10520400  0.17073800  0.87092800  1
  N  667  1  0.13710200  0.13203800  0.92304700  1
  N  668  1  0.09924400  0.09985700  0.83803100  1
  N  677  1  0.19154700  0.18174100  0.82824300  1
  N  678  1  0.07233800  0.05841100  0.92043800  1
  N  695  1  0.33247900  0.90499000  0.36260500  1
  N  696  1  0.39426900  0.82873300  0.37091200  1
  N  697  1  0.36235200  0.86742900  0.42302800  1
  N  698  1  0.40021000  0.89960700  0.33800900  1
  N  707  1  0.30794500  0.81770700  0.32819500  1
  N  708  1  0.42710200  0.94107300  0.42040900  1
  N  725  1  0.65737000  0.42027500  0.61521200  1
  N  726  1  0.58290300  0.35591400  0.61904400  1
  N  727  1  0.60951400  0.39564900  0.67160600  1
  N  728  1  0.65975200  0.35012600  0.60015200  1
  N  737  1  0.57159500  0.44126000  0.57535100  1
  N  738  1  0.67313700  0.32750000  0.69474200  1
  N  755  1  0.84233900  0.57906100  0.11533100  1
  N  756  1  0.91649500  0.64379100  0.11893600  1
  N  757  1  0.89006700  0.60390200  0.17160400  1
  N  758  1  0.83971400  0.64929800  0.10015600  1
  N  767  1  0.92804200  0.55856000  0.07501400  1
  N  768  1  0.82638000  0.67200000  0.19473200  1
  N  785  1  0.33150900  0.09506400  0.63507200  1
  N  786  1  0.39625100  0.16927500  0.63043400  1
  N  787  1  0.36319100  0.12938100  0.57238100  1
  N  788  1  0.40000300  0.10034000  0.66065000  1
  N  797  1  0.30935500  0.18206100  0.67159600  1
  N  798  1  0.42681000  0.05700100  0.57918900  1
  N  815  1  0.16785700  0.90456600  0.13504300  1
  N  816  1  0.10330500  0.83018000  0.13052300  1
  N  817  1  0.13619600  0.87009700  0.07241000  1
  N  818  1  0.09942800  0.89916400  0.16069400  1
  N  827  1  0.19042000  0.81760800  0.17129800  1
  N  828  1  0.07256000  0.94245300  0.07922700  1
  N  845  1  0.84198200  0.42021200  0.88370200  1
  N  846  1  0.91560100  0.35482200  0.88132800  1
  N  847  1  0.89028000  0.39477300  0.82819900  1
  N  848  1  0.83845300  0.35006800  0.89903100  1
  N  857  1  0.92745500  0.44042800  0.92438800  1
  N  858  1  0.82609600  0.32743200  0.80429200  1
  N  875  1  0.65757900  0.57900500  0.38303300  1
  N  876  1  0.58423700  0.64473900  0.38179000  1
  N  877  1  0.60907600  0.60492400  0.32815900  1
  N  878  1  0.66139300  0.64919200  0.39890000  1
  N  887  1  0.57235200  0.55864800  0.42393600  1
  N  888  1  0.67334200  0.67216700  0.30418100  1
  N  1313  1  0.82996100  0.90739400  0.39504900  1
  N  1314  1  0.89442600  0.83294900  0.39225300  1
  N  1315  1  0.85436000  0.85859000  0.33943100  1
  N  1316  1  0.90010400  0.91008200  0.40987500  1
  N  1325  1  0.80927500  0.82217400  0.43637400  1
  N  1326  1  0.92165500  0.92262700  0.31499300  1
  N  1343  1  0.66941300  0.09192600  0.89517100  1
  N  1344  1  0.60520100  0.16657700  0.89213800  1
  N  1345  1  0.64516300  0.14076400  0.83941500  1
  N  1346  1  0.59932700  0.08941700  0.90990900  1
  N  1355  1  0.69053300  0.17724300  0.93592100  1
  N  1356  1  0.57776100  0.07682700  0.81503100  1
  N  1373  1  0.34883800  0.57044000  0.64278600  1
  N  1374  1  0.40873600  0.64858900  0.64269000  1
  N  1375  1  0.39062100  0.60164800  0.58784200  1
  N  1376  1  0.33589000  0.64277600  0.65859500  1
  N  1385  1  0.42622200  0.57557400  0.70283300  1
  N  1386  1  0.32396900  0.66684000  0.56440300  1
  N  1403  1  0.15050300  0.42897600  0.14279100  1
  N  1404  1  0.09069900  0.35075700  0.14270400  1
  N  1405  1  0.10878100  0.39775700  0.08786200  1
  N  1406  1  0.16351900  0.35660500  0.15859100  1
  N  1415  1  0.07315200  0.42374100  0.20287900  1
  N  1416  1  0.17546100  0.33260200  0.06438500  1
  N  1433  1  0.66935500  0.90710500  0.62629500  1
  N  1434  1  0.60490200  0.83264000  0.62893000  1
  N  1435  1  0.64507400  0.85768200  0.68171900  1
  N  1436  1  0.59937300  0.91016200  0.61197800  1
  N  1445  1  0.68997200  0.82216600  0.58458600  1
  N  1446  1  0.57798000  0.92162100  0.70704000  1
  N  1463  1  0.83011900  0.09234700  0.12626700  1
  N  1464  1  0.89457600  0.16680500  0.12889800  1
  N  1465  1  0.85439400  0.14178900  0.18168100  1
  N  1466  1  0.90010600  0.08928300  0.11196400  1
  N  1475  1  0.80949400  0.17729000  0.08459400  1
  N  1476  1  0.92149200  0.07786900  0.20703000  1
  N  1493  1  0.15041100  0.57030000  0.37888700  1
  N  1494  1  0.09050800  0.64844200  0.37903900  1
  N  1495  1  0.10844300  0.60127500  0.43377700  1
  N  1496  1  0.16339800  0.64273200  0.36339100  1
  N  1505  1  0.07296300  0.57543100  0.31889900  1
  N  1506  1  0.17493800  0.66644500  0.45771600  1
  N  1523  1  0.34905300  0.42916600  0.87894400  1
  N  1524  1  0.40890700  0.35098700  0.87907800  1
  N  1525  1  0.39100700  0.39821100  0.93380800  1
  N  1526  1  0.33603600  0.35669600  0.86347000  1
  N  1535  1  0.42644900  0.42396600  0.81889400  1
  N  1536  1  0.32451100  0.33306400  0.95781600  1
  N  1553  1  0.16696900  0.09445800  0.12373000  1
  N  1554  1  0.10520400  0.17073800  0.13203300  1
  N  1555  1  0.13710200  0.13203800  0.18415200  1
  N  1556  1  0.09924400  0.09985700  0.09913600  1
  N  1565  1  0.19154700  0.18174100  0.08934800  1
  N  1566  1  0.07233800  0.05841100  0.18154300  1
  N  1583  1  0.33247900  0.90499000  0.62371000  1
  N  1584  1  0.39426900  0.82873300  0.63201700  1
  N  1585  1  0.36235200  0.86742900  0.68413300  1
  N  1586  1  0.40021000  0.89960700  0.59911400  1
  N  1595  1  0.30794500  0.81770700  0.58930000  1
  N  1596  1  0.42710200  0.94107300  0.68151400  1
  N  1613  1  0.65737000  0.42027500  0.87631700  1
  N  1614  1  0.58290300  0.35591400  0.88014900  1
  N  1615  1  0.60951400  0.39564900  0.93271100  1
  N  1616  1  0.65975200  0.35012600  0.86125700  1
  N  1625  1  0.57159500  0.44126000  0.83645600  1
  N  1626  1  0.67313700  0.32750000  0.95584700  1
  N  1643  1  0.84233900  0.57906100  0.37643600  1
  N  1644  1  0.91649500  0.64379100  0.38004100  1
  N  1645  1  0.89006700  0.60390200  0.43270900  1
  N  1646  1  0.83971400  0.64929800  0.36126100  1
  N  1655  1  0.92804200  0.55856000  0.33611900  1
  N  1656  1  0.82638000  0.67200000  0.45583700  1
  N  1673  1  0.33150900  0.09506400  0.89617700  1
  N  1674  1  0.39625100  0.16927500  0.89153900  1
  N  1675  1  0.36319100  0.12938100  0.83348600  1
  N  1676  1  0.40000300  0.10034000  0.92175500  1
  N  1685  1  0.30935500  0.18206100  0.93270100  1
  N  1686  1  0.42681000  0.05700100  0.84029400  1
  N  1703  1  0.16785700  0.90456600  0.39614800  1
  N  1704  1  0.10330500  0.83018000  0.39162800  1
  N  1705  1  0.13619600  0.87009700  0.33351500  1
  N  1706  1  0.09942800  0.89916400  0.42179900  1
  N  1715  1  0.19042000  0.81760800  0.43240300  1
  N  1716  1  0.07256000  0.94245300  0.34033200  1
  N  1733  1  0.84198200  0.42021200  0.14480700  1
  N  1734  1  0.91560100  0.35482200  0.14243300  1
  N  1735  1  0.89028000  0.39477300  0.08930400  1
  N  1736  1  0.83845300  0.35006800  0.16013600  1
  N  1745  1  0.92745500  0.44042800  0.18549300  1
  N  1746  1  0.82609600  0.32743200  0.06539700  1
  N  1763  1  0.65757900  0.57900500  0.64413800  1
  N  1764  1  0.58423700  0.64473900  0.64289500  1
  N  1765  1  0.60907600  0.60492400  0.58926400  1
  N  1766  1  0.66139300  0.64919200  0.66000500  1
  N  1775  1  0.57235200  0.55864800  0.68504100  1
  N  1776  1  0.67334200  0.67216700  0.56528600  1
  N  2201  1  0.82996100  0.90739400  0.65615400  1
  N  2202  1  0.89442600  0.83294900  0.65335800  1
  N  2203  1  0.85436000  0.85859000  0.60053600  1
  N  2204  1  0.90010400  0.91008200  0.67098000  1
  N  2213  1  0.80927500  0.82217400  0.69747900  1
  N  2214  1  0.92165500  0.92262700  0.57609800  1
  N  2231  1  0.66941300  0.09192600  0.15627600  1
  N  2232  1  0.60520100  0.16657700  0.15324300  1
  N  2233  1  0.64516300  0.14076400  0.10052000  1
  N  2234  1  0.59932700  0.08941700  0.17101400  1
  N  2243  1  0.69053300  0.17724300  0.19702600  1
  N  2244  1  0.57776100  0.07682700  0.07613600  1
  N  2261  1  0.34883800  0.57044000  0.90389100  1
  N  2262  1  0.40873600  0.64858900  0.90379500  1
  N  2263  1  0.39062100  0.60164800  0.84894700  1
  N  2264  1  0.33589000  0.64277600  0.91970000  1
  N  2273  1  0.42622200  0.57557400  0.96393800  1
  N  2274  1  0.32396900  0.66684000  0.82550800  1
  N  2291  1  0.15050300  0.42897600  0.40389600  1
  N  2292  1  0.09069900  0.35075700  0.40380900  1
  N  2293  1  0.10878100  0.39775700  0.34896700  1
  N  2294  1  0.16351900  0.35660500  0.41969600  1
  N  2303  1  0.07315200  0.42374100  0.46398400  1
  N  2304  1  0.17546100  0.33260200  0.32549000  1
  N  2321  1  0.66935500  0.90710500  0.88740000  1
  N  2322  1  0.60490200  0.83264000  0.89003500  1
  N  2323  1  0.64507400  0.85768200  0.94282400  1
  N  2324  1  0.59937300  0.91016200  0.87308300  1
  N  2333  1  0.68997200  0.82216600  0.84569100  1
  N  2334  1  0.57798000  0.92162100  0.96814500  1
  N  2351  1  0.83011900  0.09234700  0.38737200  1
  N  2352  1  0.89457600  0.16680500  0.39000300  1
  N  2353  1  0.85439400  0.14178900  0.44278600  1
  N  2354  1  0.90010600  0.08928300  0.37306900  1
  N  2363  1  0.80949400  0.17729000  0.34569900  1
  N  2364  1  0.92149200  0.07786900  0.46813500  1
  N  2381  1  0.15041100  0.57030000  0.63999200  1
  N  2382  1  0.09050800  0.64844200  0.64014400  1
  N  2383  1  0.10844300  0.60127500  0.69488200  1
  N  2384  1  0.16339800  0.64273200  0.62449600  1
  N  2393  1  0.07296300  0.57543100  0.58000400  1
  N  2394  1  0.17493800  0.66644500  0.71882100  1
  N  2411  1  0.34905300  0.42916600  0.14004900  1
  N  2412  1  0.40890700  0.35098700  0.14018300  1
  N  2413  1  0.39100700  0.39821100  0.19491300  1
  N  2414  1  0.33603600  0.35669600  0.12457500  1
  N  2423  1  0.42644900  0.42396600  0.07999900  1
  N  2424  1  0.32451100  0.33306400  0.21892100  1
  N  2441  1  0.16696900  0.09445800  0.38483500  1
  N  2442  1  0.10520400  0.17073800  0.39313800  1
  N  2443  1  0.13710200  0.13203800  0.44525700  1
  N  2444  1  0.09924400  0.09985700  0.36024100  1
  N  2453  1  0.19154700  0.18174100  0.35045300  1
  N  2454  1  0.07233800  0.05841100  0.44264800  1
  N  2471  1  0.33247900  0.90499000  0.88481500  1
  N  2472  1  0.39426900  0.82873300  0.89312200  1
  N  2473  1  0.36235200  0.86742900  0.94523800  1
  N  2474  1  0.40021000  0.89960700  0.86021900  1
  N  2483  1  0.30794500  0.81770700  0.85040500  1
  N  2484  1  0.42710200  0.94107300  0.94261900  1
  N  2501  1  0.65737000  0.42027500  0.13742200  1
  N  2502  1  0.58290300  0.35591400  0.14125400  1
  N  2503  1  0.60951400  0.39564900  0.19381600  1
  N  2504  1  0.65975200  0.35012600  0.12236200  1
  N  2513  1  0.57159500  0.44126000  0.09756100  1
  N  2514  1  0.67313700  0.32750000  0.21695200  1
  N  2531  1  0.84233900  0.57906100  0.63754100  1
  N  2532  1  0.91649500  0.64379100  0.64114600  1
  N  2533  1  0.89006700  0.60390200  0.69381400  1
  N  2534  1  0.83971400  0.64929800  0.62236600  1
  N  2543  1  0.92804200  0.55856000  0.59722400  1
  N  2544  1  0.82638000  0.67200000  0.71694200  1
  N  2561  1  0.33150900  0.09506400  0.15728200  1
  N  2562  1  0.39625100  0.16927500  0.15264400  1
  N  2563  1  0.36319100  0.12938100  0.09459100  1
  N  2564  1  0.40000300  0.10034000  0.18286000  1
  N  2573  1  0.30935500  0.18206100  0.19380600  1
  N  2574  1  0.42681000  0.05700100  0.10139900  1
  N  2591  1  0.16785700  0.90456600  0.65725300  1
  N  2592  1  0.10330500  0.83018000  0.65273300  1
  N  2593  1  0.13619600  0.87009700  0.59462000  1
  N  2594  1  0.09942800  0.89916400  0.68290400  1
  N  2603  1  0.19042000  0.81760800  0.69350800  1
  N  2604  1  0.07256000  0.94245300  0.60143700  1
  N  2621  1  0.84198200  0.42021200  0.40591200  1
  N  2622  1  0.91560100  0.35482200  0.40353800  1
  N  2623  1  0.89028000  0.39477300  0.35040900  1
  N  2624  1  0.83845300  0.35006800  0.42124100  1
  N  2633  1  0.92745500  0.44042800  0.44659800  1
  N  2634  1  0.82609600  0.32743200  0.32650200  1
  N  2651  1  0.65757900  0.57900500  0.90524300  1
  N  2652  1  0.58423700  0.64473900  0.90400000  1
  N  2653  1  0.60907600  0.60492400  0.85036900  1
  N  2654  1  0.66139300  0.64919200  0.92111000  1
  N  2663  1  0.57235200  0.55864800  0.94614600  1
  N  2664  1  0.67334200  0.67216700  0.82639100  1
  O  429  1  0.82643200  0.92265500  0.15372600  1
  O  430  1  0.92386600  0.90545800  0.15589400  1
  O  431  1  0.86508300  0.83962400  0.06558600  1
  O  432  1  0.89083200  0.81245700  0.11686100  1
  O  433  1  0.80882100  0.90688600  0.12016100  1
  O  434  1  0.89457000  0.93413000  0.15405200  1
  O  435  1  0.83600000  0.86853200  0.06415500  1
  O  436  1  0.90956800  0.82683300  0.15038200  1
  O  459  1  0.67292400  0.07673400  0.65390200  1
  O  460  1  0.57557000  0.09407600  0.65592600  1
  O  461  1  0.63448300  0.15973200  0.56553800  1
  O  462  1  0.60884300  0.18700400  0.61666200  1
  O  463  1  0.69053300  0.09230900  0.62024700  1
  O  464  1  0.60483000  0.06536600  0.65410400  1
  O  465  1  0.66350600  0.13076300  0.56416200  1
  O  466  1  0.59010400  0.17282000  0.65026200  1
  O  489  1  0.35463700  0.54843300  0.37077900  1
  O  490  1  0.33951500  0.66666667  0.40497200  1
  O  491  1  0.40907300  0.61430400  0.31505900  1
  O  492  1  0.40845100  0.66603900  0.39981200  1
  O  493  1  0.33202700  0.56626500  0.40003100  1
  O  494  1  0.31210900  0.63613600  0.40268200  1
  O  495  1  0.38252100  0.58319800  0.31155100  1
  O  496  1  0.43149600  0.64856900  0.37067900  1
  O  519  1  0.14466300  0.45097300  0.87078900  1
  O  520  1  0.15990900  0.33276600  0.90494600  1
  O  521  1  0.09033400  0.38510200  0.81507000  1
  O  522  1  0.09101200  0.33329300  0.89981200  1
  O  523  1  0.16732400  0.43317500  0.90002300  1
  O  524  1  0.18729500  0.36325900  0.90269000  1
  O  525  1  0.11687300  0.41622200  0.81157900  1
  O  526  1  0.06793400  0.35076500  0.87070700  1
  O  549  1  0.67278700  0.92249600  0.34549200  1
  O  550  1  0.60498900  0.93425600  0.34589200  1
  O  551  1  0.63434500  0.83860300  0.43317900  1
  O  552  1  0.60854800  0.81203700  0.38194100  1
  O  553  1  0.69056300  0.90650500  0.37886100  1
  O  554  1  0.57558200  0.90571900  0.34372500  1
  O  555  1  0.66349200  0.86743300  0.43484200  1
  O  556  1  0.58967200  0.82667100  0.34861300  1
  O  579  1  0.82668100  0.07695300  0.84546800  1
  O  580  1  0.89448800  0.06518900  0.84588800  1
  O  581  1  0.86511900  0.16087400  0.93313500  1
  O  582  1  0.89092700  0.18741100  0.88190500  1
  O  583  1  0.80891400  0.09295500  0.87883800  1
  O  584  1  0.92389800  0.09371900  0.84371300  1
  O  585  1  0.83597600  0.13204100  0.93480600  1
  O  586  1  0.90981100  0.17277000  0.84858600  1
  O  609  1  0.14460100  0.54828300  0.12865600  1
  O  610  1  0.15978200  0.66658900  0.09488800  1
  O  611  1  0.08993400  0.61386200  0.18433200  1
  O  612  1  0.09079700  0.66591800  0.09973200  1
  O  613  1  0.16723700  0.56614000  0.09944000  1
  O  614  1  0.18720600  0.63613200  0.09715700  1
  O  615  1  0.11650600  0.58277000  0.18781500  1
  O  616  1  0.06774400  0.64840000  0.12883000  1
  O  639  1  0.35489400  0.45118000  0.62870300  1
  O  640  1  0.33964500  0.33282700  0.59499400  1
  O  641  1  0.40951700  0.38562600  0.68436400  1
  O  642  1  0.40859500  0.33349500  0.59978400  1
  O  643  1  0.33221000  0.43333800  0.59951500  1
  O  644  1  0.31223100  0.36329600  0.59722800  1
  O  645  1  0.38295300  0.41672800  0.68783500  1
  O  646  1  0.43167900  0.35103000  0.62884700  1
  O  669  1  0.17067000  0.08125700  0.84144100  1
  O  670  1  0.10614300  0.07794300  0.82758100  1
  O  671  1  0.15446100  0.11892900  0.93584100  1
  O  672  1  0.10893300  0.18941100  0.88748800  1
  O  673  1  0.18756000  0.09257600  0.87710000  1
  O  674  1  0.07610500  0.10580600  0.82991600  1
  O  675  1  0.12477900  0.14708700  0.93912500  1
  O  676  1  0.09113300  0.17945800  0.85188300  1
  O  699  1  0.32878000  0.91819400  0.34142100  1
  O  700  1  0.39330900  0.92151800  0.32755200  1
  O  701  1  0.34498200  0.88053300  0.43581500  1
  O  702  1  0.39054100  0.81005600  0.38746800  1
  O  703  1  0.31188200  0.90686200  0.37707200  1
  O  704  1  0.42335000  0.89365800  0.32989800  1
  O  705  1  0.37468200  0.85239400  0.43911200  1
  O  706  1  0.40835200  0.82002100  0.35187100  1
  O  729  1  0.67232800  0.42382600  0.59520300  1
  O  730  1  0.65485600  0.32646400  0.59287700  1
  O  731  1  0.59063200  0.38494700  0.68448900  1
  O  732  1  0.56262900  0.35949300  0.63364800  1
  O  733  1  0.65709300  0.44139200  0.62903400  1
  O  734  1  0.68377400  0.35552300  0.59462300  1
  O  735  1  0.61976300  0.41381100  0.68581300  1
  O  736  1  0.57648000  0.34083300  0.59986500  1
  O  759  1  0.82732600  0.57546200  0.09537300  1
  O  760  1  0.84458100  0.67296200  0.09286800  1
  O  761  1  0.90894900  0.61465500  0.18444400  1
  O  762  1  0.93682700  0.64029800  0.13347700  1
  O  763  1  0.84276300  0.55793100  0.12913100  1
  O  764  1  0.81569600  0.64386900  0.09463600  1
  O  765  1  0.87987200  0.58573700  0.18584700  1
  O  766  1  0.92278800  0.65891900  0.09974700  1
  O  789  1  0.32827100  0.08159500  0.65616100  1
  O  790  1  0.42318100  0.10635700  0.66861000  1
  O  791  1  0.36849600  0.15396300  0.57397100  1
  O  792  1  0.39423700  0.18957100  0.61556700  1
  O  793  1  0.31040200  0.09367200  0.62130000  1
  O  794  1  0.39298100  0.07871200  0.67160200  1
  O  795  1  0.33869900  0.12583600  0.57716100  1
  O  796  1  0.41022400  0.17542300  0.65052500  1
  O  819  1  0.17112800  0.91802700  0.15613300  1
  O  820  1  0.07626300  0.89313400  0.16867800  1
  O  821  1  0.13090900  0.84551000  0.07401000  1
  O  822  1  0.10532800  0.80990200  0.11563500  1
  O  823  1  0.18891400  0.90602700  0.12120200  1
  O  824  1  0.10644200  0.92080700  0.17162300  1
  O  825  1  0.16068900  0.87366000  0.07717000  1
  O  826  1  0.08941200  0.82397700  0.15065300  1
  O  849  1  0.82679900  0.42413300  0.90347000  1
  O  850  1  0.84293600  0.32636500  0.90644000  1
  O  851  1  0.90921400  0.38381000  0.81561800  1
  O  852  1  0.93609800  0.35803100  0.86695300  1
  O  853  1  0.84274300  0.44120700  0.86971300  1
  O  854  1  0.81442100  0.35578800  0.90419100  1
  O  855  1  0.88045600  0.41302200  0.81380400  1
  O  856  1  0.92159000  0.33979800  0.90069400  1
  O  879  1  0.67287400  0.57481700  0.40266000  1
  O  880  1  0.65699700  0.67287200  0.40643400  1
  O  881  1  0.59008900  0.61599500  0.31575200  1
  O  882  1  0.56365800  0.64174800  0.36748500  1
  O  883  1  0.65664300  0.55816200  0.36882900  1
  O  884  1  0.68543900  0.64340500  0.40390700  1
  O  885  1  0.61876700  0.58672500  0.31361100  1
  O  886  1  0.57840000  0.65958800  0.40133700  1
  O  1317  1  0.82643200  0.92265500  0.41483100  1
  O  1318  1  0.92386600  0.90545800  0.41699900  1
  O  1319  1  0.86508300  0.83962400  0.32669100  1
  O  1320  1  0.89083200  0.81245700  0.37796600  1
  O  1321  1  0.80882100  0.90688600  0.38126600  1
  O  1322  1  0.89457000  0.93413000  0.41515700  1
  O  1323  1  0.83600000  0.86853200  0.32526000  1
  O  1324  1  0.90956800  0.82683300  0.41148700  1
  O  1347  1  0.67292400  0.07673400  0.91500700  1
  O  1348  1  0.57557000  0.09407600  0.91703100  1
  O  1349  1  0.63448300  0.15973200  0.82664300  1
  O  1350  1  0.60884300  0.18700400  0.87776700  1
  O  1351  1  0.69053300  0.09230900  0.88135200  1
  O  1352  1  0.60483000  0.06536600  0.91520900  1
  O  1353  1  0.66350600  0.13076300  0.82526700  1
  O  1354  1  0.59010400  0.17282000  0.91136700  1
  O  1377  1  0.35463700  0.54843300  0.63188400  1
  O  1378  1  0.33951500  0.66666667  0.66607700  1
  O  1379  1  0.40907300  0.61430400  0.57616400  1
  O  1380  1  0.40845100  0.66603900  0.66091700  1
  O  1381  1  0.33202700  0.56626500  0.66113600  1
  O  1382  1  0.31210900  0.63613600  0.66378700  1
  O  1383  1  0.38252100  0.58319800  0.57265600  1
  O  1384  1  0.43149600  0.64856900  0.63178400  1
  O  1407  1  0.14466300  0.45097300  0.13189400  1
  O  1408  1  0.15990900  0.33276600  0.16605100  1
  O  1409  1  0.09033400  0.38510200  0.07617500  1
  O  1410  1  0.09101200  0.33329300  0.16091700  1
  O  1411  1  0.16732400  0.43317500  0.16112800  1
  O  1412  1  0.18729500  0.36325900  0.16379500  1
  O  1413  1  0.11687300  0.41622200  0.07268400  1
  O  1414  1  0.06793400  0.35076500  0.13181200  1
  O  1437  1  0.67278700  0.92249600  0.60659700  1
  O  1438  1  0.60498900  0.93425600  0.60699700  1
  O  1439  1  0.63434500  0.83860300  0.69428400  1
  O  1440  1  0.60854800  0.81203700  0.64304600  1
  O  1441  1  0.69056300  0.90650500  0.63996600  1
  O  1442  1  0.57558200  0.90571900  0.60483000  1
  O  1443  1  0.66349200  0.86743300  0.69594700  1
  O  1444  1  0.58967200  0.82667100  0.60971800  1
  O  1467  1  0.82668100  0.07695300  0.10657300  1
  O  1468  1  0.89448800  0.06518900  0.10699300  1
  O  1469  1  0.86511900  0.16087400  0.19424000  1
  O  1470  1  0.89092700  0.18741100  0.14301000  1
  O  1471  1  0.80891400  0.09295500  0.13994300  1
  O  1472  1  0.92389800  0.09371900  0.10481800  1
  O  1473  1  0.83597600  0.13204100  0.19591100  1
  O  1474  1  0.90981100  0.17277000  0.10969100  1
  O  1497  1  0.14460100  0.54828300  0.38976100  1
  O  1498  1  0.15978200  0.66658900  0.35599300  1
  O  1499  1  0.08993400  0.61386200  0.44543700  1
  O  1500  1  0.09079700  0.66591800  0.36083700  1
  O  1501  1  0.16723700  0.56614000  0.36054500  1
  O  1502  1  0.18720600  0.63613200  0.35826200  1
  O  1503  1  0.11650600  0.58277000  0.44892000  1
  O  1504  1  0.06774400  0.64840000  0.38993500  1
  O  1527  1  0.35489400  0.45118000  0.88980800  1
  O  1528  1  0.33964500  0.33282700  0.85609900  1
  O  1529  1  0.40951700  0.38562600  0.94546900  1
  O  1530  1  0.40859500  0.33349500  0.86088900  1
  O  1531  1  0.33221000  0.43333800  0.86062000  1
  O  1532  1  0.31223100  0.36329600  0.85833300  1
  O  1533  1  0.38295300  0.41672800  0.94894000  1
  O  1534  1  0.43167900  0.35103000  0.88995200  1
  O  1557  1  0.17067000  0.08125700  0.10254600  1
  O  1558  1  0.10614300  0.07794300  0.08868600  1
  O  1559  1  0.15446100  0.11892900  0.19694600  1
  O  1560  1  0.10893300  0.18941100  0.14859300  1
  O  1561  1  0.18756000  0.09257600  0.13820500  1
  O  1562  1  0.07610500  0.10580600  0.09102100  1
  O  1563  1  0.12477900  0.14708700  0.20023000  1
  O  1564  1  0.09113300  0.17945800  0.11298800  1
  O  1587  1  0.32878000  0.91819400  0.60252600  1
  O  1588  1  0.39330900  0.92151800  0.58865700  1
  O  1589  1  0.34498200  0.88053300  0.69692000  1
  O  1590  1  0.39054100  0.81005600  0.64857300  1
  O  1591  1  0.31188200  0.90686200  0.63817700  1
  O  1592  1  0.42335000  0.89365800  0.59100300  1
  O  1593  1  0.37468200  0.85239400  0.70021700  1
  O  1594  1  0.40835200  0.82002100  0.61297600  1
  O  1617  1  0.67232800  0.42382600  0.85630800  1
  O  1618  1  0.65485600  0.32646400  0.85398200  1
  O  1619  1  0.59063200  0.38494700  0.94559400  1
  O  1620  1  0.56262900  0.35949300  0.89475300  1
  O  1621  1  0.65709300  0.44139200  0.89013900  1
  O  1622  1  0.68377400  0.35552300  0.85572800  1
  O  1623  1  0.61976300  0.41381100  0.94691800  1
  O  1624  1  0.57648000  0.34083300  0.86097000  1
  O  1647  1  0.82732600  0.57546200  0.35647800  1
  O  1648  1  0.84458100  0.67296200  0.35397300  1
  O  1649  1  0.90894900  0.61465500  0.44554900  1
  O  1650  1  0.93682700  0.64029800  0.39458200  1
  O  1651  1  0.84276300  0.55793100  0.39023600  1
  O  1652  1  0.81569600  0.64386900  0.35574100  1
  O  1653  1  0.87987200  0.58573700  0.44695200  1
  O  1654  1  0.92278800  0.65891900  0.36085200  1
  O  1677  1  0.32827100  0.08159500  0.91726600  1
  O  1678  1  0.42318100  0.10635700  0.92971500  1
  O  1679  1  0.36849600  0.15396300  0.83507600  1
  O  1680  1  0.39423700  0.18957100  0.87667200  1
  O  1681  1  0.31040200  0.09367200  0.88240500  1
  O  1682  1  0.39298100  0.07871200  0.93270700  1
  O  1683  1  0.33869900  0.12583600  0.83826600  1
  O  1684  1  0.41022400  0.17542300  0.91163000  1
  O  1707  1  0.17112800  0.91802700  0.41723800  1
  O  1708  1  0.07626300  0.89313400  0.42978300  1
  O  1709  1  0.13090900  0.84551000  0.33511500  1
  O  1710  1  0.10532800  0.80990200  0.37674000  1
  O  1711  1  0.18891400  0.90602700  0.38230700  1
  O  1712  1  0.10644200  0.92080700  0.43272800  1
  O  1713  1  0.16068900  0.87366000  0.33827500  1
  O  1714  1  0.08941200  0.82397700  0.41175800  1
  O  1737  1  0.82679900  0.42413300  0.16457500  1
  O  1738  1  0.84293600  0.32636500  0.16754500  1
  O  1739  1  0.90921400  0.38381000  0.07672300  1
  O  1740  1  0.93609800  0.35803100  0.12805800  1
  O  1741  1  0.84274300  0.44120700  0.13081800  1
  O  1742  1  0.81442100  0.35578800  0.16529600  1
  O  1743  1  0.88045600  0.41302200  0.07490900  1
  O  1744  1  0.92159000  0.33979800  0.16179900  1
  O  1767  1  0.67287400  0.57481700  0.66376500  1
  O  1768  1  0.65699700  0.67287200  0.66753900  1
  O  1769  1  0.59008900  0.61599500  0.57685700  1
  O  1770  1  0.56365800  0.64174800  0.62859000  1
  O  1771  1  0.65664300  0.55816200  0.62993400  1
  O  1772  1  0.68543900  0.64340500  0.66501200  1
  O  1773  1  0.61876700  0.58672500  0.57471600  1
  O  1774  1  0.57840000  0.65958800  0.66244200  1
  O  2205  1  0.82643200  0.92265500  0.67593600  1
  O  2206  1  0.92386600  0.90545800  0.67810400  1
  O  2207  1  0.86508300  0.83962400  0.58779600  1
  O  2208  1  0.89083200  0.81245700  0.63907100  1
  O  2209  1  0.80882100  0.90688600  0.64237100  1
  O  2210  1  0.89457000  0.93413000  0.67626200  1
  O  2211  1  0.83600000  0.86853200  0.58636500  1
  O  2212  1  0.90956800  0.82683300  0.67259200  1
  O  2235  1  0.67292400  0.07673400  0.17611200  1
  O  2236  1  0.57557000  0.09407600  0.17813600  1
  O  2237  1  0.63448300  0.15973200  0.08774800  1
  O  2238  1  0.60884300  0.18700400  0.13887200  1
  O  2239  1  0.69053300  0.09230900  0.14245700  1
  O  2240  1  0.60483000  0.06536600  0.17631400  1
  O  2241  1  0.66350600  0.13076300  0.08637200  1
  O  2242  1  0.59010400  0.17282000  0.17247200  1
  O  2265  1  0.35463700  0.54843300  0.89298900  1
  O  2266  1  0.33951500  0.66666667  0.92718200  1
  O  2267  1  0.40907300  0.61430400  0.83726900  1
  O  2268  1  0.40845100  0.66603900  0.92202200  1
  O  2269  1  0.33202700  0.56626500  0.92224100  1
  O  2270  1  0.31210900  0.63613600  0.92489200  1
  O  2271  1  0.38252100  0.58319800  0.83376100  1
  O  2272  1  0.43149600  0.64856900  0.89288900  1
  O  2295  1  0.14466300  0.45097300  0.39299900  1
  O  2296  1  0.15990900  0.33276600  0.42715600  1
  O  2297  1  0.09033400  0.38510200  0.33728000  1
  O  2298  1  0.09101200  0.33329300  0.42202200  1
  O  2299  1  0.16732400  0.43317500  0.42223300  1
  O  2300  1  0.18729500  0.36325900  0.42490000  1
  O  2301  1  0.11687300  0.41622200  0.33378900  1
  O  2302  1  0.06793400  0.35076500  0.39291700  1
  O  2325  1  0.67278700  0.92249600  0.86770200  1
  O  2326  1  0.60498900  0.93425600  0.86810200  1
  O  2327  1  0.63434500  0.83860300  0.95538900  1
  O  2328  1  0.60854800  0.81203700  0.90415100  1
  O  2329  1  0.69056300  0.90650500  0.90107100  1
  O  2330  1  0.57558200  0.90571900  0.86593500  1
  O  2331  1  0.66349200  0.86743300  0.95705200  1
  O  2332  1  0.58967200  0.82667100  0.87082300  1
  O  2355  1  0.82668100  0.07695300  0.36767800  1
  O  2356  1  0.89448800  0.06518900  0.36809800  1
  O  2357  1  0.86511900  0.16087400  0.45534500  1
  O  2358  1  0.89092700  0.18741100  0.40411500  1
  O  2359  1  0.80891400  0.09295500  0.40104800  1
  O  2360  1  0.92389800  0.09371900  0.36592300  1
  O  2361  1  0.83597600  0.13204100  0.45701600  1
  O  2362  1  0.90981100  0.17277000  0.37079600  1
  O  2385  1  0.14460100  0.54828300  0.65086600  1
  O  2386  1  0.15978200  0.66658900  0.61709800  1
  O  2387  1  0.08993400  0.61386200  0.70654200  1
  O  2388  1  0.09079700  0.66591800  0.62194200  1
  O  2389  1  0.16723700  0.56614000  0.62165000  1
  O  2390  1  0.18720600  0.63613200  0.61936700  1
  O  2391  1  0.11650600  0.58277000  0.71002500  1
  O  2392  1  0.06774400  0.64840000  0.65104000  1
  O  2415  1  0.35489400  0.45118000  0.15091300  1
  O  2416  1  0.33964500  0.33282700  0.11720400  1
  O  2417  1  0.40951700  0.38562600  0.20657400  1
  O  2418  1  0.40859500  0.33349500  0.12199400  1
  O  2419  1  0.33221000  0.43333800  0.12172500  1
  O  2420  1  0.31223100  0.36329600  0.11943800  1
  O  2421  1  0.38295300  0.41672800  0.21004500  1
  O  2422  1  0.43167900  0.35103000  0.15105700  1
  O  2445  1  0.17067000  0.08125700  0.36365100  1
  O  2446  1  0.10614300  0.07794300  0.34979100  1
  O  2447  1  0.15446100  0.11892900  0.45805100  1
  O  2448  1  0.10893300  0.18941100  0.40969800  1
  O  2449  1  0.18756000  0.09257600  0.39931000  1
  O  2450  1  0.07610500  0.10580600  0.35212600  1
  O  2451  1  0.12477900  0.14708700  0.46133500  1
  O  2452  1  0.09113300  0.17945800  0.37409300  1
  O  2475  1  0.32878000  0.91819400  0.86363100  1
  O  2476  1  0.39330900  0.92151800  0.84976200  1
  O  2477  1  0.34498200  0.88053300  0.95802500  1
  O  2478  1  0.39054100  0.81005600  0.90967800  1
  O  2479  1  0.31188200  0.90686200  0.89928200  1
  O  2480  1  0.42335000  0.89365800  0.85210800  1
  O  2481  1  0.37468200  0.85239400  0.96132200  1
  O  2482  1  0.40835200  0.82002100  0.87408100  1
  O  2505  1  0.67232800  0.42382600  0.11741300  1
  O  2506  1  0.65485600  0.32646400  0.11508700  1
  O  2507  1  0.59063200  0.38494700  0.20669900  1
  O  2508  1  0.56262900  0.35949300  0.15585800  1
  O  2509  1  0.65709300  0.44139200  0.15124400  1
  O  2510  1  0.68377400  0.35552300  0.11683300  1
  O  2511  1  0.61976300  0.41381100  0.20802300  1
  O  2512  1  0.57648000  0.34083300  0.12207500  1
  O  2535  1  0.82732600  0.57546200  0.61758300  1
  O  2536  1  0.84458100  0.67296200  0.61507800  1
  O  2537  1  0.90894900  0.61465500  0.70665400  1
  O  2538  1  0.93682700  0.64029800  0.65568700  1
  O  2539  1  0.84276300  0.55793100  0.65134100  1
  O  2540  1  0.81569600  0.64386900  0.61684600  1
  O  2541  1  0.87987200  0.58573700  0.70805700  1
  O  2542  1  0.92278800  0.65891900  0.62195700  1
  O  2565  1  0.32827100  0.08159500  0.17837100  1
  O  2566  1  0.42318100  0.10635700  0.19082000  1
  O  2567  1  0.36849600  0.15396300  0.09618100  1
  O  2568  1  0.39423700  0.18957100  0.13777700  1
  O  2569  1  0.31040200  0.09367200  0.14351000  1
  O  2570  1  0.39298100  0.07871200  0.19381200  1
  O  2571  1  0.33869900  0.12583600  0.09937100  1
  O  2572  1  0.41022400  0.17542300  0.17273500  1
  O  2595  1  0.17112800  0.91802700  0.67834300  1
  O  2596  1  0.07626300  0.89313400  0.69088800  1
  O  2597  1  0.13090900  0.84551000  0.59622000  1
  O  2598  1  0.10532800  0.80990200  0.63784500  1
  O  2599  1  0.18891400  0.90602700  0.64341200  1
  O  2600  1  0.10644200  0.92080700  0.69383300  1
  O  2601  1  0.16068900  0.87366000  0.59938000  1
  O  2602  1  0.08941200  0.82397700  0.67286300  1
  O  2625  1  0.82679900  0.42413300  0.42568000  1
  O  2626  1  0.84293600  0.32636500  0.42865000  1
  O  2627  1  0.90921400  0.38381000  0.33782800  1
  O  2628  1  0.93609800  0.35803100  0.38916300  1
  O  2629  1  0.84274300  0.44120700  0.39192300  1
  O  2630  1  0.81442100  0.35578800  0.42640100  1
  O  2631  1  0.88045600  0.41302200  0.33601400  1
  O  2632  1  0.92159000  0.33979800  0.42290400  1
  O  2655  1  0.67287400  0.57481700  0.92487000  1
  O  2656  1  0.65699700  0.67287200  0.92864400  1
  O  2657  1  0.59008900  0.61599500  0.83796200  1
  O  2658  1  0.56365800  0.64174800  0.88969500  1
  O  2659  1  0.65664300  0.55816200  0.89103900  1
  O  2660  1  0.68543900  0.64340500  0.92611700  1
  O  2661  1  0.61876700  0.58672500  0.83582100  1
  O  2662  1  0.57840000  0.65958800  0.92354700  1
