# generated using pymatgen
data_H24C41(N4O)2
_symmetry_space_group_name_H-M   'P 1'
_cell_length_a   32.14560000
_cell_length_b   69.91810000
_cell_length_c   69.91850000
_cell_angle_alpha   89.99970000
_cell_angle_beta   90.00000000
_cell_angle_gamma   89.99680000
_symmetry_Int_Tables_number   1
_chemical_formula_structural   H24C41(N4O)2
_chemical_formula_sum   'H384 C656 N128 O32'
_cell_volume   157145.97294701
_cell_formula_units_Z   16
loop_
 _symmetry_equiv_pos_site_id
 _symmetry_equiv_pos_as_xyz
  1  'x, y, z'
loop_
 _atom_site_type_symbol
 _atom_site_label
 _atom_site_symmetry_multiplicity
 _atom_site_fract_x
 _atom_site_fract_y
 _atom_site_fract_z
 _atom_site_occupancy
  H  25  1  0.00925300  0.72799500  0.06195300  1
  H  26  1  0.01204200  0.74484800  0.09164900  1
  H  27  1  0.01350000  0.75700300  0.12378700  1
  H  28  1  0.01251700  0.76416400  0.15720600  1
  H  29  1  0.00971100  0.70503000  0.17023500  1
  H  30  1  0.00737700  0.67529600  0.09153500  1
  H  31  1  0.92131900  0.69759000  0.13772400  1
  H  32  1  0.90098700  0.63832000  0.14600600  1
  H  33  1  0.97301500  0.63211300  0.14056400  1
  H  34  1  0.10005500  0.69724200  0.13748900  1
  H  35  1  0.04725600  0.63196000  0.14043200  1
  H  36  1  0.11945100  0.63790500  0.14575000  1
  H  66  1  0.00906400  0.26660600  0.94342900  1
  H  67  1  0.01191200  0.24975400  0.91373300  1
  H  68  1  0.01338700  0.23759800  0.88159700  1
  H  69  1  0.01246800  0.23043400  0.84818000  1
  H  70  1  0.00972900  0.28956600  0.83514400  1
  H  71  1  0.00729700  0.31930700  0.91384600  1
  H  72  1  0.92126300  0.29702600  0.86765200  1
  H  73  1  0.90095900  0.35630300  0.85938500  1
  H  74  1  0.97300000  0.36249800  0.86485200  1
  H  75  1  0.10000000  0.29734400  0.86787700  1
  H  76  1  0.04723800  0.36263600  0.86496900  1
  H  77  1  0.11943800  0.35668000  0.85964100  1
  H  107  1  0.00918800  0.93805700  0.73341300  1
  H  108  1  0.01206900  0.90835700  0.75025800  1
  H  109  1  0.01350700  0.87622000  0.76240700  1
  H  110  1  0.01256300  0.84280200  0.76956500  1
  H  111  1  0.00971700  0.82977500  0.71043200  1
  H  112  1  0.00725900  0.90848400  0.68070700  1
  H  113  1  0.92131000  0.86222300  0.70297600  1
  H  114  1  0.90103000  0.85401600  0.64368600  1
  H  115  1  0.97304000  0.85954900  0.63749600  1
  H  116  1  0.09997100  0.86245400  0.70266400  1
  H  117  1  0.04725600  0.85958400  0.63737000  1
  H  118  1  0.11942700  0.85419800  0.64333700  1
  H  148  1  0.00947100  0.05657200  0.27195400  1
  H  149  1  0.01231800  0.08626700  0.25511300  1
  H  150  1  0.01364200  0.11840800  0.24296500  1
  H  151  1  0.01259200  0.15182600  0.23580900  1
  H  152  1  0.00953300  0.16484300  0.29494100  1
  H  153  1  0.00720600  0.08613200  0.32465600  1
  H  154  1  0.92127200  0.13240400  0.30235900  1
  H  155  1  0.90088700  0.14063500  0.36163800  1
  H  156  1  0.97290000  0.13513800  0.36785000  1
  H  157  1  0.09992200  0.13215400  0.30272700  1
  H  158  1  0.04710800  0.13512600  0.36799900  1
  H  159  1  0.11927400  0.14050400  0.36204700  1
  H  189  1  0.01201000  0.72817700  0.94366600  1
  H  190  1  0.00997200  0.74517200  0.91412100  1
  H  191  1  0.01297100  0.75749700  0.88223000  1
  H  192  1  0.01516500  0.76494900  0.84902400  1
  H  193  1  0.01091200  0.70603300  0.83528500  1
  H  194  1  0.01308300  0.67562700  0.91381100  1
  H  195  1  0.09984600  0.69822300  0.86778900  1
  H  196  1  0.12029600  0.63896700  0.85941700  1
  H  197  1  0.04823500  0.63274300  0.86473700  1
  H  198  1  0.92098600  0.69777700  0.86787000  1
  H  199  1  0.97409800  0.63255800  0.86474900  1
  H  200  1  0.90185200  0.63843100  0.85952200  1
  H  230  1  0.01229400  0.26646700  0.06173300  1
  H  231  1  0.01029900  0.24947000  0.09127500  1
  H  232  1  0.01326900  0.23714600  0.12316700  1
  H  233  1  0.01529300  0.22969100  0.15637500  1
  H  234  1  0.01065900  0.28859900  0.17011600  1
  H  235  1  0.01301400  0.31901900  0.09159000  1
  H  236  1  0.09983400  0.29644700  0.13756800  1
  H  237  1  0.12017900  0.35571500  0.14592300  1
  H  238  1  0.04809900  0.36191800  0.14060900  1
  H  239  1  0.92093000  0.29683700  0.13747600  1
  H  240  1  0.97393000  0.36206900  0.14062100  1
  H  241  1  0.90169000  0.35618400  0.14579500  1
  H  271  1  0.01193400  0.93827300  0.27185000  1
  H  272  1  0.00989100  0.90873300  0.25485700  1
  H  273  1  0.01294500  0.87685900  0.24252900  1
  H  274  1  0.01524400  0.84366100  0.23506300  1
  H  275  1  0.01103900  0.82989100  0.29397500  1
  H  276  1  0.01317500  0.90841900  0.32440100  1
  H  277  1  0.09994100  0.86245600  0.30180600  1
  H  278  1  0.12041700  0.85419100  0.36107700  1
  H  279  1  0.04834300  0.85947800  0.36729500  1
  H  280  1  0.92104500  0.86249700  0.30225000  1
  H  281  1  0.97413500  0.85945500  0.36747900  1
  H  282  1  0.90191100  0.85420100  0.36160900  1
  H  312  1  0.01191600  0.05633300  0.73345600  1
  H  313  1  0.00993500  0.08585800  0.75048000  1
  H  314  1  0.01301200  0.11773500  0.76283700  1
  H  315  1  0.01532300  0.15093400  0.77032100  1
  H  316  1  0.01099800  0.16473300  0.71142000  1
  H  317  1  0.01302500  0.08623700  0.68093900  1
  H  318  1  0.09988000  0.13213800  0.70357400  1
  H  319  1  0.12034200  0.14054700  0.64432500  1
  H  320  1  0.04827200  0.13529900  0.63809900  1
  H  321  1  0.92091200  0.13205700  0.70311300  1
  H  322  1  0.97409100  0.13523900  0.63789700  1
  H  323  1  0.90182000  0.14041400  0.64376000  1
  H  353  1  0.50924800  0.22793400  0.56196800  1
  H  354  1  0.51205400  0.24483100  0.59163100  1
  H  355  1  0.51351900  0.25706400  0.62375600  1
  H  356  1  0.51251100  0.26426200  0.65717500  1
  H  357  1  0.50957400  0.20514900  0.67026900  1
  H  358  1  0.50727200  0.17527900  0.59163900  1
  H  359  1  0.42189500  0.19795700  0.63845600  1
  H  360  1  0.40232500  0.13924400  0.64979200  1
  H  361  1  0.47328600  0.13265500  0.64308300  1
  H  362  1  0.59929400  0.19762000  0.63828600  1
  H  363  1  0.54682700  0.13249600  0.64294900  1
  H  364  1  0.61795000  0.13883400  0.64960800  1
  H  394  1  0.50914200  0.76671000  0.44341900  1
  H  395  1  0.51197600  0.74980800  0.41375900  1
  H  396  1  0.51346000  0.73757000  0.38163800  1
  H  397  1  0.51253600  0.73036400  0.34822000  1
  H  398  1  0.50974600  0.78947600  0.33511300  1
  H  399  1  0.50735300  0.81936400  0.41374000  1
  H  400  1  0.42198200  0.79671300  0.36689000  1
  H  401  1  0.40252100  0.85544200  0.35556900  1
  H  402  1  0.47349800  0.86200000  0.36233000  1
  H  403  1  0.59937800  0.79697300  0.36713000  1
  H  404  1  0.54704500  0.86211800  0.36244800  1
  H  405  1  0.61819300  0.85574700  0.35582900  1
  H  435  1  0.50900200  0.43806200  0.23334700  1
  H  436  1  0.51181700  0.40839500  0.25023900  1
  H  437  1  0.51328300  0.37626900  0.26246600  1
  H  438  1  0.51237700  0.34285000  0.26966000  1
  H  439  1  0.50963000  0.32976100  0.21054300  1
  H  440  1  0.50724800  0.40840200  0.18068300  1
  H  441  1  0.42190800  0.36141500  0.20331400  1
  H  442  1  0.40245300  0.35028700  0.14454500  1
  H  443  1  0.47337000  0.35717300  0.13799400  1
  H  444  1  0.59915400  0.36163600  0.20304800  1
  H  445  1  0.54686700  0.35720300  0.13788900  1
  H  446  1  0.61794700  0.35045000  0.14425800  1
  H  476  1  0.50925100  0.55656800  0.77200000  1
  H  477  1  0.51201300  0.58624400  0.75512100  1
  H  478  1  0.51337900  0.61837500  0.74291000  1
  H  479  1  0.51240500  0.65179800  0.73573000  1
  H  480  1  0.50963400  0.66485800  0.79485300  1
  H  481  1  0.50737200  0.58620400  0.82467600  1
  H  482  1  0.42202600  0.63325400  0.80204400  1
  H  483  1  0.40253400  0.64441500  0.86080400  1
  H  484  1  0.47345100  0.63753800  0.86736200  1
  H  485  1  0.59923500  0.63297200  0.80233000  1
  H  486  1  0.54692300  0.63752200  0.86747200  1
  H  487  1  0.61797500  0.64427100  0.86109700  1
  H  517  1  0.51216900  0.22813400  0.44361300  1
  H  518  1  0.51018700  0.24516100  0.41409600  1
  H  519  1  0.51315200  0.25755300  0.38220900  1
  H  520  1  0.51528300  0.26502100  0.34899200  1
  H  521  1  0.51091500  0.20611500  0.33523000  1
  H  522  1  0.51304600  0.17561300  0.41369600  1
  H  523  1  0.59918800  0.19849600  0.36697100  1
  H  524  1  0.61856600  0.13978400  0.35549400  1
  H  525  1  0.54753000  0.13325200  0.36212800  1
  H  526  1  0.42169600  0.19825800  0.36706700  1
  H  527  1  0.47412600  0.13316500  0.36207500  1
  H  528  1  0.40297800  0.13952900  0.35551500  1
  H  558  1  0.51238400  0.76654500  0.56173700  1
  H  559  1  0.51034600  0.74950000  0.59124100  1
  H  560  1  0.51326700  0.73708600  0.62311700  1
  H  561  1  0.51532000  0.72958900  0.65632700  1
  H  562  1  0.51086200  0.78848200  0.67013700  1
  H  563  1  0.51320200  0.81904800  0.59169100  1
  H  564  1  0.59930400  0.79610800  0.63829800  1
  H  565  1  0.61875600  0.85480900  0.64983700  1
  H  566  1  0.54772000  0.86137500  0.64323100  1
  H  567  1  0.42173700  0.79640200  0.63826400  1
  H  568  1  0.47426000  0.86147000  0.64330200  1
  H  569  1  0.40310300  0.85514300  0.64980900  1
  H  599  1  0.51217800  0.43824000  0.77191900  1
  H  600  1  0.51016500  0.40873200  0.75487800  1
  H  601  1  0.51309900  0.37685900  0.74246500  1
  H  602  1  0.51527700  0.34364900  0.73497000  1
  H  603  1  0.51094600  0.32984200  0.79386800  1
  H  604  1  0.51310800  0.40829000  0.82442400  1
  H  605  1  0.59927600  0.36168800  0.80149500  1
  H  606  1  0.61878400  0.35027300  0.86021500  1
  H  607  1  0.54774400  0.35685100  0.86676800  1
  H  608  1  0.42168100  0.36173800  0.80179200  1
  H  609  1  0.47421700  0.35679500  0.86688400  1
  H  610  1  0.40306500  0.35024200  0.86055700  1
  H  640  1  0.51208200  0.55638200  0.23343400  1
  H  641  1  0.51013400  0.58588300  0.25048500  1
  H  642  1  0.51317700  0.61775300  0.26290800  1
  H  643  1  0.51546900  0.65096100  0.27040800  1
  H  644  1  0.51113900  0.66478300  0.21151500  1
  H  645  1  0.51309000  0.58634300  0.18094300  1
  H  646  1  0.59935000  0.63287800  0.20388200  1
  H  647  1  0.61884000  0.64440700  0.14518800  1
  H  648  1  0.54779700  0.63789200  0.13863200  1
  H  649  1  0.42167800  0.63284300  0.20357500  1
  H  650  1  0.47431300  0.63790700  0.13849800  1
  H  651  1  0.40313100  0.64442700  0.14482300  1
  H  663  1  0.00659400  0.74129900  0.24158800  1
  H  666  1  0.04129500  0.75006700  0.27576500  1
  H  667  1  0.02885800  0.76847600  0.29228600  1
  H  668  1  0.06147600  0.77352900  0.27260100  1
  H  671  1  0.01094900  0.72633200  0.20823100  1
  H  673  1  0.97127000  0.81520200  0.23767800  1
  H  680  1  0.00653400  0.25328900  0.76379700  1
  H  683  1  0.04113900  0.24453000  0.72959000  1
  H  684  1  0.02865200  0.22612100  0.71307800  1
  H  685  1  0.06134300  0.22106700  0.73273700  1
  H  688  1  0.01094900  0.26825400  0.79714700  1
  H  690  1  0.97122000  0.17939500  0.76772200  1
  H  697  1  0.00655600  0.75842300  0.74668600  1
  H  700  1  0.04119900  0.72422500  0.75545700  1
  H  701  1  0.02868000  0.70770200  0.77385100  1
  H  702  1  0.06132900  0.72736700  0.77893100  1
  H  705  1  0.01096200  0.79177900  0.73173400  1
  H  707  1  0.97107100  0.76231900  0.82055900  1
  H  714  1  0.00619800  0.23619800  0.25868900  1
  H  717  1  0.04351500  0.26993900  0.24886200  1
  H  718  1  0.02915300  0.28674100  0.23102100  1
  H  719  1  0.06065100  0.26699500  0.22485800  1
  H  722  1  0.01070600  0.20284400  0.27364100  1
  H  724  1  0.97096200  0.23227800  0.18476800  1
  H  731  1  0.50613100  0.24128700  0.74158200  1
  H  734  1  0.54345500  0.25114000  0.77536400  1
  H  735  1  0.52902000  0.26898300  0.79214900  1
  H  736  1  0.56056700  0.27514600  0.77242200  1
  H  739  1  0.51071600  0.22635800  0.70818300  1
  H  741  1  0.47092800  0.31519100  0.73770500  1
  H  748  1  0.50618700  0.75334700  0.26381100  1
  H  751  1  0.54276400  0.74376900  0.22977000  1
  H  752  1  0.52875600  0.72569800  0.21314200  1
  H  753  1  0.56073200  0.71991800  0.23283700  1
  H  756  1  0.51086500  0.76826900  0.29720900  1
  H  758  1  0.47118700  0.67944900  0.26768800  1
  H  765  1  0.50607500  0.25844500  0.24663800  1
  H  768  1  0.54264600  0.22440000  0.25620900  1
  H  769  1  0.52860700  0.20776000  0.27426200  1
  H  770  1  0.56056100  0.22745300  0.28007000  1
  H  773  1  0.51077800  0.29185100  0.23174100  1
  H  775  1  0.47091000  0.26227800  0.32051800  1
  H  782  1  0.50670900  0.73620300  0.75866600  1
  H  785  1  0.54149200  0.77034300  0.74985000  1
  H  786  1  0.52911400  0.78685900  0.73142800  1
  H  787  1  0.56157500  0.76711700  0.72637700  1
  H  790  1  0.51094000  0.70280900  0.77362500  1
  H  792  1  0.47091300  0.73230200  0.68478300  1
  H  799  1  0.76847100  0.69647000  0.17029000  1
  H  802  1  0.68630400  0.70684500  0.16197300  1
  H  803  1  0.64075900  0.69880000  0.17386000  1
  H  804  1  0.66054700  0.68570700  0.15427700  1
  H  807  1  0.84066100  0.69439800  0.15527900  1
  H  809  1  0.68595900  0.63179300  0.15824300  1
  H  816  1  0.76846200  0.29815400  0.83509000  1
  H  819  1  0.68630100  0.28776200  0.84338100  1
  H  820  1  0.64075900  0.29580700  0.83148900  1
  H  821  1  0.66051600  0.30889300  0.85108300  1
  H  824  1  0.84073600  0.30024400  0.84999300  1
  H  826  1  0.68588100  0.36282700  0.84713900  1
  H  833  1  0.76851200  0.82968800  0.70184900  1
  H  836  1  0.68635700  0.83801100  0.71225400  1
  H  837  1  0.64079900  0.82612600  0.70422200  1
  H  838  1  0.66056500  0.84571100  0.69112500  1
  H  841  1  0.84079800  0.84456700  0.69974400  1
  H  843  1  0.68585600  0.84179000  0.63723500  1
  H  850  1  0.76855800  0.16512400  0.30351500  1
  H  853  1  0.68649400  0.15634000  0.29339300  1
  H  854  1  0.64093600  0.16841400  0.30111100  1
  H  855  1  0.66040700  0.14903500  0.31459200  1
  H  858  1  0.84076700  0.15014300  0.30558300  1
  H  860  1  0.68572900  0.15287900  0.36815700  1
  H  867  1  0.25289000  0.69684900  0.83504800  1
  H  870  1  0.33505000  0.70692100  0.84377100  1
  H  871  1  0.38054900  0.69906100  0.83174000  1
  H  872  1  0.36100700  0.68573200  0.85120500  1
  H  875  1  0.18069900  0.69497100  0.85009000  1
  H  877  1  0.33525800  0.63207200  0.84759900  1
  H  884  1  0.25279000  0.29782900  0.17031800  1
  H  887  1  0.33540500  0.28771500  0.16170200  1
  H  888  1  0.38072700  0.29574500  0.17377600  1
  H  889  1  0.36110600  0.30895400  0.15424900  1
  H  892  1  0.18062500  0.29971500  0.15526000  1
  H  894  1  0.33520900  0.36252100  0.15767700  1
  H  901  1  0.25296800  0.82970400  0.30322100  1
  H  904  1  0.33560400  0.83829100  0.29313600  1
  H  905  1  0.38090100  0.82621000  0.30118900  1
  H  906  1  0.36127400  0.84574700  0.31438100  1
  H  909  1  0.18079000  0.84475700  0.30508000  1
  H  911  1  0.33528600  0.84237700  0.36790200  1
  H  918  1  0.25311300  0.16473500  0.70220300  1
  H  921  1  0.33543600  0.15653500  0.71252000  1
  H  922  1  0.38087000  0.16839700  0.70430700  1
  H  923  1  0.36106300  0.14869800  0.69139800  1
  H  926  1  0.18090700  0.14968900  0.70034500  1
  H  928  1  0.33506200  0.15236800  0.63737500  1
  H  935  1  0.25217500  0.29850400  0.83522900  1
  H  938  1  0.33434400  0.28779700  0.84341800  1
  H  939  1  0.37992700  0.29582400  0.83154900  1
  H  940  1  0.36041600  0.30879700  0.85127000  1
  H  943  1  0.18004600  0.30068000  0.85028200  1
  H  945  1  0.33580300  0.36279200  0.84781300  1
  H  952  1  0.25212800  0.69608800  0.17018000  1
  H  955  1  0.33428200  0.70682600  0.16200000  1
  H  956  1  0.37987400  0.69880500  0.17386700  1
  H  957  1  0.36039100  0.68583900  0.15413700  1
  H  960  1  0.17990900  0.69388200  0.15522900  1
  H  962  1  0.33590200  0.63185500  0.15752700  1
  H  969  1  0.25205100  0.16477800  0.30383700  1
  H  972  1  0.33422600  0.15654800  0.29314000  1
  H  973  1  0.37981800  0.16842600  0.30114200  1
  H  974  1  0.36029800  0.14873500  0.31415600  1
  H  977  1  0.17983200  0.14984100  0.30606400  1
  H  979  1  0.33568500  0.15230600  0.36814300  1
  H  986  1  0.25209100  0.82970400  0.70146600  1
  H  989  1  0.33417900  0.83839500  0.71184500  1
  H  990  1  0.37975600  0.82632700  0.70414100  1
  H  991  1  0.36050600  0.84581300  0.69074900  1
  H  994  1  0.17996400  0.84476400  0.69931500  1
  H  996  1  0.33578100  0.84233600  0.63711400  1
  H  1003  1  0.76879100  0.29836700  0.17033200  1
  H  1006  1  0.68678700  0.28793500  0.16173900  1
  H  1007  1  0.64120000  0.29573300  0.17373900  1
  H  1008  1  0.66042200  0.30895600  0.15413300  1
  H  1011  1  0.84089500  0.30033600  0.15525400  1
  H  1013  1  0.68533700  0.36274700  0.15720500  1
  H  1020  1  0.76890000  0.69627900  0.83505100  1
  H  1023  1  0.68644800  0.70675700  0.84357600  1
  H  1024  1  0.64101400  0.69880600  0.83154100  1
  H  1025  1  0.66033800  0.68568100  0.85118700  1
  H  1028  1  0.84092900  0.69429200  0.85019700  1
  H  1030  1  0.68538100  0.63196500  0.84821500  1
  H  1037  1  0.76889100  0.16491500  0.70160000  1
  H  1040  1  0.68643500  0.15646600  0.71210800  1
  H  1041  1  0.64102600  0.16851100  0.70414000  1
  H  1042  1  0.66028200  0.14882500  0.69105500  1
  H  1045  1  0.84096900  0.14982400  0.69961000  1
  H  1047  1  0.68530000  0.15169300  0.63730800  1
  H  1054  1  0.76875700  0.82988000  0.30374700  1
  H  1057  1  0.68662800  0.83797700  0.29302800  1
  H  1058  1  0.64106000  0.82616500  0.30115300  1
  H  1059  1  0.66054700  0.84599600  0.31396300  1
  H  1062  1  0.84084500  0.84498900  0.30572400  1
  H  1064  1  0.68555200  0.84287000  0.36812900  1
  H  1071  1  0.08574500  0.68542800  0.01479000  1
  H  1074  1  0.08516000  0.71549600  0.97122800  1
  H  1075  1  0.12581300  0.70152500  0.96158400  1
  H  1076  1  0.12496500  0.70659500  0.98645600  1
  H  1079  1  0.05674500  0.70163700  0.04436500  1
  H  1081  1  0.97128900  0.70413200  0.96364200  1
  H  1088  1  0.08559400  0.30916100  0.99055500  1
  H  1091  1  0.08509000  0.27910500  0.03410200  1
  H  1092  1  0.12580400  0.29305400  0.04372100  1
  H  1093  1  0.12486000  0.28799300  0.01884900  1
  H  1096  1  0.05649600  0.29289100  0.96103800  1
  H  1098  1  0.97136000  0.29046500  0.04177500  1
  H  1105  1  0.08563300  0.98519200  0.69107300  1
  H  1108  1  0.08457900  0.02874200  0.72111700  1
  H  1109  1  0.12551700  0.03836800  0.70731300  1
  H  1110  1  0.12451500  0.01349600  0.71237300  1
  H  1113  1  0.05656200  0.95564500  0.70706900  1
  H  1115  1  0.97112400  0.03637400  0.70937900  1
  H  1122  1  0.08567600  0.00942500  0.31449100  1
  H  1125  1  0.08415800  0.96581400  0.28437800  1
  H  1126  1  0.12557100  0.95642000  0.29803100  1
  H  1127  1  0.12392800  0.98126500  0.29292700  1
  H  1130  1  0.05680500  0.03901300  0.29844400  1
  H  1132  1  0.97114200  0.95819700  0.29597900  1
  H  1139  1  0.58558800  0.18558400  0.51483100  1
  H  1142  1  0.58387700  0.21578500  0.47125000  1
  H  1143  1  0.62548700  0.20224100  0.46188300  1
  H  1144  1  0.62368000  0.20732000  0.48673200  1
  H  1147  1  0.55651400  0.20165500  0.54434900  1
  H  1149  1  0.47130200  0.20410500  0.46354800  1
  H  1156  1  0.58567500  0.80905700  0.49050100  1
  H  1159  1  0.58407600  0.77891600  0.53419700  1
  H  1160  1  0.62554000  0.79250000  0.54363100  1
  H  1161  1  0.62403800  0.78733500  0.51878900  1
  H  1164  1  0.55645800  0.79292600  0.46102600  1
  H  1166  1  0.47147000  0.79057700  0.54182600  1
  H  1173  1  0.58563800  0.48517800  0.19092400  1
  H  1176  1  0.58407000  0.52894000  0.22098400  1
  H  1177  1  0.62541000  0.53838300  0.20732700  1
  H  1178  1  0.62403500  0.51354800  0.21253900  1
  H  1181  1  0.55636500  0.45566600  0.20714800  1
  H  1183  1  0.47127700  0.53643900  0.20939900  1
  H  1190  1  0.58580200  0.50941000  0.81431000  1
  H  1193  1  0.58483800  0.46580600  0.78426400  1
  H  1194  1  0.62575800  0.45620400  0.79809800  1
  H  1195  1  0.62474400  0.48106800  0.79300300  1
  H  1198  1  0.55656100  0.53896400  0.79824000  1
  H  1200  1  0.47131700  0.45816700  0.79597800  1
  C  1  1  0.04640000  0.67988900  0.13377300  1
  C  2  1  0.03183700  0.66105000  0.13519300  1
  C  3  1  0.98882800  0.66111800  0.13513600  1
  C  4  1  0.97460800  0.68003500  0.13386000  1
  C  5  1  0.93191800  0.68381800  0.13758200  1
  C  6  1  0.90464800  0.66846600  0.14222000  1
  C  7  1  0.91991900  0.64952800  0.14232800  1
  C  8  1  0.96204900  0.64573400  0.13902000  1
  C  9  1  0.05841500  0.64555200  0.13894100  1
  C  10  1  0.10064700  0.64919100  0.14216600  1
  C  11  1  0.11623800  0.66807300  0.14204900  1
  C  12  1  0.08920300  0.68351000  0.13739900  1
  C  13  1  0.01063500  0.69989000  0.10933800  1
  C  14  1  0.01196500  0.71988800  0.10895200  1
  C  15  1  0.01222500  0.72685700  0.12750600  1
  C  16  1  0.01115500  0.71163700  0.14056800  1
  C  17  1  0.01286500  0.74604500  0.13344000  1
  C  18  1  0.01227700  0.75010600  0.15305200  1
  C  19  1  0.01117100  0.73529300  0.16677800  1
  C  20  1  0.01070300  0.71589900  0.16048500  1
  C  21  1  0.00898900  0.68988600  0.09154700  1
  C  22  1  0.00960800  0.69998200  0.07379800  1
  C  23  1  0.01030500  0.72024000  0.07436500  1
  C  24  1  0.01178600  0.73024300  0.09172800  1
  C  37  1  0.01060300  0.69304500  0.12979500  1
  C  42  1  0.04636300  0.31470700  0.87161500  1
  C  43  1  0.03180900  0.33354800  0.87019200  1
  C  44  1  0.98880000  0.33348400  0.87023500  1
  C  45  1  0.97457100  0.31456900  0.87150000  1
  C  46  1  0.93186200  0.31079700  0.86781800  1
  C  47  1  0.90463300  0.32615000  0.86312700  1
  C  48  1  0.91989400  0.34508900  0.86304800  1
  C  49  1  0.96203400  0.34887100  0.86633600  1
  C  50  1  0.05839000  0.34903700  0.86642300  1
  C  51  1  0.10062900  0.34539600  0.86322300  1
  C  52  1  0.11621300  0.32651200  0.86333900  1
  C  53  1  0.08916200  0.31107800  0.86798100  1
  C  54  1  0.01054100  0.29471100  0.89604400  1
  C  55  1  0.01184300  0.27471400  0.89643000  1
  C  56  1  0.01214200  0.26774300  0.87787700  1
  C  57  1  0.01110900  0.28296200  0.86481300  1
  C  58  1  0.01277600  0.24855500  0.87194300  1
  C  59  1  0.01222900  0.24449200  0.85233200  1
  C  60  1  0.01115900  0.25930500  0.83860300  1
  C  61  1  0.01069400  0.27869700  0.84489600  1
  C  62  1  0.00887700  0.30471700  0.91383500  1
  C  63  1  0.00938700  0.29461800  0.93158400  1
  C  64  1  0.01012400  0.27436000  0.93101800  1
  C  65  1  0.01162400  0.26435800  0.91365500  1
  C  78  1  0.01055400  0.30155600  0.87558600  1
  C  83  1  0.04637500  0.86626900  0.68529100  1
  C  84  1  0.03185400  0.86494100  0.66643600  1
  C  85  1  0.98883400  0.86489300  0.66651800  1
  C  86  1  0.97459500  0.86613500  0.68543300  1
  C  87  1  0.93191200  0.86238500  0.68920400  1
  C  88  1  0.90468500  0.85770700  0.67384700  1
  C  89  1  0.91995700  0.85765400  0.65491000  1
  C  90  1  0.96208000  0.86098800  0.65112900  1
  C  91  1  0.05840800  0.86105400  0.65096600  1
  C  92  1  0.10063000  0.85781200  0.65461400  1
  C  93  1  0.11620600  0.85793300  0.67349900  1
  C  94  1  0.08915200  0.86258400  0.68892800  1
  C  95  1  0.01053800  0.89067600  0.70529900  1
  C  96  1  0.01190500  0.89105800  0.72529500  1
  C  97  1  0.01221200  0.87250400  0.73226200  1
  C  98  1  0.01114300  0.85944400  0.71704000  1
  C  99  1  0.01287500  0.86656700  0.75144800  1
  C  100  1  0.01231200  0.84695500  0.75550900  1
  C  101  1  0.01120500  0.83322900  0.74069500  1
  C  102  1  0.01071500  0.83952500  0.72130200  1
  C  103  1  0.00887400  0.90847000  0.69529700  1
  C  104  1  0.00941800  0.92621600  0.70539900  1
  C  105  1  0.01021100  0.92564600  0.72565500  1
  C  106  1  0.01172300  0.90828000  0.73565400  1
  C  119  1  0.01056900  0.87021900  0.69844900  1
  C  124  1  0.04629800  0.12836400  0.32008600  1
  C  125  1  0.03175000  0.12971300  0.33893500  1
  C  126  1  0.98873100  0.12974100  0.33884200  1
  C  127  1  0.97450500  0.12844300  0.31992700  1
  C  128  1  0.93184600  0.13224100  0.31613500  1
  C  129  1  0.90458000  0.13690000  0.33148300  1
  C  130  1  0.91982900  0.13698400  0.35042200  1
  C  131  1  0.96195600  0.13366800  0.35422000  1
  C  132  1  0.05828300  0.13360200  0.35441100  1
  C  133  1  0.10049900  0.13686800  0.35077000  1
  C  134  1  0.11611000  0.13671700  0.33189100  1
  C  135  1  0.08908000  0.13204500  0.31645900  1
  C  136  1  0.01057500  0.10394500  0.30006800  1
  C  137  1  0.01197600  0.10356400  0.28007200  1
  C  138  1  0.01225900  0.12212000  0.27310800  1
  C  139  1  0.01109700  0.13517700  0.28833000  1
  C  140  1  0.01295200  0.12805800  0.25392200  1
  C  141  1  0.01232500  0.14767000  0.24986400  1
  C  142  1  0.01112600  0.16139400  0.26468000  1
  C  143  1  0.01061600  0.15509600  0.28407100  1
  C  144  1  0.00889900  0.08614900  0.31006700  1
  C  145  1  0.00955800  0.06840700  0.29996400  1
  C  146  1  0.01042900  0.06897400  0.27970800  1
  C  147  1  0.01192000  0.08634200  0.26971200  1
  C  160  1  0.01051600  0.12439800  0.30692000  1
  C  165  1  0.97471700  0.68047400  0.87157800  1
  C  166  1  0.98933500  0.66163600  0.87015800  1
  C  167  1  0.03233800  0.66175600  0.87009500  1
  C  168  1  0.04653400  0.68065800  0.87155800  1
  C  169  1  0.08923500  0.68445300  0.86785500  1
  C  170  1  0.11655400  0.66911400  0.86321500  1
  C  171  1  0.10133300  0.65017000  0.86308200  1
  C  172  1  0.05916000  0.64637200  0.86625700  1
  C  173  1  0.96286800  0.64613600  0.86627300  1
  C  174  1  0.92058200  0.64972400  0.86316400  1
  C  175  1  0.90490000  0.66858900  0.86334400  1
  C  176  1  0.93190500  0.68405800  0.86793600  1
  C  177  1  0.01028300  0.70032500  0.89614300  1
  C  178  1  0.00971400  0.72031800  0.89666500  1
  C  179  1  0.01017700  0.72742700  0.87817800  1
  C  180  1  0.01026400  0.71233800  0.86497600  1
  C  181  1  0.01185900  0.74664800  0.87246600  1
  C  182  1  0.01289800  0.75087700  0.85291300  1
  C  183  1  0.01088900  0.73628600  0.83882900  1
  C  184  1  0.01079300  0.71685400  0.84510200  1
  C  185  1  0.01144700  0.69021600  0.91389300  1
  C  186  1  0.01065300  0.70018500  0.93172000  1
  C  187  1  0.01048500  0.72045700  0.93124700  1
  C  188  1  0.00971100  0.73056900  0.91394700  1
  C  201  1  0.01046700  0.69364100  0.87561900  1
  C  206  1  0.97463600  0.31415700  0.13379600  1
  C  207  1  0.98923500  0.33299700  0.13522900  1
  C  208  1  0.03223000  0.33288700  0.13531500  1
  C  209  1  0.04644400  0.31398600  0.13390200  1
  C  210  1  0.08918400  0.31021200  0.13752700  1
  C  211  1  0.11647900  0.32556100  0.14215700  1
  C  212  1  0.10120000  0.34449600  0.14232600  1
  C  213  1  0.05902500  0.34828200  0.13913900  1
  C  214  1  0.96270900  0.34849800  0.13903800  1
  C  215  1  0.92043900  0.34489200  0.14217100  1
  C  216  1  0.90478800  0.32602100  0.14199300  1
  C  217  1  0.93182800  0.31056000  0.13742500  1
  C  218  1  0.01034200  0.29431700  0.10925600  1
  C  219  1  0.00987500  0.27432200  0.10873200  1
  C  220  1  0.01028600  0.26721300  0.12722000  1
  C  221  1  0.01022400  0.28229900  0.14042500  1
  C  222  1  0.01200700  0.24799100  0.13293100  1
  C  223  1  0.01297400  0.24376100  0.15248400  1
  C  224  1  0.01080200  0.25834800  0.16656800  1
  C  225  1  0.01064700  0.27778100  0.16029800  1
  C  226  1  0.01147800  0.30442700  0.09150700  1
  C  227  1  0.01075900  0.29445900  0.07367800  1
  C  228  1  0.01071800  0.27418600  0.07415200  1
  C  229  1  0.00996900  0.26407300  0.09145100  1
  C  242  1  0.01042300  0.30099600  0.12978200  1
  C  247  1  0.97479100  0.86614900  0.31954800  1
  C  248  1  0.98940900  0.86477600  0.33839000  1
  C  249  1  0.03239800  0.86472500  0.33826900  1
  C  250  1  0.04658900  0.86614800  0.31936100  1
  C  251  1  0.08932400  0.86252300  0.31557500  1
  C  252  1  0.11665300  0.85792100  0.33091900  1
  C  253  1  0.10142800  0.85779600  0.34986200  1
  C  254  1  0.05924500  0.86094900  0.35365700  1
  C  255  1  0.96291700  0.86095200  0.35389700  1
  C  256  1  0.92064100  0.85781500  0.35030700  1
  C  257  1  0.90498100  0.85795300  0.33143900  1
  C  258  1  0.93195200  0.86258300  0.31597000  1
  C  259  1  0.01030200  0.89075100  0.29970500  1
  C  260  1  0.00968900  0.89127600  0.27971200  1
  C  261  1  0.01019000  0.87279100  0.27259800  1
  C  262  1  0.01033000  0.85958300  0.28768300  1
  C  263  1  0.01186000  0.86709000  0.25337400  1
  C  264  1  0.01296800  0.84754000  0.24913700  1
  C  265  1  0.01104000  0.83344900  0.26372200  1
  C  266  1  0.01089000  0.83971200  0.28315800  1
  C  267  1  0.01147800  0.90850000  0.30981300  1
  C  268  1  0.01065000  0.92632800  0.29984400  1
  C  269  1  0.01042300  0.92585400  0.27957200  1
  C  270  1  0.00960800  0.90855600  0.26946100  1
  C  283  1  0.01052600  0.87022400  0.30638000  1
  C  288  1  0.97472600  0.12851600  0.68583100  1
  C  289  1  0.98934700  0.12995300  0.66700000  1
  C  290  1  0.03233900  0.12995000  0.66710800  1
  C  291  1  0.04652800  0.12848400  0.68601200  1
  C  292  1  0.08926700  0.13208800  0.68980300  1
  C  293  1  0.11659200  0.13672100  0.67446800  1
  C  294  1  0.10137300  0.13687600  0.65552300  1
  C  295  1  0.05919800  0.13371200  0.65172000  1
  C  296  1  0.96286400  0.13371600  0.65147400  1
  C  297  1  0.92058800  0.13685100  0.65506600  1
  C  298  1  0.90488800  0.13666300  0.67392800  1
  C  299  1  0.93186800  0.13204500  0.68940000  1
  C  300  1  0.01021800  0.10388000  0.70565200  1
  C  301  1  0.00965100  0.10333800  0.72564400  1
  C  302  1  0.01014000  0.12182000  0.73277200  1
  C  303  1  0.01028900  0.13503700  0.71769600  1
  C  304  1  0.01190500  0.12751100  0.75199700  1
  C  305  1  0.01302300  0.14705900  0.75624800  1
  C  306  1  0.01105800  0.16115700  0.74166900  1
  C  307  1  0.01087000  0.15490500  0.72223100  1
  C  308  1  0.01136500  0.08613900  0.69552700  1
  C  309  1  0.01049100  0.06829700  0.70547300  1
  C  310  1  0.01035100  0.06875800  0.72574700  1
  C  311  1  0.00960200  0.08604800  0.73587700  1
  C  324  1  0.01045700  0.12441100  0.69899100  1
  C  329  1  0.54633800  0.18001800  0.63403200  1
  C  330  1  0.53176700  0.16122700  0.63587300  1
  C  331  1  0.48871000  0.16128200  0.63578300  1
  C  332  1  0.47448700  0.18015700  0.63409800  1
  C  333  1  0.43207700  0.18411300  0.63831300  1
  C  334  1  0.40457100  0.16906600  0.64363500  1
  C  335  1  0.42044900  0.15017100  0.64473800  1
  C  336  1  0.46217100  0.14613600  0.64075900  1
  C  337  1  0.55811600  0.14596000  0.64070900  1
  C  338  1  0.59994100  0.14983700  0.64463300  1
  C  339  1  0.61608300  0.16868300  0.64355100  1
  C  340  1  0.58885700  0.18381900  0.63817700  1
  C  341  1  0.51057300  0.19989800  0.60940200  1
  C  342  1  0.51193200  0.21989900  0.60897400  1
  C  343  1  0.51217500  0.22692300  0.62750900  1
  C  344  1  0.51105800  0.21173200  0.64059700  1
  C  345  1  0.51285000  0.24611800  0.63342300  1
  C  346  1  0.51225000  0.25020300  0.65303300  1
  C  347  1  0.51109600  0.23540300  0.66677600  1
  C  348  1  0.51059500  0.21600800  0.66050700  1
  C  349  1  0.50892100  0.18986800  0.59162200  1
  C  350  1  0.50956800  0.19993400  0.57384800  1
  C  351  1  0.51029300  0.22019300  0.57439000  1
  C  352  1  0.51178600  0.23022500  0.59173400  1
  C  365  1  0.51051400  0.19311300  0.62988300  1
  C  370  1  0.54645300  0.81459900  0.37136000  1
  C  371  1  0.53192000  0.83339400  0.36950400  1
  C  372  1  0.48886200  0.83335700  0.36957800  1
  C  373  1  0.47460500  0.81448700  0.37125000  1
  C  374  1  0.43216700  0.81055300  0.36707300  1
  C  375  1  0.40474800  0.82561300  0.36168500  1
  C  376  1  0.42060700  0.84451200  0.36063900  1
  C  377  1  0.46236100  0.84851100  0.36457700  1
  C  378  1  0.55830000  0.84864000  0.36464200  1
  C  379  1  0.60014700  0.84475000  0.36078400  1
  C  380  1  0.61627900  0.82590100  0.36189400  1
  C  381  1  0.58897600  0.81078100  0.36723300  1
  C  382  1  0.51059200  0.79474000  0.39598100  1
  C  383  1  0.51189800  0.77473800  0.39641100  1
  C  384  1  0.51218100  0.76770900  0.37787800  1
  C  385  1  0.51113300  0.78289900  0.36478700  1
  C  386  1  0.51283500  0.74851300  0.37196900  1
  C  387  1  0.51228700  0.74442600  0.35235900  1
  C  388  1  0.51120100  0.75922400  0.33861400  1
  C  389  1  0.51071600  0.77861900  0.34487700  1
  C  390  1  0.50894000  0.80477400  0.41375800  1
  C  391  1  0.50947200  0.79470700  0.43153300  1
  C  392  1  0.51020300  0.77444700  0.43099700  1
  C  393  1  0.51169300  0.76441300  0.41365300  1
  C  406  1  0.51059800  0.80152000  0.37549800  1
  C  411  1  0.54630700  0.36605200  0.18541600  1
  C  412  1  0.53181100  0.36436100  0.16659600  1
  C  413  1  0.48873800  0.36432000  0.16666400  1
  C  414  1  0.47447800  0.36592200  0.18554200  1
  C  415  1  0.43209000  0.36162800  0.18947400  1
  C  416  1  0.40467400  0.35627200  0.17440400  1
  C  417  1  0.42054200  0.35529200  0.15550300  1
  C  418  1  0.46224900  0.35933000  0.15150100  1
  C  419  1  0.55813500  0.35938100  0.15136700  1
  C  420  1  0.59994100  0.35543500  0.15525700  1
  C  421  1  0.61607100  0.35648900  0.17410900  1
  C  422  1  0.58878000  0.36182100  0.18923600  1
  C  423  1  0.51042400  0.39063100  0.20530400  1
  C  424  1  0.51173300  0.39105600  0.22530400  1
  C  425  1  0.51202900  0.37252000  0.23232500  1
  C  426  1  0.51100200  0.35943300  0.21713000  1
  C  427  1  0.51267600  0.36660300  0.25151900  1
  C  428  1  0.51213800  0.34699200  0.25560000  1
  C  429  1  0.51107400  0.33325000  0.24079800  1
  C  430  1  0.51059500  0.33952100  0.22140400  1
  C  431  1  0.50880900  0.40841500  0.19527500  1
  C  432  1  0.50934400  0.42618600  0.20534600  1
  C  433  1  0.51005000  0.42564200  0.22560600  1
  C  434  1  0.51151900  0.40829300  0.23563500  1
  C  447  1  0.51045800  0.37015200  0.19851200  1
  C  452  1  0.54637900  0.62857600  0.81995900  1
  C  453  1  0.53187900  0.63028800  0.83877800  1
  C  454  1  0.48880300  0.63031400  0.83870800  1
  C  455  1  0.47452500  0.62863600  0.81983800  1
  C  456  1  0.43218900  0.63302800  0.81588900  1
  C  457  1  0.40476400  0.63838200  0.83095200  1
  C  458  1  0.42062000  0.63938600  0.84985400  1
  C  459  1  0.46232400  0.63534700  0.85386200  1
  C  460  1  0.55820300  0.63526900  0.85400700  1
  C  461  1  0.59998800  0.63925400  0.85010700  1
  C  462  1  0.61613300  0.63817000  0.83126100  1
  C  463  1  0.58885400  0.63280800  0.81614200  1
  C  464  1  0.51057900  0.60398700  0.80006600  1
  C  465  1  0.51185500  0.60357200  0.78006400  1
  C  466  1  0.51212500  0.62211100  0.77305200  1
  C  467  1  0.51106100  0.63518900  0.78825200  1
  C  468  1  0.51275400  0.62803600  0.75386000  1
  C  469  1  0.51217500  0.64764800  0.74978800  1
  C  470  1  0.51108900  0.66138200  0.76459600  1
  C  471  1  0.51062900  0.65510300  0.78398700  1
  C  472  1  0.50896800  0.58619900  0.81008700  1
  C  473  1  0.50956800  0.56843400  0.80000600  1
  C  474  1  0.51027700  0.56898600  0.77974700  1
  C  475  1  0.51171500  0.58633900  0.76972700  1
  C  488  1  0.51053900  0.62446300  0.80686700  1
  C  493  1  0.47460500  0.18063200  0.37132200  1
  C  494  1  0.48913000  0.16182800  0.36944000  1
  C  495  1  0.53218700  0.16190700  0.36937300  1
  C  496  1  0.54650600  0.18073900  0.37129700  1
  C  497  1  0.58892000  0.18466700  0.36704300  1
  C  498  1  0.61636000  0.16960700  0.36167700  1
  C  499  1  0.60047000  0.15071800  0.36055600  1
  C  500  1  0.55867600  0.14673300  0.36441200  1
  C  501  1  0.46283100  0.14661800  0.36438000  1
  C  502  1  0.42096200  0.15049700  0.36058100  1
  C  503  1  0.40480800  0.16933500  0.36179300  1
  C  504  1  0.43211400  0.18445400  0.36713300  1
  C  505  1  0.51032100  0.20033000  0.39605700  1
  C  506  1  0.50983000  0.22032900  0.39661100  1
  C  507  1  0.51030900  0.22748500  0.37814000  1
  C  508  1  0.51034000  0.21241700  0.36492000  1
  C  509  1  0.51202000  0.24670900  0.37243700  1
  C  510  1  0.51302700  0.25095100  0.35288300  1
  C  511  1  0.51098700  0.23636200  0.33879700  1
  C  512  1  0.51085000  0.21693400  0.34505300  1
  C  513  1  0.51145600  0.19020200  0.41379900  1
  C  514  1  0.51069400  0.20015100  0.43164500  1
  C  515  1  0.51060700  0.22042500  0.43118900  1
  C  516  1  0.50987000  0.23055700  0.41390300  1
  C  529  1  0.51046700  0.19369900  0.37551100  1
  C  534  1  0.47467400  0.81401300  0.63403200  1
  C  535  1  0.48924500  0.83280900  0.63594100  1
  C  536  1  0.53229000  0.83271200  0.63603400  1
  C  537  1  0.54655600  0.81387000  0.63416300  1
  C  538  1  0.58903200  0.80993700  0.63828000  1
  C  539  1  0.61650000  0.82498500  0.64364600  1
  C  540  1  0.60059800  0.84387100  0.64484000  1
  C  541  1  0.55880700  0.84787500  0.64099000  1
  C  542  1  0.46291800  0.84804200  0.64091000  1
  C  543  1  0.42106500  0.84416400  0.64474900  1
  C  544  1  0.40488200  0.82533200  0.64354100  1
  C  545  1  0.43217700  0.81020400  0.63821500  1
  C  546  1  0.51046700  0.79431800  0.60931200  1
  C  547  1  0.50996300  0.77432000  0.60874300  1
  C  548  1  0.51036500  0.76715000  0.62720800  1
  C  549  1  0.51034300  0.78220500  0.64044100  1
  C  550  1  0.51204800  0.74791900  0.63289700  1
  C  551  1  0.51304000  0.74366300  0.65244800  1
  C  552  1  0.51095600  0.75823800  0.66654600  1
  C  553  1  0.51080600  0.77767300  0.66030600  1
  C  554  1  0.51162400  0.80445800  0.59157700  1
  C  555  1  0.51089000  0.79452100  0.57372200  1
  C  556  1  0.51081300  0.77424700  0.57416500  1
  C  557  1  0.51004100  0.76410200  0.59144400  1
  C  570  1  0.51052900  0.80093100  0.62986300  1
  C  575  1  0.47467700  0.36587000  0.81939000  1
  C  576  1  0.48923600  0.36404400  0.83819300  1
  C  577  1  0.53226800  0.36398100  0.83809900  1
  C  578  1  0.54654400  0.36586100  0.81925600  1
  C  579  1  0.58901600  0.36173800  0.81532500  1
  C  580  1  0.61650300  0.35640700  0.83038000  1
  C  581  1  0.60063500  0.35527200  0.84927200  1
  C  582  1  0.55882800  0.35908600  0.85326700  1
  C  583  1  0.46291800  0.35907300  0.85342700  1
  C  584  1  0.42104300  0.35526900  0.84956800  1
  C  585  1  0.40488200  0.35643500  0.83073000  1
  C  586  1  0.43212100  0.36181000  0.81559600  1
  C  587  1  0.51032100  0.39066600  0.79969800  1
  C  588  1  0.50980500  0.39123300  0.77969900  1
  C  589  1  0.51029600  0.37276700  0.77253100  1
  C  590  1  0.51035200  0.35953600  0.78758700  1
  C  591  1  0.51198500  0.36707900  0.75330200  1
  C  592  1  0.51302400  0.34752900  0.74904500  1
  C  593  1  0.51104600  0.33343300  0.76362400  1
  C  594  1  0.51086900  0.33967200  0.78305800  1
  C  595  1  0.51148100  0.40840200  0.80983400  1
  C  596  1  0.51072500  0.42625600  0.79989600  1
  C  597  1  0.51060400  0.42581100  0.77962200  1
  C  598  1  0.50980800  0.40853100  0.76948000  1
  C  611  1  0.51049500  0.37011600  0.80631200  1
  C  616  1  0.47473900  0.62879200  0.18599600  1
  C  617  1  0.48929500  0.63068100  0.16720400  1
  C  618  1  0.53233600  0.63067000  0.16727800  1
  C  619  1  0.54660900  0.62874900  0.18611900  1
  C  620  1  0.58909400  0.63284300  0.19005200  1
  C  621  1  0.61657500  0.63819100  0.17500400  1
  C  622  1  0.60071300  0.63935000  0.15611100  1
  C  623  1  0.55891500  0.63551900  0.15210300  1
  C  624  1  0.46299900  0.63559000  0.15194400  1
  C  625  1  0.42114300  0.63943200  0.15581500  1
  C  626  1  0.40494400  0.63821600  0.17464400  1
  C  627  1  0.43217000  0.63283500  0.18978100  1
  C  628  1  0.51032100  0.60396100  0.20567100  1
  C  629  1  0.50979500  0.60338900  0.22567000  1
  C  630  1  0.51030900  0.62185200  0.23284400  1
  C  631  1  0.51043900  0.63508700  0.21779000  1
  C  632  1  0.51207600  0.62753500  0.25207400  1
  C  633  1  0.51318600  0.64708500  0.25633300  1
  C  634  1  0.51123300  0.66118600  0.24175700  1
  C  635  1  0.51102700  0.65495000  0.22232300  1
  C  636  1  0.51145000  0.58622700  0.19553100  1
  C  637  1  0.51058900  0.56836600  0.20545900  1
  C  638  1  0.51049200  0.56881300  0.22573400  1
  C  639  1  0.50976400  0.58608800  0.23588200  1
  C  652  1  0.51055100  0.62451300  0.19906400  1
  C  657  1  0.00733100  0.75544500  0.21484100  1
  C  658  1  0.00565100  0.75440000  0.23504800  1
  C  659  1  0.00163800  0.77130000  0.24626500  1
  C  660  1  0.99928600  0.78919900  0.23674400  1
  C  664  1  0.99816000  0.77037400  0.26599400  1
  C  665  1  0.03437400  0.76529700  0.27721000  1
  C  670  1  0.00980400  0.73946100  0.20286000  1
  C  672  1  0.99157400  0.80707500  0.24475900  1
  C  674  1  0.00737400  0.23914000  0.79054300  1
  C  675  1  0.00565700  0.24018500  0.77033600  1
  C  676  1  0.00160100  0.22328900  0.75912100  1
  C  677  1  0.99928900  0.20538600  0.76863900  1
  C  681  1  0.99805100  0.22421800  0.73939500  1
  C  682  1  0.03422100  0.22929800  0.72815200  1
  C  687  1  0.00984400  0.25512600  0.80252100  1
  C  689  1  0.99147500  0.18752100  0.76061400  1
  C  691  1  0.00732100  0.78516400  0.76084500  1
  C  692  1  0.00563800  0.76495800  0.75979100  1
  C  693  1  0.00155400  0.75373500  0.77668400  1
  C  694  1  0.99919000  0.76324700  0.79458800  1
  C  698  1  0.99803600  0.73400900  0.77574600  1
  C  699  1  0.03423700  0.72277800  0.77068300  1
  C  704  1  0.00982900  0.79714800  0.74486400  1
  C  706  1  0.99135700  0.75521300  0.81244700  1
  C  708  1  0.00706600  0.20945700  0.24453000  1
  C  709  1  0.00528700  0.22966000  0.24558400  1
  C  710  1  0.00120200  0.24088500  0.22869200  1
  C  711  1  0.99884800  0.23136700  0.21079100  1
  C  715  1  0.99760300  0.26062800  0.22962400  1
  C  716  1  0.03471900  0.27159800  0.23385700  1
  C  721  1  0.00961100  0.19747400  0.26051200  1
  C  723  1  0.99115800  0.23939800  0.19291600  1
  C  725  1  0.50713900  0.25545900  0.71484700  1
  C  726  1  0.50528100  0.25439500  0.73505000  1
  C  727  1  0.50119400  0.27128800  0.74627300  1
  C  728  1  0.49892600  0.28918700  0.73674700  1
  C  732  1  0.49754200  0.27036100  0.76601600  1
  C  733  1  0.53463200  0.26614200  0.77701100  1
  C  738  1  0.50966200  0.23950000  0.70284400  1
  C  740  1  0.49128900  0.30706400  0.74475300  1
  C  742  1  0.50734700  0.73916600  0.29054000  1
  C  743  1  0.50541500  0.74023600  0.27033900  1
  C  744  1  0.50138000  0.72334200  0.25911700  1
  C  745  1  0.49926200  0.70543700  0.26863600  1
  C  749  1  0.49764700  0.72427800  0.23940600  1
  C  750  1  0.53443000  0.72869500  0.22824600  1
  C  755  1  0.50983300  0.75512500  0.30254600  1
  C  757  1  0.49156300  0.68756300  0.26063500  1
  C  759  1  0.50720700  0.28516500  0.26083700  1
  C  760  1  0.50527500  0.26496600  0.25975300  1
  C  761  1  0.50120000  0.25373100  0.27663700  1
  C  762  1  0.49904100  0.26323500  0.29455000  1
  C  766  1  0.49747900  0.23401800  0.27568600  1
  C  767  1  0.53428100  0.22286600  0.27127800  1
  C  772  1  0.50970200  0.29718200  0.24488600  1
  C  774  1  0.49128000  0.25521200  0.31241000  1
  C  776  1  0.50718200  0.70945100  0.74452200  1
  C  777  1  0.50562400  0.72965900  0.74556800  1
  C  778  1  0.50154200  0.74087400  0.72867000  1
  C  779  1  0.49897600  0.73133900  0.71078500  1
  C  783  1  0.49822000  0.76061000  0.72958600  1
  C  784  1  0.53453300  0.77177600  0.73462200  1
  C  789  1  0.50972700  0.69745700  0.76049000  1
  C  791  1  0.49128300  0.73934500  0.69290900  1
  C  793  1  0.79852500  0.67197900  0.15923000  1
  C  794  1  0.76543800  0.68208400  0.16785400  1
  C  795  1  0.72767900  0.67257700  0.17253300  1
  C  796  1  0.72421300  0.65262500  0.16863000  1
  C  800  1  0.69449200  0.68299400  0.17980500  1
  C  801  1  0.66931300  0.69419400  0.16677100  1
  C  806  1  0.83596400  0.68044200  0.15381200  1
  C  808  1  0.68790700  0.64170800  0.16846700  1
  C  810  1  0.79847500  0.32264000  0.84617900  1
  C  811  1  0.76542900  0.31253900  0.83751900  1
  C  812  1  0.72765400  0.32204300  0.83284900  1
  C  813  1  0.72415400  0.34198900  0.83677000  1
  C  817  1  0.69448300  0.31162300  0.82556300  1
  C  818  1  0.66930400  0.30041500  0.83858700  1
  C  823  1  0.83591100  0.31417600  0.85160600  1
  C  825  1  0.68783800  0.35290300  0.83692500  1
  C  827  1  0.79851900  0.84076600  0.67735600  1
  C  828  1  0.76546600  0.83211700  0.68746400  1
  C  829  1  0.72767600  0.82745800  0.67797200  1
  C  830  1  0.72416300  0.83138100  0.65802500  1
  C  834  1  0.69450800  0.82018300  0.68839800  1
  C  835  1  0.66934700  0.83321600  0.69960700  1
  C  840  1  0.83597000  0.84618100  0.68581300  1
  C  842  1  0.68783200  0.83153500  0.64711700  1
  C  844  1  0.79843500  0.15387100  0.32796200  1
  C  845  1  0.76543500  0.16259700  0.31788000  1
  C  846  1  0.72759500  0.16720400  0.32736100  1
  C  847  1  0.72399200  0.16310800  0.34727100  1
  C  851  1  0.69448000  0.17461100  0.31695500  1
  C  852  1  0.66938800  0.16137300  0.30592200  1
  C  857  1  0.83590800  0.14849000  0.31950600  1
  C  859  1  0.68768300  0.16306300  0.35820300  1
  C  861  1  0.22287700  0.67251100  0.84646100  1
  C  862  1  0.25593700  0.68249800  0.83767500  1
  C  863  1  0.29372400  0.67294000  0.83313000  1
  C  864  1  0.29721800  0.65305500  0.83735900  1
  C  868  1  0.32689700  0.68325500  0.82565100  1
  C  869  1  0.35207300  0.69433600  0.83881500  1
  C  874  1  0.18543000  0.68104200  0.85176700  1
  C  876  1  0.33346400  0.64208600  0.83745800  1
  C  878  1  0.22281500  0.32216900  0.15888600  1
  C  879  1  0.25585300  0.31217900  0.16768700  1
  C  880  1  0.29362200  0.32173600  0.17225300  1
  C  881  1  0.29710700  0.34162400  0.16805000  1
  C  885  1  0.32673800  0.31142800  0.17973000  1
  C  886  1  0.35221600  0.30036100  0.16665500  1
  C  891  1  0.18537200  0.31364400  0.15357100  1
  C  893  1  0.33337600  0.35257600  0.16787900  1
  C  895  1  0.22295000  0.84113800  0.32754800  1
  C  896  1  0.25600300  0.83233300  0.31757200  1
  C  897  1  0.29375200  0.82776700  0.32714600  1
  C  898  1  0.29719500  0.83195900  0.34703800  1
  C  902  1  0.32687800  0.82027600  0.31685400  1
  C  903  1  0.35238700  0.83334000  0.30579100  1
  C  908  1  0.18552800  0.84646100  0.31900600  1
  C  910  1  0.33344500  0.83212700  0.35800500  1
  C  912  1  0.22291300  0.15347800  0.67783900  1
  C  913  1  0.25606400  0.16218100  0.68783500  1
  C  914  1  0.29375800  0.16679400  0.67824100  1
  C  915  1  0.29708700  0.16271300  0.65832200  1
  C  919  1  0.32699000  0.17417600  0.68854600  1
  C  920  1  0.35230900  0.16125000  0.69980300  1
  C  925  1  0.18551400  0.14814200  0.68639100  1
  C  927  1  0.33327700  0.16258200  0.64731100  1
  C  929  1  0.22254700  0.32298500  0.84655800  1
  C  930  1  0.25545500  0.31285100  0.83781700  1
  C  931  1  0.29335900  0.32227400  0.83321100  1
  C  932  1  0.29715700  0.34217100  0.83731100  1
  C  936  1  0.32636500  0.31182500  0.82580800  1
  C  937  1  0.35147200  0.30044400  0.83871300  1
  C  942  1  0.18494100  0.31461100  0.85187000  1
  C  944  1  0.33362500  0.35297500  0.83750700  1
  C  946  1  0.22255700  0.67160900  0.15881900  1
  C  947  1  0.25542200  0.68174100  0.16759500  1
  C  948  1  0.29335100  0.67233100  0.17218400  1
  C  949  1  0.29719600  0.65244000  0.16805600  1
  C  953  1  0.32633700  0.68278500  0.17959500  1
  C  954  1  0.35142900  0.69418000  0.16670000  1
  C  959  1  0.18495100  0.67997900  0.15349900  1
  C  961  1  0.33368700  0.64165200  0.16785000  1
  C  963  1  0.22243300  0.15349700  0.32834100  1
  C  964  1  0.25532500  0.16223200  0.31819000  1
  C  965  1  0.29325400  0.16683100  0.32759600  1
  C  966  1  0.29707600  0.16275200  0.34749700  1
  C  970  1  0.32625900  0.17420900  0.31713200  1
  C  971  1  0.35136000  0.16127700  0.30577700  1
  C  976  1  0.18483000  0.14816000  0.31997600  1
  C  978  1  0.33356000  0.16258600  0.35829100  1
  C  980  1  0.22254300  0.84115400  0.67702200  1
  C  981  1  0.25540900  0.83234900  0.68713100  1
  C  982  1  0.29336300  0.82779400  0.67771800  1
  C  983  1  0.29722000  0.83203600  0.65785000  1
  C  987  1  0.32633700  0.82028900  0.68814900  1
  C  988  1  0.35138500  0.83342800  0.69931900  1
  C  993  1  0.18492200  0.84644400  0.68540000  1
  C  995  1  0.33364400  0.83209500  0.64700100  1
  C  997  1  0.79837200  0.32268900  0.15864800  1
  C  998  1  0.76549700  0.31267800  0.16755400  1
  C  999  1  0.72757000  0.32215000  0.17202500  1
  C  1000  1  0.72373700  0.34197700  0.16759300  1
  C  1004  1  0.69459200  0.31179700  0.17963300  1
  C  1005  1  0.66956200  0.30050000  0.16659500  1
  C  1010  1  0.83595500  0.31423400  0.15342900  1
  C  1012  1  0.68732500  0.35283100  0.16743000  1
  C  1014  1  0.79845300  0.67194000  0.84671300  1
  C  1015  1  0.76558400  0.68196800  0.83781800  1
  C  1016  1  0.72765400  0.67250700  0.83333600  1
  C  1017  1  0.72382100  0.65267400  0.83772400  1
  C  1021  1  0.69472900  0.68286300  0.82575000  1
  C  1022  1  0.66941900  0.69413600  0.83871700  1
  C  1027  1  0.83604800  0.68037900  0.85193200  1
  C  1029  1  0.68738400  0.64184100  0.83795000  1
  C  1031  1  0.79839400  0.15319000  0.67727700  1
  C  1032  1  0.76555900  0.16212200  0.68729300  1
  C  1033  1  0.72763500  0.16660600  0.67782900  1
  C  1034  1  0.72378700  0.16219600  0.65800200  1
  C  1038  1  0.69473800  0.17423500  0.68817400  1
  C  1039  1  0.66940600  0.16130700  0.69948000  1
  C  1044  1  0.83599500  0.14798000  0.68571700  1
  C  1046  1  0.68735300  0.16196800  0.64716500  1
  C  1048  1  0.79848100  0.84140000  0.32811100  1
  C  1049  1  0.76552500  0.83259200  0.31807400  1
  C  1050  1  0.72765100  0.82807000  0.32756200  1
  C  1051  1  0.72393600  0.83236100  0.34742100  1
  C  1055  1  0.69462600  0.82056800  0.31720200  1
  C  1056  1  0.66950600  0.83337200  0.30571400  1
  C  1061  1  0.83606000  0.84661600  0.31965900  1
  C  1063  1  0.68754900  0.83256900  0.35829500  1
  C  1065  1  0.02307800  0.68893000  0.02316600  1
  C  1066  1  0.05577000  0.68636600  0.00986000  1
  C  1067  1  0.04822500  0.68676400  0.98981700  1
  C  1068  1  0.00679900  0.68973000  0.98319300  1
  C  1072  1  0.08166400  0.68608500  0.97725100  1
  C  1073  1  0.10565300  0.70333700  0.97401700  1
  C  1078  1  0.03126900  0.69379500  0.04219600  1
  C  1080  1  0.99502700  0.69500500  0.96454000  1
  C  1082  1  0.02290000  0.30570400  0.98220600  1
  C  1083  1  0.05562300  0.30827900  0.99550000  1
  C  1084  1  0.04814800  0.30785900  0.01554900  1
  C  1085  1  0.00674900  0.30489800  0.02220300  1
  C  1089  1  0.08163200  0.30851900  0.02809100  1
  C  1090  1  0.10559700  0.29125400  0.03130200  1
  C  1095  1  0.03109100  0.30078400  0.96319200  1
  C  1097  1  0.99504600  0.29961700  0.04086400  1
  C  1099  1  0.02286100  0.97684300  0.69431400  1
  C  1100  1  0.05564200  0.99013200  0.69184900  1
  C  1101  1  0.04814100  0.01018000  0.69223500  1
  C  1102  1  0.00668100  0.01682800  0.69503100  1
  C  1106  1  0.08162400  0.02272600  0.69169300  1
  C  1107  1  0.10529400  0.02594500  0.70904200  1
  C  1112  1  0.03110300  0.95782600  0.69922000  1
  C  1114  1  0.99487800  0.03549200  0.70025900  1
  C  1116  1  0.02295700  0.01777200  0.31104300  1
  C  1117  1  0.05570000  0.00448700  0.31361000  1
  C  1118  1  0.04820100  0.98443900  0.31316500  1
  C  1119  1  0.00676500  0.97782500  0.31020000  1
  C  1123  1  0.08168400  0.97186700  0.31384700  1
  C  1124  1  0.10503100  0.96874100  0.29636800  1
  C  1129  1  0.03121300  0.03680300  0.30619600  1
  C  1131  1  0.99500300  0.95913800  0.30503500  1
  C  1133  1  0.52283000  0.18891600  0.52316600  1
  C  1134  1  0.55561500  0.18643100  0.50987900  1
  C  1135  1  0.54818000  0.18689800  0.48982400  1
  C  1136  1  0.50675300  0.18981500  0.48317800  1
  C  1140  1  0.58172100  0.18630500  0.47727800  1
  C  1141  1  0.60487800  0.20384500  0.47418800  1
  C  1146  1  0.53108600  0.19377300  0.54220300  1
  C  1148  1  0.49506200  0.19499100  0.46448100  1
  C  1150  1  0.52289500  0.80573600  0.48220800  1
  C  1151  1  0.55572400  0.80821100  0.49547600  1
  C  1152  1  0.54833600  0.80778400  0.51553400  1
  C  1153  1  0.50692100  0.80490600  0.52220500  1
  C  1157  1  0.58186400  0.80836800  0.52804300  1
  C  1158  1  0.60508700  0.79085700  0.53127500  1
  C  1163  1  0.53109200  0.80085200  0.46317300  1
  C  1165  1  0.49522100  0.79969300  0.54089400  1
  C  1167  1  0.52291700  0.47685800  0.19431200  1
  C  1168  1  0.55567400  0.49014100  0.19178400  1
  C  1169  1  0.54821700  0.51019300  0.19220300  1
  C  1170  1  0.50679300  0.51683900  0.19510400  1
  C  1174  1  0.58169000  0.52273100  0.19154700  1
  C  1175  1  0.60501200  0.52601300  0.20902200  1
  C  1180  1  0.53101700  0.45782100  0.19921800  1
  C  1182  1  0.49503100  0.53553400  0.20027800  1
  C  1184  1  0.52303800  0.51773700  0.81101100  1
  C  1185  1  0.55583000  0.50445800  0.81347700  1
  C  1186  1  0.54834500  0.48440900  0.81310800  1
  C  1187  1  0.50689600  0.47776800  0.81027000  1
  C  1191  1  0.58182700  0.47186000  0.81368000  1
  C  1192  1  0.60552800  0.46862100  0.79634600  1
  C  1197  1  0.53113900  0.53677600  0.80611800  1
  C  1199  1  0.49509700  0.45908500  0.80507900  1
  N  38  1  0.01005000  0.74171600  0.18463800  1
  N  39  1  0.15541400  0.66911500  0.14770800  1
  N  40  1  0.86562600  0.66964400  0.14804000  1
  N  41  1  0.00568800  0.69182200  0.05637800  1
  N  79  1  0.01007100  0.25287700  0.82074400  1
  N  80  1  0.15535900  0.32546100  0.85763800  1
  N  81  1  0.86555700  0.32498400  0.85737400  1
  N  82  1  0.00554500  0.30279400  0.94900100  1
  N  120  1  0.01007800  0.81537000  0.74712100  1
  N  121  1  0.15536100  0.85224200  0.67455300  1
  N  122  1  0.86561000  0.85195300  0.67500400  1
  N  123  1  0.00554500  0.94363700  0.69723200  1
  N  161  1  0.00993500  0.17925300  0.25825500  1
  N  162  1  0.15527500  0.14239300  0.33084100  1
  N  163  1  0.86552000  0.14267400  0.33031000  1
  N  164  1  0.00559500  0.05098100  0.30810800  1
  N  202  1  0.01280700  0.74162600  0.82029200  1
  N  203  1  0.86570400  0.66958100  0.85771300  1
  N  204  1  0.15566800  0.67029500  0.85752000  1
  N  205  1  0.01592500  0.69183100  0.94898300  1
  N  243  1  0.01260300  0.25300600  0.18510800  1
  N  244  1  0.86558800  0.32502400  0.14761400  1
  N  245  1  0.15560900  0.32439900  0.14783000  1
  N  246  1  0.01596000  0.30281700  0.05641200  1
  N  284  1  0.01294400  0.81491000  0.25837900  1
  N  285  1  0.86578100  0.85233600  0.33045000  1
  N  286  1  0.15576800  0.85222700  0.32974700  1
  N  287  1  0.01598400  0.94359700  0.30817300  1
  N  325  1  0.01292800  0.17969300  0.74701800  1
  N  326  1  0.86564400  0.14221600  0.67490600  1
  N  327  1  0.15568700  0.14243600  0.67565700  1
  N  328  1  0.01581700  0.05104200  0.69711500  1
  N  366  1  0.50995100  0.24181900  0.68463000  1
  N  367  1  0.65408500  0.17165100  0.65089600  1
  N  368  1  0.36672200  0.17210900  0.65109400  1
  N  369  1  0.50560800  0.19176600  0.55642300  1
  N  407  1  0.51009700  0.75280500  0.32075900  1
  N  408  1  0.65426300  0.82291300  0.35454500  1
  N  409  1  0.36685800  0.82255600  0.35426600  1
  N  410  1  0.50561400  0.80289200  0.44895700  1
  N  448  1  0.50995700  0.31539500  0.24721400  1
  N  449  1  0.65401700  0.34908300  0.17707400  1
  N  450  1  0.36679900  0.34882700  0.17744000  1
  N  451  1  0.50552700  0.44361000  0.19716100  1
  N  489  1  0.50994800  0.67924200  0.75819000  1
  N  490  1  0.65408900  0.64555900  0.82828300  1
  N  491  1  0.36692100  0.64587500  0.82794000  1
  N  492  1  0.50568000  0.55100000  0.80816900  1
  N  530  1  0.51286900  0.24168300  0.32026200  1
  N  531  1  0.36676500  0.17228400  0.35448800  1
  N  532  1  0.65432200  0.17261300  0.35430800  1
  N  533  1  0.51597300  0.19180700  0.44892300  1
  N  571  1  0.51282200  0.75290400  0.68507700  1
  N  572  1  0.36684600  0.82241400  0.65086100  1
  N  573  1  0.65449600  0.82195200  0.65096400  1
  N  574  1  0.51614500  0.80287600  0.55644700  1
  N  612  1  0.51286300  0.31489800  0.75829900  1
  N  613  1  0.36679600  0.34918100  0.82778000  1
  N  614  1  0.65447700  0.34906200  0.82735400  1
  N  615  1  0.51602900  0.44352900  0.80824200  1
  N  653  1  0.51310200  0.67971800  0.24708500  1
  N  654  1  0.36683300  0.64544700  0.17759400  1
  N  655  1  0.65454300  0.64554000  0.17803900  1
  N  656  1  0.51592700  0.55109600  0.19710900  1
  N  661  1  0.00113700  0.78886400  0.21730400  1
  N  662  1  0.00501900  0.77328200  0.20714200  1
  N  678  1  0.00119300  0.20572000  0.78807700  1
  N  679  1  0.00509100  0.22130200  0.79824000  1
  N  695  1  0.00107500  0.78268700  0.79426300  1
  N  696  1  0.00499800  0.79285500  0.77868500  1
  N  712  1  0.00089100  0.21193100  0.21111100  1
  N  713  1  0.00483900  0.20176500  0.22668800  1
  N  729  1  0.50104500  0.28888100  0.71731700  1
  N  730  1  0.50498900  0.27330400  0.70715700  1
  N  746  1  0.50139300  0.70574000  0.28806500  1
  N  747  1  0.50529400  0.72131800  0.29822700  1
  N  763  1  0.50116900  0.28266500  0.29425900  1
  N  764  1  0.50510100  0.29283800  0.27869100  1
  N  780  1  0.50077100  0.71190200  0.71111400  1
  N  781  1  0.50471800  0.70174700  0.72669300  1
  N  797  1  0.75773600  0.64413000  0.16033900  1
  N  798  1  0.79226000  0.65299500  0.15612800  1
  N  814  1  0.75765200  0.35048100  0.84508600  1
  N  815  1  0.79217600  0.34161800  0.84930200  1
  N  831  1  0.75766400  0.83968400  0.64952400  1
  N  832  1  0.79220400  0.84389100  0.65837900  1
  N  848  1  0.75749000  0.15480800  0.35577300  1
  N  849  1  0.79206100  0.15065300  0.34692000  1
  N  865  1  0.26367400  0.64464800  0.84571300  1
  N  866  1  0.22914800  0.65356900  0.84980500  1
  N  882  1  0.26362000  0.35002900  0.15964200  1
  N  883  1  0.22910700  0.34110900  0.15552900  1
  N  899  1  0.26369400  0.84036900  0.35542700  1
  N  900  1  0.22920400  0.84448900  0.34649100  1
  N  916  1  0.26350400  0.15438700  0.64991700  1
  N  917  1  0.22904400  0.15024400  0.65886700  1
  N  933  1  0.26379900  0.35069900  0.84570900  1
  N  934  1  0.22913800  0.34191300  0.84985000  1
  N  950  1  0.26387000  0.64391000  0.15963500  1
  N  951  1  0.22919800  0.65268900  0.15549900  1
  N  967  1  0.26372200  0.15437100  0.35604500  1
  N  968  1  0.22905000  0.15022300  0.34727000  1
  N  984  1  0.26385000  0.84041400  0.64932000  1
  N  985  1  0.22916800  0.84451200  0.65810800  1
  N  1001  1  0.75712300  0.35041500  0.15913700  1
  N  1002  1  0.79178700  0.34157400  0.15511700  1
  N  1018  1  0.75716900  0.64422400  0.84620800  1
  N  1019  1  0.79184000  0.65305500  0.85024200  1
  N  1035  1  0.75710400  0.15367500  0.64956500  1
  N  1036  1  0.79176200  0.14963500  0.65839900  1
  N  1052  1  0.75735600  0.84077900  0.35587500  1
  N  1053  1  0.79199200  0.84483000  0.34702300  1
  N  1069  1  0.97738900  0.69211300  0.99710100  1
  N  1070  1  0.98464700  0.69181700  0.01558500  1
  N  1086  1  0.97730200  0.30250600  0.00831600  1
  N  1087  1  0.98451600  0.30279800  0.98982700  1
  N  1103  1  0.97719000  0.00293900  0.69730300  1
  N  1104  1  0.98441000  0.98445100  0.69704700  1
  N  1120  1  0.97727700  0.99171000  0.30792800  1
  N  1121  1  0.98451000  0.01019600  0.30823100  1
  N  1137  1  0.47722200  0.19204300  0.49705300  1
  N  1138  1  0.48441100  0.19171600  0.51554600  1
  N  1154  1  0.47734900  0.80264500  0.50835100  1
  N  1155  1  0.48449500  0.80294700  0.48985400  1
  N  1171  1  0.47728100  0.50296800  0.19740800  1
  N  1172  1  0.48448900  0.48447500  0.19712600  1
  N  1188  1  0.47736500  0.49164300  0.80802000  1
  N  1189  1  0.48456900  0.51013600  0.80828800  1
  O  669  1  0.96481500  0.76414200  0.27171600  1
  O  686  1  0.96468100  0.23044900  0.73369800  1
  O  703  1  0.96469400  0.72830500  0.76949100  1
  O  720  1  0.96514800  0.26642400  0.23669700  1
  O  737  1  0.46508000  0.26328500  0.77179700  1
  O  754  1  0.46518000  0.73125200  0.23348700  1
  O  771  1  0.46503300  0.22810400  0.26869400  1
  O  788  1  0.46493700  0.76639200  0.73583800  1
  O  805  1  0.70049600  0.69004800  0.19559800  1
  O  822  1  0.70050900  0.30457900  0.80976800  1
  O  839  1  0.70052100  0.80438900  0.69544600  1
  O  856  1  0.70067300  0.19028300  0.30969900  1
  O  873  1  0.32073700  0.69041500  0.80993200  1
  O  890  1  0.32078100  0.30403800  0.19536700  1
  O  907  1  0.32091700  0.80463800  0.30946800  1
  O  924  1  0.32098300  0.19002000  0.69548400  1
  O  941  1  0.32020200  0.30493400  0.80995600  1
  O  958  1  0.32015800  0.68966300  0.19545200  1
  O  975  1  0.32010600  0.19004700  0.31021000  1
  O  992  1  0.32001500  0.80457000  0.69528200  1
  O  1009  1  0.70093800  0.30480500  0.19541300  1
  O  1026  1  0.70085700  0.69010200  0.81005700  1
  O  1043  1  0.70091600  0.18994000  0.69537900  1
  O  1060  1  0.70081700  0.80466400  0.31043800  1
  O  1077  1  0.10150800  0.67113700  0.97757300  1
  O  1094  1  0.10150300  0.32345900  0.02776100  1
  O  1111  1  0.10174800  0.02239800  0.67682400  1
  O  1128  1  0.10199600  0.97231400  0.32864400  1
  O  1145  1  0.60220300  0.17155700  0.47772900  1
  O  1162  1  0.60286900  0.82296700  0.52756400  1
  O  1179  1  0.60260100  0.52224100  0.17692100  1
  O  1196  1  0.60192900  0.47221100  0.82855400  1
