# generated using pymatgen
data_H8C14N5O4
_symmetry_space_group_name_H-M   'P 1'
_cell_length_a   60.61389743
_cell_length_b   60.61389743
_cell_length_c   60.61389743
_cell_angle_alpha   109.47122063
_cell_angle_beta   109.47122063
_cell_angle_gamma   109.47122063
_symmetry_Int_Tables_number   1
_chemical_formula_structural   H8C14N5O4
_chemical_formula_sum   'H384 C672 N240 O192'
_cell_volume   171433.12369467
_cell_formula_units_Z   48
loop_
 _symmetry_equiv_pos_site_id
 _symmetry_equiv_pos_as_xyz
  1  'x, y, z'
loop_
 _atom_site_type_symbol
 _atom_site_label
 _atom_site_symmetry_multiplicity
 _atom_site_fract_x
 _atom_site_fract_y
 _atom_site_fract_z
 _atom_site_occupancy
  C  1  1  0.14283550  0.08885700  0.20178750  1
  C  2  1  0.12823800  0.07968800  0.21389900  1
  C  3  1  0.14000700  0.09176200  0.24217800  1
  C  4  1  0.16618750  0.11431050  0.25844000  1
  C  5  1  0.18074850  0.12469050  0.24699900  1
  C  6  1  0.16977400  0.11137550  0.21846350  1
  C  9  1  0.12913500  0.07531000  0.17294300  1
  C  10  1  0.11883250  0.04702700  0.15656050  1
  C  11  1  0.10122450  0.03444700  0.12830350  1
  C  12  1  0.09928950  0.05077300  0.11655750  1
  C  13  1  0.11185950  0.07902250  0.13238200  1
  C  14  1  0.12398300  0.09056050  0.16056350  1
  C  27  1  0.35560650  0.05824100  0.44531450  1
  C  28  1  0.37024850  0.08495350  0.45077200  1
  C  29  1  0.35852150  0.10150000  0.45109650  1
  C  30  1  0.33234650  0.09162000  0.44748350  1
  C  31  1  0.31775800  0.06563150  0.44331550  1
  C  32  1  0.32868000  0.04802500  0.44092900  1
  C  35  1  0.36926400  0.04305350  0.44543250  1
  C  36  1  0.37952700  0.03694350  0.42742150  1
  C  37  1  0.39709200  0.02624150  0.43240850  1
  C  38  1  0.39899700  0.01639500  0.45064100  1
  C  39  1  0.38644700  0.01966800  0.46633800  1
  C  40  1  0.37438300  0.03578000  0.46580200  1
  C  53  1  0.61207000  0.41112150  0.05475650  1
  C  54  1  0.63333650  0.42027850  0.04930800  1
  C  55  1  0.64956500  0.40822850  0.04904250  1
  C  56  1  0.64326550  0.38566550  0.05265200  1
  C  57  1  0.62144500  0.37528500  0.05683300  1
  C  58  1  0.60622650  0.38860150  0.05917700  1
  C  61  1  0.59677250  0.42467050  0.05460600  1
  C  62  1  0.60868250  0.45295250  0.07260600  1
  C  63  1  0.59300450  0.46553650  0.06759900  1
  C  64  1  0.56492800  0.44921900  0.04934700  1
  C  65  1  0.55249200  0.42097100  0.03365900  1
  C  66  1  0.56912250  0.40942000  0.03426250  1
  C  79  1  0.88623450  0.44187550  0.29820500  1
  C  80  1  0.86496250  0.41516650  0.28610500  1
  C  81  1  0.84877200  0.39863150  0.25782650  1
  C  82  1  0.85506750  0.40853500  0.24155650  1
  C  83  1  0.87688450  0.43453550  0.25298800  1
  C  84  1  0.89209050  0.45211850  0.28152000  1
  C  87  1  0.90152250  0.45704250  0.32705200  1
  C  88  1  0.88960950  0.46312200  0.34342150  1
  C  89  1  0.90528150  0.47379100  0.37168450  1
  C  90  1  0.93335600  0.48360650  0.38344550  1
  C  91  1  0.94579500  0.48035050  0.36763650  1
  C  92  1  0.92916850  0.46432800  0.33945450  1
  C  105  1  0.94104700  0.79821250  0.88706850  1
  C  106  1  0.91433900  0.78610050  0.86578850  1
  C  107  1  0.89782800  0.75782200  0.84958300  1
  C  108  1  0.90774750  0.74156000  0.85587050  1
  C  109  1  0.93375000  0.75300150  0.87769150  1
  C  110  1  0.95131050  0.78153650  0.89291200  1
  C  113  1  0.95619200  0.82705700  0.90236700  1
  C  114  1  0.96227200  0.84343950  0.89046650  1
  C  115  1  0.97292100  0.87169650  0.90614350  1
  C  116  1  0.98273200  0.88344250  0.93421550  1
  C  117  1  0.97947750  0.86761750  0.94664000  1
  C  118  1  0.96341950  0.83943650  0.92999700  1
  C  131  1  0.91029300  0.55468650  0.61292650  1
  C  132  1  0.91947550  0.54922600  0.63418050  1
  C  133  1  0.90742400  0.54890200  0.65040300  1
  C  134  1  0.88486400  0.55251650  0.64413750  1
  C  135  1  0.87444150  0.55668300  0.62231550  1
  C  136  1  0.88775050  0.55906950  0.60709600  1
  C  139  1  0.92383100  0.55456600  0.59762000  1
  C  140  1  0.95210600  0.57257900  0.60952200  1
  C  141  1  0.96468350  0.56759150  0.59383300  1
  C  142  1  0.94835600  0.54935900  0.56575400  1
  C  143  1  0.92010900  0.53366200  0.55333000  1
  C  144  1  0.90858050  0.53419800  0.56997750  1
  C  157  1  0.55731250  0.94524350  0.35636400  1
  C  158  1  0.58402850  0.95069200  0.37097050  1
  C  159  1  0.60052250  0.95095750  0.35918600  1
  C  160  1  0.59061350  0.94734850  0.33301400  1
  C  161  1  0.56461200  0.94316700  0.31845200  1
  C  162  1  0.54704950  0.94082250  0.32942400  1
  C  165  1  0.54216750  0.94539400  0.37006550  1
  C  166  1  0.53607650  0.92739400  0.38034650  1
  C  167  1  0.52540550  0.93240100  0.39793750  1
  C  168  1  0.51558150  0.95065300  0.39987250  1
  C  169  1  0.51883300  0.96634100  0.38731200  1
  C  170  1  0.53486000  0.96573800  0.37515800  1
  C  183  1  0.58802900  0.70179500  0.14367100  1
  C  184  1  0.57885800  0.71389700  0.12906200  1
  C  185  1  0.59094650  0.74217350  0.14080600  1
  C  186  1  0.61351100  0.75844450  0.16697950  1
  C  187  1  0.62389650  0.74701200  0.18154750  1
  C  188  1  0.61057000  0.71848050  0.17059750  1
  C  191  1  0.57447050  0.67294800  0.12999050  1
  C  192  1  0.54618750  0.65657800  0.11970050  1
  C  193  1  0.53359700  0.62831650  0.10210750  1
  C  194  1  0.54991050  0.61655500  0.10016150  1
  C  195  1  0.57815800  0.63236350  0.11271350  1
  C  196  1  0.58971400  0.66054650  0.12487450  1
  C  209  1  0.05397850  0.11293050  0.91114300  1
  C  210  1  0.04855000  0.13421100  0.92031200  1
  C  211  1  0.04824500  0.15041700  0.90823900  1
  C  212  1  0.05187700  0.14412950  0.88568950  1
  C  213  1  0.05605800  0.12230850  0.87530950  1
  C  214  1  0.05839850  0.10708800  0.88862450  1
  C  217  1  0.05382500  0.09763300  0.92469000  1
  C  218  1  0.07180550  0.10953350  0.95297300  1
  C  219  1  0.06677750  0.09385650  0.96555300  1
  C  220  1  0.04851650  0.06578400  0.94922650  1
  C  221  1  0.03283700  0.05335950  0.92097750  1
  C  222  1  0.03342250  0.07000300  0.90943950  1
  C  235  1  0.29736650  0.38707350  0.94176000  1
  C  236  1  0.28529500  0.36581950  0.91504550  1
  C  237  1  0.25702050  0.34959650  0.89849900  1
  C  238  1  0.24072650  0.35586250  0.90837900  1
  C  239  1  0.25212650  0.37768400  0.93436850  1
  C  240  1  0.28065500  0.39290400  0.95197400  1
  C  243  1  0.32621100  0.40238000  0.95694600  1
  C  244  1  0.34258400  0.39047800  0.96305700  1
  C  245  1  0.37085050  0.40616700  0.97375850  1
  C  246  1  0.38260200  0.43424600  0.98360500  1
  C  247  1  0.36677900  0.44667000  0.98033200  1
  C  248  1  0.33860300  0.43002200  0.96422000  1
  C  261  1  0.20094850  0.64363600  0.58887950  1
  C  262  1  0.21305800  0.62902950  0.57972150  1
  C  263  1  0.24133650  0.64081400  0.59177150  1
  C  264  1  0.25760000  0.66698650  0.61433450  1
  C  265  1  0.24616000  0.68154800  0.62471500  1
  C  266  1  0.21762550  0.67057600  0.61139850  1
  C  269  1  0.17210200  0.62993550  0.57532950  1
  C  270  1  0.15573050  0.61965350  0.54704800  1
  C  271  1  0.12746750  0.60206250  0.53446300  1
  C  272  1  0.11570900  0.60012750  0.55078050  1
  C  273  1  0.13152100  0.61268800  0.57902900  1
  C  274  1  0.15970200  0.62484200  0.59058000  1
  C  287  1  0.44435900  0.85632950  0.55812450  1
  C  288  1  0.44979500  0.87093750  0.58483350  1
  C  289  1  0.45014050  0.85919500  0.60136850  1
  C  290  1  0.44653250  0.83302150  0.59146500  1
  C  291  1  0.44234800  0.81845150  0.56546450  1
  C  292  1  0.43997200  0.82940150  0.54788150  1
  C  295  1  0.44448000  0.87000950  0.54295750  1
  C  296  1  0.42648750  0.88029950  0.53687800  1
  C  297  1  0.43148950  0.89789250  0.52620900  1
  C  298  1  0.44974900  0.89983850  0.51639350  1
  C  299  1  0.46544450  0.88728650  0.51965000  1
  C  300  1  0.46484050  0.87512650  0.53567200  1
  C  313  1  0.64283550  0.20178800  0.08885650  1
  C  314  1  0.62823800  0.21389950  0.07968850  1
  C  315  1  0.64000650  0.24217850  0.09176200  1
  C  316  1  0.66618850  0.25844050  0.11431200  1
  C  317  1  0.68074900  0.24699950  0.12469150  1
  C  318  1  0.66977450  0.21846250  0.11137600  1
  C  321  1  0.62913500  0.17294300  0.07531100  1
  C  322  1  0.61883250  0.15656100  0.04702650  1
  C  323  1  0.60122450  0.12830450  0.03444700  1
  C  324  1  0.59928900  0.11655750  0.05077350  1
  C  325  1  0.61185850  0.13238150  0.07902200  1
  C  326  1  0.62398300  0.16056350  0.09055950  1
  C  339  1  0.85560600  0.44531350  0.05824050  1
  C  340  1  0.87024850  0.45077250  0.08495300  1
  C  341  1  0.85852200  0.45109850  0.10150050  1
  C  342  1  0.83234550  0.44748300  0.09161950  1
  C  343  1  0.81775850  0.44331550  0.06563200  1
  C  344  1  0.82868050  0.44093000  0.04802650  1
  C  347  1  0.86926400  0.44543350  0.04305350  1
  C  348  1  0.87952700  0.42742050  0.03694350  1
  C  349  1  0.89709150  0.43240900  0.02624150  1
  C  350  1  0.89902033  0.45066333  0.01639500  1
  C  351  1  0.88644800  0.46633850  0.01966850  1
  C  352  1  0.87438300  0.46580250  0.03578050  1
  C  365  1  0.11206850  0.05475550  0.41112000  1
  C  366  1  0.13333550  0.04930700  0.42027750  1
  C  367  1  0.14956600  0.04904250  0.40822850  1
  C  368  1  0.14326450  0.05265200  0.38566550  1
  C  369  1  0.12144550  0.05683300  0.37528550  1
  C  370  1  0.10622700  0.05917800  0.38860200  1
  C  373  1  0.09677350  0.05460600  0.42467050  1
  C  374  1  0.10868300  0.07260600  0.45295200  1
  C  375  1  0.09300450  0.06759950  0.46553600  1
  C  376  1  0.06492800  0.04934600  0.44921900  1
  C  377  1  0.05249200  0.03365900  0.42097000  1
  C  378  1  0.06912300  0.03426200  0.40942000  1
  C  391  1  0.38623400  0.29820500  0.44187500  1
  C  392  1  0.36496100  0.28610400  0.41516500  1
  C  393  1  0.34877200  0.25782550  0.39863150  1
  C  394  1  0.35506650  0.24155650  0.40853500  1
  C  395  1  0.37688450  0.25298750  0.43453600  1
  C  396  1  0.39209000  0.28151900  0.45211700  1
  C  399  1  0.40152150  0.32705100  0.45704150  1
  C  400  1  0.38960850  0.34342150  0.46312200  1
  C  401  1  0.40528150  0.37168350  0.47379100  1
  C  402  1  0.43335650  0.38344550  0.48360700  1
  C  403  1  0.44579500  0.36763600  0.48035000  1
  C  404  1  0.42916750  0.33945350  0.46432700  1
  C  417  1  0.44104650  0.88706850  0.79821100  1
  C  418  1  0.41433850  0.86578900  0.78610050  1
  C  419  1  0.39782800  0.84958350  0.75782150  1
  C  420  1  0.40774800  0.85587150  0.74155950  1
  C  421  1  0.43374950  0.87769200  0.75300050  1
  C  422  1  0.45131200  0.89291350  0.78153750  1
  C  425  1  0.45619100  0.90236700  0.82705700  1
  C  426  1  0.46227150  0.89046550  0.84343900  1
  C  427  1  0.47292000  0.90614250  0.87169550  1
  C  428  1  0.48273150  0.93421600  0.88344250  1
  C  429  1  0.47947700  0.94664050  0.86761850  1
  C  430  1  0.46341950  0.92999600  0.83943650  1
  C  443  1  0.41029250  0.61292600  0.55468550  1
  C  444  1  0.41947500  0.63418050  0.54922650  1
  C  445  1  0.40742350  0.65040250  0.54890200  1
  C  446  1  0.38486300  0.64413600  0.55251600  1
  C  447  1  0.37444250  0.62231500  0.55668450  1
  C  448  1  0.38775100  0.60709600  0.55907000  1
  C  451  1  0.42383000  0.59762000  0.55456600  1
  C  452  1  0.45210650  0.60952300  0.57257950  1
  C  453  1  0.46468250  0.59383250  0.56759100  1
  C  454  1  0.44835700  0.56573167  0.54933667  1
  C  455  1  0.42010950  0.55333000  0.53366150  1
  C  456  1  0.40858050  0.56997750  0.53419700  1
  C  469  1  0.05731300  0.35636450  0.94524450  1
  C  470  1  0.08402850  0.37097050  0.95069300  1
  C  471  1  0.10052250  0.35918600  0.95095650  1
  C  472  1  0.09061250  0.33301350  0.94734800  1
  C  473  1  0.06461250  0.31845250  0.94316700  1
  C  474  1  0.04704900  0.32942350  0.94082150  1
  C  477  1  0.04216750  0.37006450  0.94539400  1
  C  478  1  0.03607700  0.38034600  0.92739400  1
  C  479  1  0.02540550  0.39793650  0.93240100  1
  C  480  1  0.01558200  0.39987300  0.95065400  1
  C  481  1  0.01883300  0.38731100  0.96634100  1
  C  482  1  0.03486150  0.37515800  0.96573850  1
  C  495  1  0.08802850  0.14367000  0.70179450  1
  C  496  1  0.07885700  0.12906100  0.71389600  1
  C  497  1  0.09094650  0.14080600  0.74217450  1
  C  498  1  0.11351000  0.16697850  0.75844350  1
  C  499  1  0.12389700  0.18154850  0.74701250  1
  C  500  1  0.11057100  0.17059800  0.71848100  1
  C  503  1  0.07447050  0.12999050  0.67294900  1
  C  504  1  0.04618700  0.11970050  0.65657850  1
  C  505  1  0.03359800  0.10210750  0.62831650  1
  C  506  1  0.04991100  0.10016150  0.61655450  1
  C  507  1  0.07815900  0.11271400  0.63236400  1
  C  508  1  0.08971400  0.12487350  0.66054650  1
  C  521  1  0.55397800  0.91114350  0.11293050  1
  C  522  1  0.54854950  0.92031150  0.13421100  1
  C  523  1  0.54824450  0.90823800  0.15041650  1
  C  524  1  0.55187650  0.88568800  0.14412850  1
  C  525  1  0.55605750  0.87530850  0.12230800  1
  C  526  1  0.55839900  0.88862350  0.10708750  1
  C  529  1  0.55382400  0.92468900  0.09763200  1
  C  530  1  0.57180600  0.95297350  0.10953450  1
  C  531  1  0.56677750  0.96555300  0.09385750  1
  C  532  1  0.54851550  0.94922650  0.06578400  1
  C  533  1  0.53283650  0.92097800  0.05335950  1
  C  534  1  0.53342350  0.90944050  0.07000400  1
  C  547  1  0.79736650  0.94175950  0.38707400  1
  C  548  1  0.78529550  0.91504700  0.36581950  1
  C  549  1  0.75702100  0.89849950  0.34959750  1
  C  550  1  0.74072700  0.90838050  0.35586450  1
  C  551  1  0.75212700  0.93436800  0.37768400  1
  C  552  1  0.78065450  0.95197350  0.39290400  1
  C  555  1  0.82621050  0.95694650  0.40238000  1
  C  556  1  0.84258350  0.96305650  0.39047700  1
  C  557  1  0.87084900  0.97375850  0.40616650  1
  C  558  1  0.88262533  0.98360500  0.43426833  1
  C  559  1  0.86677950  0.98033150  0.44667000  1
  C  560  1  0.83860250  0.96421950  0.43002200  1
  C  573  1  0.70094850  0.58887900  0.64363450  1
  C  574  1  0.71305800  0.57972250  0.62902950  1
  C  575  1  0.74133750  0.59177150  0.64081400  1
  C  576  1  0.75759900  0.61433450  0.66698650  1
  C  577  1  0.74616000  0.62471450  0.68154750  1
  C  578  1  0.71762550  0.61139800  0.67057650  1
  C  581  1  0.67210300  0.57532950  0.62993550  1
  C  582  1  0.65573100  0.54704800  0.61965400  1
  C  583  1  0.62746850  0.53446400  0.60206350  1
  C  584  1  0.61570900  0.55078100  0.60012700  1
  C  585  1  0.63152200  0.57903000  0.61268900  1
  C  586  1  0.65970300  0.59058100  0.62484300  1
  C  599  1  0.94435900  0.55812550  0.85632950  1
  C  600  1  0.94979550  0.58483500  0.87093850  1
  C  601  1  0.95014050  0.60136850  0.85919400  1
  C  602  1  0.94653250  0.59146500  0.83302050  1
  C  603  1  0.94234850  0.56546350  0.81845200  1
  C  604  1  0.93997250  0.54788200  0.82940250  1
  C  607  1  0.94448000  0.54295750  0.87001050  1
  C  608  1  0.92648750  0.53687800  0.88029850  1
  C  609  1  0.93149000  0.52620850  0.89789250  1
  C  610  1  0.94974950  0.51639300  0.89983850  1
  C  611  1  0.96544500  0.51965000  0.88728600  1
  C  612  1  0.96484000  0.53567250  0.87512650  1
  C  1249  1  0.10479150  0.09932950  0.08035900  1
  C  1250  1  0.11759450  0.10158500  0.06487650  1
  C  1251  1  0.10709400  0.10516900  0.04279400  1
  C  1252  1  0.08166700  0.10356800  0.03358400  1
  C  1253  1  0.06904400  0.10268250  0.04957250  1
  C  1256  1  0.08118250  0.10185500  0.07369950  1
  C  1263  1  0.11387000  0.09054850  0.09860650  1
  C  1265  1  0.06771400  0.09849950  0.00702950  1
  C  1267  1  0.39345450  0.97469800  0.49371950  1
  C  1268  1  0.38066500  0.94641200  0.48317800  1
  C  1269  1  0.39108200  0.93481000  0.49729500  1
  C  1270  1  0.41655950  0.95103100  0.52106850  1
  C  1271  1  0.42918550  0.97964450  0.53282400  1
  C  1274  1  0.41704500  0.99163750  0.51986950  1
  C  1281  1  0.38442850  0.98387250  0.47585000  1
  C  1283  1  0.43053650  0.93842850  0.52990800  1
  C  1285  1  0.48015500  0.40064400  0.00626600  1
  C  1286  1  0.46240800  0.39840450  0.01680550  1
  C  1287  1  0.43670650  0.39474600  0.00269150  1
  C  1288  1  0.42914450  0.39640700  0.97889850  1
  C  1289  1  0.44600950  0.39728750  0.96715600  1
  C  1292  1  0.47096750  0.39813350  0.98013600  1
  C  1299  1  0.50719050  0.40946150  0.02413600  1
  C  1301  1  0.40770050  0.40154500  0.97007350  1
  C  1303  1  0.01811550  0.52529600  0.41969750  1
  C  1304  1  0.03587500  0.55357750  0.43516550  1
  C  1305  1  0.06154500  0.56515550  0.45724050  1
  C  1306  1  0.06914000  0.54892550  0.46643550  1
  C  1307  1  0.05227100  0.52031650  0.45044850  1
  C  1310  1  0.02729950  0.50833700  0.42634650  1
  C  1317  1  0.99109550  0.51612200  0.40142550  1
  C  1319  1  0.09064100  0.56152000  0.49298300  1
  C  1321  1  0.02443250  0.91964100  0.01897050  1
  C  1322  1  0.05271850  0.93512350  0.03670900  1
  C  1323  1  0.06430000  0.95720600  0.06237500  1
  C  1324  1  0.04808300  0.96641600  0.06998400  1
  C  1325  1  0.01947150  0.95042750  0.05311000  1
  C  1328  1  0.00748300  0.92630050  0.02815550  1
  C  1335  1  0.01526350  0.90139350  0.99194200  1
  C  1337  1  0.06068450  0.99297050  0.09147000  1
  C  1339  1  0.89973550  0.50628000  0.48097850  1
  C  1340  1  0.89748700  0.51682200  0.46323400  1
  C  1341  1  0.89378700  0.50270400  0.43751400  1
  C  1342  1  0.89549100  0.47893150  0.42996250  1
  C  1343  1  0.89636150  0.46717600  0.44682050  1
  C  1346  1  0.89717550  0.48013050  0.47176800  1
  C  1353  1  0.90857850  0.52415000  0.50802250  1
  C  1355  1  0.90062850  0.47009200  0.40852050  1
  C  1357  1  0.47388900  0.99373400  0.39437800  1
  C  1358  1  0.44560250  0.98319450  0.38159900  1
  C  1359  1  0.43401500  0.99730850  0.39205450  1
  C  1360  1  0.45024600  0.02110200  0.41750900  1
  C  1361  1  0.47885300  0.03284350  0.43013150  1
  C  1364  1  0.49083150  0.01986400  0.41799750  1
  C  1371  1  0.48305450  0.97586400  0.38532550  1
  C  1373  1  0.43762700  0.02992750  0.43147250  1
  C  1375  1  0.59841800  0.58030250  0.10559850  1
  C  1376  1  0.60070900  0.56483400  0.11841200  1
  C  1377  1  0.60430500  0.54276000  0.10791500  1
  C  1378  1  0.60270450  0.53356400  0.08248950  1
  C  1379  1  0.60182300  0.54955200  0.06986900  1
  C  1382  1  0.60095300  0.57365350  0.08199050  1
  C  1389  1  0.58967000  0.59857450  0.11469650  1
  C  1391  1  0.59765800  0.50701700  0.06853700  1
  C  1393  1  0.00546200  0.98102950  0.90067050  1
  C  1394  1  0.01600950  0.96329100  0.89841450  1
  C  1395  1  0.00192500  0.93762500  0.89483100  1
  C  1396  1  0.97809900  0.93001600  0.89643200  1
  C  1397  1  0.96636150  0.94689000  0.89731750  1
  C  1400  1  0.97932750  0.97184450  0.89814500  1
  C  1407  1  0.02332150  0.00805800  0.90945150  1
  C  1409  1  0.96921450  0.90853000  0.90150050  1
  C  1411  1  0.41875700  0.51902200  0.02530200  1
  C  1412  1  0.43425300  0.53676600  0.05358800  1
  C  1413  1  0.45627300  0.56248600  0.06519000  1
  C  1414  1  0.46552750  0.57003600  0.04896850  1
  C  1415  1  0.44954050  0.55317850  0.02035600  1
  C  1418  1  0.42540750  0.52823200  0.00836250  1
  C  1425  1  0.40055600  0.49197750  0.01612750  1
  C  1427  1  0.49210850  0.59147950  0.06157200  1
  C  1429  1  0.07951100  0.60562200  0.59935600  1
  C  1430  1  0.06400350  0.61840100  0.60159550  1
  C  1431  1  0.04196050  0.60794550  0.60525400  1
  C  1432  1  0.03273800  0.58249150  0.60359350  1
  C  1433  1  0.04872200  0.56986850  0.60271250  1
  C  1436  1  0.07283400  0.58200250  0.60186650  1
  C  1443  1  0.09772900  0.61467450  0.59053850  1
  C  1445  1  0.00615550  0.56852850  0.59845500  1
  C  1447  1  0.49281950  0.89440150  0.47470400  1
  C  1448  1  0.48229800  0.88158800  0.44642300  1
  C  1449  1  0.49638950  0.89208500  0.43484450  1
  C  1450  1  0.52021450  0.91751000  0.45107450  1
  C  1451  1  0.53195400  0.93013150  0.47968350  1
  C  1454  1  0.51896250  0.91800950  0.49166300  1
  C  1461  1  0.47497350  0.88530350  0.48387800  1
  C  1463  1  0.52912100  0.93146300  0.43848000  1
  C  1465  1  0.60479150  0.08035900  0.09932850  1
  C  1466  1  0.61759450  0.06487650  0.10158500  1
  C  1467  1  0.60709500  0.04279450  0.10516950  1
  C  1468  1  0.58166750  0.03358450  0.10356800  1
  C  1469  1  0.56904400  0.04957200  0.10268300  1
  C  1472  1  0.58118300  0.07370000  0.10185600  1
  C  1479  1  0.61387050  0.09860650  0.09054800  1
  C  1481  1  0.56771400  0.00702950  0.09849850  1
  C  1483  1  0.89345450  0.49372050  0.97469800  1
  C  1484  1  0.88066500  0.48317750  0.94641150  1
  C  1485  1  0.89108250  0.49729550  0.93481000  1
  C  1486  1  0.91656000  0.52106900  0.95103200  1
  C  1487  1  0.92918500  0.53282400  0.97964400  1
  C  1490  1  0.91704550  0.51986900  0.99163750  1
  C  1497  1  0.88442750  0.47584900  0.98387150  1
  C  1499  1  0.93053550  0.52990700  0.93842750  1
  C  1501  1  0.98015450  0.00626550  0.40064300  1
  C  1502  1  0.96240850  0.01680550  0.39840400  1
  C  1503  1  0.93670650  0.00269250  0.39474600  1
  C  1504  1  0.92914400  0.97889800  0.39640700  1
  C  1505  1  0.94601000  0.96715700  0.39728800  1
  C  1508  1  0.97096700  0.98013500  0.39813300  1
  C  1515  1  0.00718950  0.02413550  0.40946100  1
  C  1517  1  0.90770050  0.97007350  0.40154600  1
  C  1519  1  0.51811600  0.41969750  0.52529650  1
  C  1520  1  0.53587550  0.43516600  0.55357850  1
  C  1521  1  0.56154550  0.45724000  0.56515650  1
  C  1522  1  0.56914100  0.46643600  0.54892600  1
  C  1523  1  0.55227150  0.45044850  0.52031700  1
  C  1526  1  0.52730000  0.42634650  0.50833750  1
  C  1533  1  0.49109550  0.40142450  0.51612200  1
  C  1535  1  0.59064150  0.49298250  0.56152000  1
  C  1537  1  0.52443250  0.01896950  0.91964100  1
  C  1538  1  0.55271800  0.03670850  0.93512350  1
  C  1539  1  0.56430000  0.06237500  0.95720500  1
  C  1540  1  0.54808300  0.06998350  0.96641550  1
  C  1541  1  0.51947200  0.05311000  0.95042700  1
  C  1544  1  0.50748300  0.02815600  0.92630000  1
  C  1551  1  0.51526400  0.99194150  0.90139350  1
  C  1553  1  0.56068450  0.09146900  0.99297050  1
  C  1555  1  0.39973400  0.48097750  0.50627950  1
  C  1556  1  0.39748750  0.46323350  0.51682200  1
  C  1557  1  0.39378700  0.43751450  0.50270450  1
  C  1558  1  0.39549200  0.42996400  0.47893300  1
  C  1559  1  0.39636050  0.44682050  0.46717700  1
  C  1562  1  0.39717650  0.47176800  0.48013050  1
  C  1569  1  0.40857850  0.50802150  0.52415000  1
  C  1571  1  0.40062850  0.40852050  0.47009300  1
  C  1573  1  0.97388900  0.39437750  0.99373450  1
  C  1574  1  0.94560300  0.38159850  0.98319450  1
  C  1575  1  0.93401400  0.39205350  0.99730750  1
  C  1576  1  0.95024550  0.41750900  0.02110150  1
  C  1577  1  0.97885300  0.43013100  0.03284300  1
  C  1580  1  0.99083200  0.41799800  0.01986500  1
  C  1587  1  0.98305450  0.38532650  0.97586400  1
  C  1589  1  0.93762700  0.43147250  0.02992650  1
  C  1591  1  0.09841850  0.10559900  0.58030250  1
  C  1592  1  0.10070950  0.11841250  0.56483400  1
  C  1593  1  0.10430550  0.10791650  0.54276000  1
  C  1594  1  0.10270500  0.08249000  0.53356400  1
  C  1595  1  0.10182300  0.06986850  0.54955150  1
  C  1598  1  0.10095350  0.08199100  0.57365350  1
  C  1605  1  0.08967050  0.11469750  0.59857500  1
  C  1607  1  0.09765900  0.06853750  0.50701750  1
  C  1609  1  0.50546300  0.90067150  0.98103050  1
  C  1610  1  0.51600950  0.89841500  0.96329150  1
  C  1611  1  0.50192550  0.89483050  0.93762500  1
  C  1612  1  0.47809950  0.89643200  0.93001650  1
  C  1613  1  0.46636200  0.89731700  0.94689000  1
  C  1616  1  0.47932700  0.89814400  0.97184400  1
  C  1623  1  0.52332250  0.90945200  0.00805850  1
  C  1625  1  0.46921550  0.90150150  0.90853100  1
  C  1627  1  0.91875650  0.02530200  0.51902250  1
  C  1628  1  0.93425400  0.05358850  0.53676650  1
  C  1629  1  0.95627250  0.06519000  0.56248550  1
  C  1630  1  0.96552800  0.04896900  0.57003600  1
  C  1631  1  0.94954100  0.02035650  0.55318050  1
  C  1634  1  0.92540850  0.00836250  0.52823200  1
  C  1641  1  0.90055700  0.01612850  0.49197850  1
  C  1643  1  0.99210800  0.06157250  0.59147950  1
  C  1645  1  0.57951150  0.59935700  0.60562250  1
  C  1646  1  0.56400450  0.60159600  0.61840150  1
  C  1647  1  0.54196050  0.60525400  0.60794650  1
  C  1648  1  0.53273700  0.60359300  0.58249100  1
  C  1649  1  0.54872200  0.60271200  0.56986900  1
  C  1652  1  0.57283400  0.60186700  0.58200200  1
  C  1659  1  0.59772800  0.59053850  0.61467450  1
  C  1661  1  0.50615450  0.59845500  0.56852850  1
  C  1663  1  0.99281950  0.47470350  0.89440100  1
  C  1664  1  0.98229700  0.44642150  0.88158750  1
  C  1665  1  0.99639100  0.43484450  0.89208450  1
  C  1666  1  0.02021350  0.45107350  0.91750900  1
  C  1667  1  0.03195450  0.47968350  0.93013200  1
  C  1670  1  0.01896300  0.49166300  0.91800900  1
  C  1677  1  0.97497350  0.48387800  0.88530250  1
  C  1679  1  0.02912150  0.43848000  0.93146250  1
  C  2113  1  0.10214150  0.05836300  0.26746250  1
  C  2114  1  0.12129750  0.05416600  0.28382050  1
  C  2115  1  0.11912100  0.04944150  0.30425250  1
  C  2116  1  0.09769450  0.04873850  0.30898800  1
  C  2117  1  0.07759500  0.05195200  0.29219200  1
  C  2120  1  0.07985100  0.05682950  0.27125750  1
  C  2127  1  0.10584450  0.06370050  0.24802600  1
  C  2129  1  0.09678900  0.04413000  0.32964600  1
  C  2131  1  0.39636200  0.16456250  0.45541550  1
  C  2132  1  0.37721550  0.16172500  0.43202850  1
  C  2133  1  0.37935400  0.18431550  0.42945750  1
  C  2134  1  0.40073450  0.21049550  0.45018800  1
  C  2135  1  0.42083350  0.21383850  0.47353100  1
  C  2138  1  0.41861350  0.19066800  0.47617750  1
  C  2145  1  0.39267250  0.14144500  0.45709050  1
  C  2147  1  0.40159250  0.23204350  0.44647600  1
  C  2149  1  0.70829150  0.44164650  0.04464300  1
  C  2150  1  0.72879950  0.44577800  0.06798750  1
  C  2151  1  0.75397750  0.45052650  0.07058800  1
  C  2152  1  0.75949250  0.45132450  0.04992900  1
  C  2153  1  0.73953150  0.44817850  0.02662800  1
  C  2156  1  0.71369900  0.44327800  0.02395400  1
  C  2163  1  0.68349850  0.43629850  0.04296400  1
  C  2165  1  0.78479350  0.45599200  0.05370950  1
  C  2167  1  0.79005550  0.33552000  0.23255350  1
  C  2168  1  0.76949800  0.33831950  0.21619850  1
  C  2169  1  0.74434700  0.31570950  0.19575550  1
  C  2170  1  0.73891500  0.28954500  0.19100500  1
  C  2171  1  0.75892750  0.28624000  0.20779550  1
  C  2174  1  0.78473100  0.30943150  0.22874350  1
  C  2181  1  0.81482800  0.35865750  0.25199050  1
  C  2183  1  0.71366050  0.26797750  0.17033200  1
  C  2185  1  0.83467950  0.73253800  0.79090050  1
  C  2186  1  0.83747700  0.71617950  0.77034550  1
  C  2187  1  0.81486850  0.69574750  0.74518900  1
  C  2188  1  0.78870650  0.69101200  0.73975050  1
  C  2189  1  0.78540300  0.70780800  0.75976000  1
  C  2192  1  0.80859250  0.72874150  0.78557000  1
  C  2199  1  0.85781850  0.75197400  0.81567450  1
  C  2201  1  0.76714200  0.67035400  0.71448300  1
  C  2203  1  0.94094700  0.54458450  0.70914750  1
  C  2204  1  0.94518700  0.56797150  0.72969650  1
  C  2205  1  0.94989750  0.57054350  0.75485800  1
  C  2206  1  0.95054650  0.54981200  0.76030750  1
  C  2207  1  0.94730200  0.52646900  0.74030700  1
  C  2210  1  0.94243700  0.52382300  0.71449100  1
  C  2217  1  0.93558200  0.54290950  0.68435450  1
  C  2219  1  0.95511700  0.55352550  0.78556850  1
  C  2221  1  0.66364850  0.95535700  0.39700350  1
  C  2222  1  0.66081250  0.93201250  0.37779100  1
  C  2223  1  0.68339050  0.92941300  0.37993850  1
  C  2224  1  0.70956300  0.95007100  0.40139500  1
  C  2225  1  0.71290350  0.97337200  0.42155050  1
  C  2228  1  0.68974500  0.97604600  0.41932400  1
  C  2235  1  0.64053450  0.95703600  0.39333450  1
  C  2237  1  0.73108450  0.94629100  0.40228250  1
  C  2239  1  0.55750150  0.76744650  0.10296600  1
  C  2240  1  0.55330100  0.78380100  0.12212100  1
  C  2241  1  0.54859200  0.80424500  0.11995400  1
  C  2242  1  0.54790950  0.80899450  0.09854000  1
  C  2243  1  0.55113200  0.79220500  0.07844400  1
  C  2246  1  0.55598650  0.77125550  0.08068600  1
  C  2253  1  0.56283800  0.74800950  0.10666750  1
  C  2255  1  0.54332850  0.82966850  0.09764500  1
  C  2257  1  0.04377850  0.20909950  0.94163700  1
  C  2258  1  0.06713150  0.22965450  0.94583400  1
  C  2259  1  0.06967950  0.25481100  0.95055850  1
  C  2260  1  0.04895600  0.26024950  0.95126150  1
  C  2261  1  0.02564200  0.24023900  0.94804800  1
  C  2264  1  0.02302150  0.21442800  0.94317050  1
  C  2271  1  0.04214400  0.18432550  0.93629950  1
  C  2273  1  0.05265950  0.28551600  0.95587050  1
  C  2275  1  0.23179950  0.29085250  0.83543700  1
  C  2276  1  0.21549050  0.27030350  0.83827500  1
  C  2277  1  0.19503950  0.24514200  0.81568550  1
  C  2278  1  0.19023900  0.23969250  0.78950450  1
  C  2279  1  0.20699500  0.25969300  0.78616200  1
  C  2282  1  0.22794550  0.28550950  0.80933200  1
  C  2289  1  0.25122750  0.31564500  0.85855450  1
  C  2291  1  0.16954800  0.21443150  0.76795650  1
  C  2293  1  0.26664550  0.60299700  0.55835350  1
  C  2294  1  0.28302150  0.62220900  0.55422150  1
  C  2295  1  0.30345050  0.62006100  0.54947350  1
  C  2296  1  0.30816800  0.59860450  0.54867650  1
  C  2297  1  0.29135350  0.57845000  0.55182150  1
  C  2300  1  0.27042000  0.58067500  0.55672200  1
  C  2307  1  0.24720000  0.60666550  0.56370150  1
  C  2309  1  0.32880250  0.59771850  0.54400800  1
  C  2311  1  0.45453550  0.89703350  0.66448000  1
  C  2312  1  0.43117850  0.87787900  0.66168050  1
  C  2313  1  0.42863750  0.88004600  0.68429050  1
  C  2314  1  0.44937000  0.90146000  0.71045500  1
  C  2315  1  0.47268750  0.92155550  0.71376000  1
  C  2318  1  0.47529950  0.91931200  0.69056850  1
  C  2325  1  0.45617050  0.89333300  0.64134250  1
  C  2327  1  0.44568300  0.90235450  0.73202250  1
  C  2329  1  0.60214150  0.26746150  0.05836300  1
  C  2330  1  0.62129800  0.28382100  0.05416600  1
  C  2331  1  0.61912100  0.30425150  0.04944150  1
  C  2332  1  0.59769450  0.30898900  0.04873850  1
  C  2333  1  0.57759550  0.29219150  0.05195200  1
  C  2336  1  0.57985150  0.27125900  0.05682950  1
  C  2343  1  0.60584350  0.24802500  0.06369950  1
  C  2345  1  0.59678850  0.32964600  0.04412950  1
  C  2347  1  0.89636250  0.45541550  0.16456200  1
  C  2348  1  0.87721550  0.43202750  0.16172500  1
  C  2349  1  0.87935400  0.42945650  0.18431550  1
  C  2350  1  0.90073500  0.45018800  0.21049600  1
  C  2351  1  0.92083400  0.47353100  0.21383800  1
  C  2354  1  0.91861450  0.47617800  0.19066850  1
  C  2361  1  0.89267200  0.45709050  0.14144550  1
  C  2363  1  0.90159150  0.44647600  0.23204350  1
  C  2365  1  0.20829250  0.04464300  0.44164650  1
  C  2366  1  0.22879950  0.06798750  0.44577900  1
  C  2367  1  0.25397850  0.07058800  0.45052650  1
  C  2368  1  0.25949200  0.04992950  0.45132350  1
  C  2369  1  0.23953200  0.02662800  0.44817900  1
  C  2372  1  0.21369900  0.02395400  0.44327800  1
  C  2379  1  0.18349800  0.04296300  0.43629800  1
  C  2381  1  0.28479350  0.05370950  0.45599100  1
  C  2383  1  0.29005400  0.23255350  0.33551950  1
  C  2384  1  0.26949900  0.21619800  0.33831900  1
  C  2385  1  0.24434700  0.19575450  0.31570950  1
  C  2386  1  0.23891600  0.19100550  0.28954550  1
  C  2387  1  0.25892750  0.20779550  0.28623900  1
  C  2390  1  0.28473050  0.22874350  0.30943000  1
  C  2397  1  0.31482850  0.25199050  0.35865700  1
  C  2399  1  0.21365900  0.17033150  0.26797650  1
  C  2401  1  0.33468000  0.79090150  0.73253850  1
  C  2402  1  0.33747700  0.77034500  0.71617900  1
  C  2403  1  0.31486900  0.74518900  0.69574700  1
  C  2404  1  0.28870550  0.73974950  0.69101100  1
  C  2405  1  0.28540350  0.75976050  0.70780800  1
  C  2408  1  0.30859250  0.78557150  0.72874200  1
  C  2415  1  0.35781850  0.81567450  0.75197500  1
  C  2417  1  0.26714200  0.71448350  0.67035350  1
  C  2419  1  0.44094700  0.70914650  0.54458450  1
  C  2420  1  0.44518700  0.72969700  0.56797100  1
  C  2421  1  0.44989750  0.75485800  0.57054250  1
  C  2422  1  0.45054600  0.76030750  0.54981150  1
  C  2423  1  0.44730200  0.74030700  0.52646800  1
  C  2426  1  0.44243650  0.71449050  0.52382200  1
  C  2433  1  0.43558150  0.68435400  0.54290850  1
  C  2435  1  0.45511600  0.78556750  0.55352450  1
  C  2437  1  0.16364950  0.39700350  0.95535700  1
  C  2438  1  0.16081200  0.37779100  0.93201200  1
  C  2439  1  0.18338950  0.37993800  0.92941250  1
  C  2440  1  0.20956250  0.40139450  0.95007100  1
  C  2441  1  0.21290400  0.42155100  0.97337200  1
  C  2444  1  0.18974450  0.41932500  0.97604650  1
  C  2451  1  0.14053500  0.39333400  0.95703600  1
  C  2453  1  0.23108400  0.40228150  0.94629050  1
  C  2455  1  0.05750050  0.10296600  0.76744650  1
  C  2456  1  0.05330050  0.12212100  0.78380150  1
  C  2457  1  0.04859250  0.11995500  0.80424550  1
  C  2458  1  0.04791050  0.09854000  0.80899450  1
  C  2459  1  0.05113150  0.07844300  0.79220450  1
  C  2462  1  0.05598700  0.08068650  0.77125650  1
  C  2469  1  0.06283800  0.10666700  0.74801000  1
  C  2471  1  0.04332750  0.09764500  0.82966850  1
  C  2473  1  0.54377850  0.94163700  0.20909850  1
  C  2474  1  0.56713200  0.94583400  0.22965500  1
  C  2475  1  0.56968000  0.95055800  0.25481100  1
  C  2476  1  0.54895600  0.95126150  0.26025050  1
  C  2477  1  0.52564200  0.94804750  0.24023850  1
  C  2480  1  0.52302100  0.94317050  0.21442850  1
  C  2487  1  0.54214400  0.93630050  0.18432550  1
  C  2489  1  0.55265850  0.95587000  0.28551650  1
  C  2491  1  0.73180050  0.83543800  0.29085350  1
  C  2492  1  0.71548950  0.83827500  0.27030350  1
  C  2493  1  0.69503850  0.81568550  0.24514200  1
  C  2494  1  0.69023800  0.78950350  0.23969150  1
  C  2495  1  0.70699400  0.78616100  0.25969200  1
  C  2498  1  0.72794600  0.80933150  0.28550950  1
  C  2505  1  0.75122650  0.85855450  0.31564500  1
  C  2507  1  0.66954800  0.76795550  0.21443150  1
  C  2509  1  0.76664600  0.55835350  0.60299650  1
  C  2510  1  0.78302100  0.55422100  0.62220900  1
  C  2511  1  0.80345150  0.54947450  0.62006200  1
  C  2512  1  0.80816800  0.54867600  0.59860500  1
  C  2513  1  0.79135300  0.55182100  0.57844900  1
  C  2516  1  0.77042050  0.55672150  0.58067600  1
  C  2523  1  0.74720000  0.56370200  0.60666500  1
  C  2525  1  0.82880250  0.54400800  0.59771750  1
  C  2527  1  0.95453550  0.66448100  0.89703350  1
  C  2528  1  0.93118000  0.66168100  0.87787900  1
  C  2529  1  0.92863800  0.68429100  0.88004500  1
  C  2530  1  0.94937050  0.71045500  0.90146050  1
  C  2531  1  0.97268900  0.71376150  0.92155650  1
  C  2534  1  0.97530050  0.69057000  0.91931350  1
  C  2541  1  0.95617100  0.64134300  0.89333300  1
  C  2543  1  0.94568250  0.73202300  0.90235450  1
  H  7  1  0.10905350  0.06340050  0.20196300  1
  H  8  1  0.17482550  0.12337100  0.27907750  1
  H  15  1  0.08838000  0.04188250  0.09597450  1
  H  16  1  0.13187700  0.11093150  0.17213250  1
  H  19  1  0.17910700  0.10954750  0.18862050  1
  H  20  1  0.20413100  0.13366700  0.21914500  1
  H  21  1  0.11758500  0.01273450  0.15627550  1
  H  22  1  0.13735100  0.04003700  0.18643500  1
  H  33  1  0.38941000  0.09215450  0.45360550  1
  H  34  1  0.32373400  0.10364200  0.44790800  1
  H  41  1  0.40988400  0.00669600  0.45263500  1
  H  42  1  0.36651250  0.03947550  0.47830000  1
  H  45  1  0.31929500  0.00883000  0.42984200  1
  H  46  1  0.29432650  0.01439550  0.42900000  1
  H  47  1  0.38069700  0.03782000  0.39433600  1
  H  48  1  0.36099350  0.04829300  0.40192150  1
  H  59  1  0.63771350  0.43659050  0.04645000  1
  H  60  1  0.65484850  0.37661100  0.05223750  1
  H  67  1  0.55324500  0.45811850  0.04733250  1
  H  68  1  0.56034750  0.38906000  0.02173550  1
  H  71  1  0.57817300  0.39039300  0.07029500  1
  H  72  1  0.58455100  0.36625900  0.07118100  1
  H  73  1  0.64260850  0.48718550  0.10574100  1
  H  74  1  0.64545400  0.45986850  0.09816050  1
  H  85  1  0.86058950  0.40794050  0.29804600  1
  H  86  1  0.84349700  0.39652300  0.22091900  1
  H  93  1  0.94503800  0.49327350  0.40402850  1
  H  94  1  0.93794350  0.46057050  0.32787500  1
  H  97  1  0.92006600  0.49131200  0.31134000  1
  H  98  1  0.91368150  0.48578150  0.28081400  1
  H  99  1  0.85558550  0.46213500  0.34367650  1
  H  100  1  0.85274250  0.45172950  0.31352300  1
  H  111  1  0.90709100  0.79803700  0.86143800  1
  H  112  1  0.89574800  0.72092200  0.84429300  1
  H  119  1  0.99240550  0.90402550  0.94590800  1
  H  120  1  0.95974450  0.82786750  0.93879900  1
  H  123  1  0.99048700  0.81137900  0.92092700  1
  H  124  1  0.98498500  0.78085400  0.91452200  1
  H  125  1  0.96130950  0.84372450  0.85645900  1
  H  126  1  0.95091600  0.81356500  0.85360200  1
  H  137  1  0.93580350  0.54639450  0.63854800  1
  H  138  1  0.87582600  0.55209200  0.65573400  1
  H  145  1  0.95724950  0.54736500  0.55406150  1
  H  146  1  0.88821250  0.52170100  0.56117650  1
  H  149  1  0.88945300  0.57015800  0.57898800  1
  H  150  1  0.86532600  0.57100000  0.58539500  1
  H  151  1  0.98636200  0.60566500  0.64348400  1
  H  152  1  0.95907100  0.59807750  0.64637150  1
  H  163  1  0.59126450  0.95355100  0.39014050  1
  H  164  1  0.60261050  0.94776100  0.32437250  1
  H  171  1  0.50591250  0.95266750  0.41078600  1
  H  172  1  0.53861200  0.97826450  0.36732450  1
  H  175  1  0.50787700  0.92970450  0.32009750  1
  H  176  1  0.51336900  0.92881900  0.29507700  1
  H  177  1  0.53686700  0.89425900  0.38144400  1
  H  178  1  0.54729300  0.90183900  0.36170800  1
  H  189  1  0.56254350  0.70195350  0.10989500  1
  H  190  1  0.62257850  0.77908100  0.17560450  1
  H  197  1  0.54100900  0.59597150  0.08924450  1
  H  198  1  0.61006850  0.67212500  0.13269550  1
  H  201  1  0.60872550  0.68865950  0.17997100  1
  H  202  1  0.63286700  0.71918600  0.20496700  1
  H  203  1  0.51190900  0.65632300  0.11845800  1
  H  204  1  0.53921900  0.68647650  0.13820650  1
  H  215  1  0.04565300  0.13856250  0.93659950  1
  H  216  1  0.05145450  0.15570650  0.87662900  1
  H  223  1  0.04649750  0.05409200  0.95811750  1
  H  224  1  0.02094550  0.06120100  0.88906850  1
  H  227  1  0.06955950  0.07907250  0.89045200  1
  H  228  1  0.07046400  0.08547800  0.86633300  1
  H  229  1  0.10485050  0.14354100  0.98726550  1
  H  230  1  0.09731400  0.14639800  0.95996300  1
  H  241  1  0.29725550  0.36145200  0.90784650  1
  H  242  1  0.22009200  0.34426600  0.89635800  1
  H  249  1  0.40318800  0.44593900  0.99330400  1
  H  250  1  0.32703600  0.43882350  0.96052450  1
  H  253  1  0.31046450  0.42101150  0.99117000  1
  H  254  1  0.27993200  0.41460600  0.98560500  1
  H  255  1  0.34287750  0.35651550  0.96218100  1
  H  256  1  0.31270050  0.35362850  0.95170700  1
  H  267  1  0.20112400  0.60985950  0.56341050  1
  H  268  1  0.27823700  0.67562650  0.62338850  1
  H  275  1  0.09512600  0.58921400  0.54188100  1
  H  276  1  0.17128700  0.63267550  0.61093950  1
  H  279  1  0.18777950  0.67990250  0.60960700  1
  H  280  1  0.21829200  0.70492300  0.63374200  1
  H  281  1  0.15542350  0.61855650  0.51281500  1
  H  282  1  0.18558550  0.63829200  0.54013150  1
  H  293  1  0.45264850  0.89010550  0.59205900  1
  H  294  1  0.44697450  0.82439600  0.60347750  1
  H  301  1  0.45176450  0.91075500  0.50672650  1
  H  302  1  0.47737300  0.86730450  0.53942950  1
  H  305  1  0.42875400  0.82002800  0.50868800  1
  H  306  1  0.42790050  0.79503300  0.51421850  1
  H  307  1  0.39345100  0.88154200  0.53786500  1
  H  308  1  0.40101300  0.86179350  0.54827050  1
  H  319  1  0.60905300  0.20196350  0.06340050  1
  H  320  1  0.67482650  0.27907900  0.12337150  1
  H  327  1  0.58838000  0.09597550  0.04188250  1
  H  328  1  0.63187750  0.17213300  0.11093150  1
  H  331  1  0.67910850  0.18862150  0.10954800  1
  H  332  1  0.70413050  0.21914550  0.13366700  1
  H  333  1  0.61758600  0.15627600  0.01273500  1
  H  334  1  0.63735050  0.18643450  0.04003700  1
  H  345  1  0.88940900  0.45360450  0.09215350  1
  H  346  1  0.82373450  0.44790850  0.10364300  1
  H  353  1  0.90988400  0.45263600  0.00669600  1
  H  354  1  0.86651150  0.47829950  0.03947500  1
  H  357  1  0.81929500  0.42984150  0.00883050  1
  H  358  1  0.79432600  0.42899950  0.01439450  1
  H  359  1  0.88069600  0.39433500  0.03781900  1
  H  360  1  0.86099350  0.40192100  0.04829350  1
  H  371  1  0.13771300  0.04644950  0.43658950  1
  H  372  1  0.15484800  0.05223800  0.37661100  1
  H  379  1  0.05324450  0.04733250  0.45811900  1
  H  380  1  0.06034700  0.02173550  0.38905950  1
  H  383  1  0.07817250  0.07029550  0.39039200  1
  H  384  1  0.08455000  0.07118150  0.36625850  1
  H  385  1  0.14260900  0.10574100  0.48718500  1
  H  386  1  0.14545500  0.09816100  0.45986900  1
  H  397  1  0.36059050  0.29804650  0.40794100  1
  H  398  1  0.34349750  0.22091900  0.39652350  1
  H  405  1  0.44503850  0.40402850  0.49327400  1
  H  406  1  0.43794350  0.32787400  0.46057050  1
  H  409  1  0.42006700  0.31134000  0.49131200  1
  H  410  1  0.41368150  0.28081400  0.48578150  1
  H  411  1  0.35558550  0.34367550  0.46213500  1
  H  412  1  0.35274350  0.31352450  0.45173100  1
  H  423  1  0.40708950  0.86143700  0.79803650  1
  H  424  1  0.39574750  0.84429250  0.72092100  1
  H  431  1  0.49240450  0.94590700  0.90402450  1
  H  432  1  0.45974450  0.93879850  0.82786700  1
  H  435  1  0.49048700  0.92092650  0.81137850  1
  H  436  1  0.48498500  0.91452150  0.78085450  1
  H  437  1  0.46131000  0.85645900  0.84372400  1
  H  438  1  0.45091600  0.85360250  0.81356550  1
  H  449  1  0.43580350  0.63854900  0.54639450  1
  H  450  1  0.37582600  0.65573450  0.55209150  1
  H  457  1  0.45724800  0.55406000  0.54736400  1
  H  458  1  0.38821200  0.56117600  0.52170100  1
  H  461  1  0.38945300  0.57898850  0.57015850  1
  H  462  1  0.36532600  0.58539450  0.57099950  1
  H  463  1  0.48636100  0.64348400  0.60566500  1
  H  464  1  0.45907250  0.64637300  0.59807950  1
  H  475  1  0.09126350  0.39014000  0.95355050  1
  H  476  1  0.10261000  0.32437300  0.94776200  1
  H  483  1  0.00591200  0.41078650  0.95266750  1
  H  484  1  0.03861200  0.36732500  0.97826400  1
  H  487  1  0.00787800  0.32009650  0.92970550  1
  H  488  1  0.01336850  0.29507700  0.92881850  1
  H  489  1  0.03686850  0.38144450  0.89425900  1
  H  490  1  0.04729400  0.36170800  0.90183900  1
  H  501  1  0.06254400  0.10989450  0.70195350  1
  H  502  1  0.12257850  0.17560450  0.77908100  1
  H  509  1  0.04101000  0.08924550  0.59597150  1
  H  510  1  0.11006950  0.13269650  0.67212600  1
  H  513  1  0.10872700  0.17997200  0.68866000  1
  H  514  1  0.13286800  0.20496750  0.71918650  1
  H  515  1  0.01191000  0.11845950  0.65632450  1
  H  516  1  0.03921900  0.13820650  0.68647550  1
  H  527  1  0.54565250  0.93659950  0.13856300  1
  H  528  1  0.55145450  0.87662850  0.15570700  1
  H  535  1  0.54649750  0.95811750  0.05409300  1
  H  536  1  0.52094600  0.88906850  0.06120150  1
  H  539  1  0.56956050  0.89045200  0.07907350  1
  H  540  1  0.57046350  0.86633300  0.08547850  1
  H  541  1  0.60485100  0.98726500  0.14354100  1
  H  542  1  0.59731350  0.95996300  0.14639750  1
  H  553  1  0.79725550  0.90784650  0.36145100  1
  H  554  1  0.72009150  0.89635700  0.34426550  1
  H  561  1  0.90318800  0.99330400  0.44594000  1
  H  562  1  0.82703600  0.96052500  0.43882400  1
  H  565  1  0.81046350  0.99116850  0.42101100  1
  H  566  1  0.77993150  0.98560550  0.41460500  1
  H  567  1  0.84287700  0.96218100  0.35651600  1
  H  568  1  0.81269950  0.95170650  0.35362700  1
  H  579  1  0.70112300  0.56341050  0.60985950  1
  H  580  1  0.77823800  0.62338900  0.67562800  1
  H  587  1  0.59512550  0.54188100  0.58921350  1
  H  588  1  0.67128700  0.61094050  0.63267550  1
  H  591  1  0.68778050  0.60960700  0.67990250  1
  H  592  1  0.71829050  0.63374150  0.70492200  1
  H  593  1  0.65542350  0.51281450  0.61855600  1
  H  594  1  0.68558600  0.54013100  0.63829200  1
  H  605  1  0.95264950  0.59205900  0.89010550  1
  H  606  1  0.94697400  0.60347650  0.82439550  1
  H  613  1  0.95176450  0.50672650  0.91075500  1
  H  614  1  0.97737300  0.53942850  0.86730450  1
  H  617  1  0.92875400  0.50868900  0.82002800  1
  H  618  1  0.92790100  0.51421950  0.79503350  1
  H  619  1  0.89344950  0.53786400  0.88154050  1
  H  620  1  0.90101300  0.54826950  0.86179350  1
  H  1254  1  0.11635300  0.10499300  0.03140300  1
  H  1255  1  0.13462550  0.09993550  0.06911300  1
  H  1264  1  0.12419750  0.08055400  0.09528450  1
  H  1266  1  0.04705450  0.08923950  0.99754100  1
  H  1272  1  0.38192450  0.91416500  0.48776650  1
  H  1273  1  0.36368300  0.93361600  0.46445800  1
  H  1282  1  0.37412100  0.97022200  0.45553000  1
  H  1284  1  0.45119800  0.94959900  0.54127100  1
  H  1290  1  0.42560100  0.39508500  0.01223500  1
  H  1291  1  0.46831750  0.40012050  0.03551500  1
  H  1300  1  0.51385700  0.41946700  0.04445400  1
  H  1302  1  0.40750100  0.41084200  0.95870800  1
  H  1308  1  0.07276900  0.58580400  0.46863100  1
  H  1309  1  0.02999300  0.56637500  0.43093300  1
  H  1318  1  0.98442950  0.52977700  0.40473650  1
  H  1320  1  0.09086900  0.55034700  0.50246800  1
  H  1326  1  0.08495000  0.96859700  0.07359000  1
  H  1327  1  0.06551250  0.93088700  0.03082250  1
  H  1336  1  0.02891300  0.90471550  0.98526950  1
  H  1338  1  0.04951300  0.00245850  0.09169850  1
  H  1344  1  0.89415800  0.51223350  0.42639850  1
  H  1345  1  0.89922600  0.53554200  0.46915900  1
  H  1354  1  0.91859100  0.54447100  0.51469300  1
  H  1356  1  0.90992700  0.45872900  0.40832800  1
  H  1362  1  0.41336500  0.98776550  0.38284950  1
  H  1363  1  0.43280250  0.96448500  0.36460550  1
  H  1372  1  0.46940250  0.95554550  0.37501300  1
  H  1374  1  0.44879300  0.04129200  0.45213400  1
  H  1380  1  0.60413800  0.53136900  0.11717300  1
  H  1381  1  0.59906100  0.56906750  0.13544250  1
  H  1390  1  0.57969350  0.59526400  0.12504050  1
  H  1392  1  0.58840100  0.49753200  0.04787900  1
  H  1398  1  0.01136000  0.92641000  0.89500700  1
  H  1399  1  0.03469000  0.96917750  0.90006450  1
  H  1408  1  0.04364300  0.01473000  0.91944600  1
  H  1410  1  0.95781500  0.90830150  0.91076050  1
  H  1416  1  0.46775950  0.57360150  0.08583500  1
  H  1417  1  0.43006800  0.53084200  0.06638300  1
  H  1426  1  0.40389800  0.48530700  0.02977800  1
  H  1428  1  0.50159900  0.59167200  0.05040100  1
  H  1434  1  0.03051600  0.61715100  0.60491600  1
  H  1435  1  0.06819700  0.63539450  0.59987950  1
  H  1444  1  0.09438950  0.62498700  0.58053250  1
  H  1446  1  0.99665800  0.54786600  0.58915700  1
  H  1452  1  0.48696500  0.88282700  0.41419600  1
  H  1453  1  0.46361800  0.86455750  0.43362450  1
  H  1462  1  0.45465250  0.87495950  0.47022300  1
  H  1464  1  0.54052200  0.95212100  0.44965300  1
  H  1470  1  0.61635350  0.03140300  0.10499350  1
  H  1471  1  0.63462550  0.06911200  0.09993550  1
  H  1480  1  0.62419700  0.09528350  0.08055450  1
  H  1482  1  0.54705450  0.99754200  0.08923950  1
  H  1488  1  0.88192400  0.48776600  0.91416500  1
  H  1489  1  0.86368350  0.46445850  0.93361600  1
  H  1498  1  0.87412150  0.45552950  0.97022200  1
  H  1500  1  0.95119800  0.54127000  0.94959900  1
  H  1506  1  0.92560000  0.01223450  0.39508350  1
  H  1507  1  0.96831750  0.03551400  0.40012050  1
  H  1516  1  0.01385700  0.04445500  0.41946700  1
  H  1518  1  0.90750100  0.95870850  0.41084250  1
  H  1524  1  0.57276900  0.46863000  0.58580400  1
  H  1525  1  0.52999300  0.43093300  0.56637500  1
  H  1534  1  0.48443000  0.40473550  0.52977650  1
  H  1536  1  0.59086900  0.50246900  0.55034700  1
  H  1542  1  0.58495050  0.07359050  0.96859700  1
  H  1543  1  0.56551400  0.03082350  0.93088750  1
  H  1552  1  0.52891350  0.98527050  0.90471600  1
  H  1554  1  0.54951250  0.09169750  0.00245800  1
  H  1560  1  0.39415800  0.42639900  0.51223400  1
  H  1561  1  0.39922550  0.46915850  0.53554100  1
  H  1570  1  0.41859200  0.51469350  0.54447150  1
  H  1572  1  0.40992800  0.40832800  0.45872900  1
  H  1578  1  0.91336550  0.38284900  0.98776550  1
  H  1579  1  0.93280350  0.36460650  0.96448600  1
  H  1588  1  0.96940150  0.37501150  0.95554500  1
  H  1590  1  0.94879250  0.45213400  0.04129150  1
  H  1596  1  0.10413900  0.11717400  0.53137000  1
  H  1597  1  0.09906000  0.13544200  0.56906700  1
  H  1606  1  0.07969450  0.12504100  0.59526450  1
  H  1608  1  0.08840000  0.04787800  0.49753100  1
  H  1614  1  0.51136000  0.89500650  0.92640950  1
  H  1615  1  0.53469000  0.90006400  0.96917600  1
  H  1624  1  0.54364250  0.91944550  0.01472900  1
  H  1626  1  0.45781450  0.91076000  0.90830250  1
  H  1632  1  0.96775950  0.08583550  0.57360100  1
  H  1633  1  0.93006700  0.06638350  0.53084250  1
  H  1642  1  0.90389850  0.02977800  0.48530650  1
  H  1644  1  0.00159900  0.05040100  0.59167100  1
  H  1650  1  0.53051650  0.60491650  0.61715100  1
  H  1651  1  0.56819700  0.59987950  0.63539350  1
  H  1660  1  0.59439000  0.58053300  0.62498800  1
  H  1662  1  0.49665850  0.58915750  0.54786600  1
  H  1668  1  0.98696400  0.41419500  0.88282600  1
  H  1669  1  0.96361800  0.43362500  0.86455800  1
  H  1678  1  0.95465350  0.47022350  0.87495900  1
  H  1680  1  0.04052200  0.44965300  0.95212200  1
  H  2118  1  0.13352300  0.04660300  0.31573300  1
  H  2119  1  0.13724900  0.05465150  0.28114750  1
  H  2128  1  0.09089450  0.05263850  0.22896200  1
  H  2130  1  0.08081150  0.02800700  0.32532550  1
  H  2136  1  0.36494850  0.18136850  0.41220100  1
  H  2137  1  0.36128350  0.14308700  0.41656650  1
  H  2146  1  0.40761950  0.13732600  0.46097950  1
  H  2148  1  0.41757150  0.24374250  0.44636000  1
  H  2154  1  0.76825800  0.45331700  0.08782200  1
  H  2155  1  0.72559000  0.44522400  0.08341000  1
  H  2164  1  0.67551100  0.44737300  0.03908400  1
  H  2166  1  0.79653650  0.47204200  0.05371450  1
  H  2172  1  0.73002750  0.31863050  0.18427400  1
  H  2173  1  0.77265700  0.35694650  0.21887850  1
  H  2182  1  0.82283100  0.36276800  0.27105400  1
  H  2184  1  0.70183300  0.25634900  0.17465700  1
  H  2190  1  0.81779000  0.68426600  0.73086900  1
  H  2191  1  0.85610150  0.71885150  0.77350300  1
  H  2200  1  0.86193300  0.77103850  0.82367650  1
  H  2202  1  0.75548500  0.67467450  0.70268050  1
  H  2208  1  0.95274750  0.58779900  0.76916750  1
  H  2209  1  0.94471700  0.58343350  0.72652050  1
  H  2218  1  0.94664000  0.53902050  0.67634650  1
  H  2220  1  0.97121150  0.55364050  0.79738300  1
  H  2226  1  0.68043550  0.91217800  0.36549450  1
  H  2227  1  0.64218000  0.91659050  0.36181450  1
  H  2236  1  0.63642700  0.96091600  0.40828900  1
  H  2238  1  0.74282200  0.94628550  0.41832750  1
  H  2244  1  0.54575350  0.81572600  0.13435650  1
  H  2245  1  0.55377750  0.78112150  0.13806700  1
  H  2254  1  0.55177650  0.72894650  0.09171500  1
  H  2256  1  0.52717750  0.82534350  0.08169300  1
  H  2262  1  0.08691950  0.26913000  0.95339650  1
  H  2263  1  0.08259750  0.22649600  0.94534850  1
  H  2272  1  0.03825600  0.17632350  0.94736150  1
  H  2274  1  0.05280400  0.29731850  0.97199250  1
  H  2280  1  0.18358100  0.23083350  0.81863150  1
  H  2281  1  0.21819650  0.27347950  0.85691300  1
  H  2290  1  0.27029350  0.32365350  0.86267400  1
  H  2292  1  0.17382800  0.20261800  0.75625700  1
  H  2298  1  0.31494150  0.63450600  0.54668350  1
  H  2299  1  0.28036600  0.63818600  0.55477600  1
  H  2308  1  0.22813800  0.59171100  0.55262700  1
  H  2310  1  0.32449450  0.58167200  0.52795850  1
  H  2316  1  0.41139700  0.86564350  0.68136950  1
  H  2317  1  0.41571050  0.86193200  0.64305350  1
  H  2326  1  0.46006300  0.90828600  0.63723200  1
  H  2328  1  0.44548400  0.91830800  0.74365100  1
  H  2334  1  0.63352400  0.31573350  0.04660250  1
  H  2335  1  0.63725050  0.28114900  0.05465250  1
  H  2344  1  0.59089350  0.22896100  0.05263750  1
  H  2346  1  0.58081150  0.32532600  0.02800650  1
  H  2352  1  0.86494850  0.41220150  0.18136800  1
  H  2353  1  0.86128300  0.41656550  0.14308650  1
  H  2362  1  0.90762000  0.46097950  0.13732750  1
  H  2364  1  0.91757000  0.44635950  0.24374250  1
  H  2370  1  0.26825750  0.08782250  0.45331700  1
  H  2371  1  0.22559000  0.08341000  0.44522500  1
  H  2380  1  0.17551100  0.03908500  0.44737300  1
  H  2382  1  0.29653600  0.05371500  0.47204200  1
  H  2388  1  0.23002750  0.18427350  0.31863100  1
  H  2389  1  0.27265550  0.21887750  0.35694500  1
  H  2398  1  0.32283100  0.27105300  0.36276800  1
  H  2400  1  0.20183350  0.17465700  0.25634950  1
  H  2406  1  0.31779000  0.73087000  0.68426700  1
  H  2407  1  0.35610250  0.77350450  0.71885300  1
  H  2416  1  0.36193250  0.82367650  0.77103900  1
  H  2418  1  0.25548550  0.70268050  0.67467400  1
  H  2424  1  0.45274750  0.76916700  0.58779950  1
  H  2425  1  0.44471650  0.72652050  0.58343300  1
  H  2434  1  0.44664000  0.67634750  0.53902050  1
  H  2436  1  0.47121100  0.79738300  0.55364100  1
  H  2442  1  0.18043550  0.36549500  0.91217750  1
  H  2443  1  0.14217950  0.36181450  0.91659000  1
  H  2452  1  0.13642600  0.40828800  0.96091500  1
  H  2454  1  0.24282200  0.41832700  0.94628600  1
  H  2460  1  0.04575400  0.13435750  0.81572650  1
  H  2461  1  0.05377800  0.13806750  0.78112250  1
  H  2470  1  0.05177800  0.09171500  0.72894700  1
  H  2472  1  0.02717650  0.08169300  0.82534350  1
  H  2478  1  0.58692000  0.95339700  0.26913000  1
  H  2479  1  0.58259800  0.94534850  0.22649550  1
  H  2488  1  0.53825600  0.94736250  0.17632350  1
  H  2490  1  0.55280500  0.97199350  0.29731950  1
  H  2496  1  0.68358050  0.81863100  0.23083250  1
  H  2497  1  0.71819650  0.85691350  0.27347900  1
  H  2506  1  0.77029250  0.86267250  0.32365200  1
  H  2508  1  0.67382850  0.75625800  0.20261750  1
  H  2514  1  0.81494100  0.54668300  0.63450500  1
  H  2515  1  0.78036500  0.55477550  0.63818550  1
  H  2524  1  0.72813800  0.55262700  0.59171200  1
  H  2526  1  0.82449400  0.52795900  0.58167200  1
  H  2532  1  0.91139650  0.68137000  0.86564350  1
  H  2533  1  0.91571100  0.64305450  0.86193250  1
  H  2542  1  0.96006250  0.63723150  0.90828500  1
  H  2544  1  0.94548300  0.74365000  0.91830700  1
  N  17  1  0.18527500  0.11954600  0.20774200  1
  N  18  1  0.12429850  0.03183850  0.16749400  1
  N  23  1  0.11126800  0.09461150  0.12075950  1
  N  24  1  0.08654000  0.00711600  0.11218700  1
  N  25  1  0.20493150  0.14641050  0.26475600  1
  N  26  1  0.12895450  0.08224900  0.25488250  1
  N  43  1  0.31312500  0.02179750  0.43353550  1
  N  44  1  0.37408550  0.04245700  0.40679650  1
  N  49  1  0.38702300  0.00862250  0.48250650  1
  N  50  1  0.41178350  0.02482300  0.41976850  1
  N  51  1  0.29357650  0.05924850  0.44084400  1
  N  52  1  0.36957450  0.12522700  0.45258050  1
  N  69  1  0.58736300  0.38044750  0.06654150  1
  N  70  1  0.63482550  0.46814100  0.09322450  1
  N  75  1  0.52528050  0.40538550  0.01748100  1
  N  76  1  0.60422750  0.49286850  0.08024500  1
  N  77  1  0.61748800  0.35356700  0.05929900  1
  N  78  1  0.67178750  0.41774750  0.04751400  1
  N  95  1  0.91096500  0.47834250  0.29222650  1
  N  96  1  0.86348000  0.45763050  0.33246950  1
  N  101  1  0.97300600  0.49136800  0.37927000  1
  N  102  1  0.89404850  0.47520300  0.38778350  1
  N  103  1  0.88086700  0.44093750  0.23522450  1
  N  104  1  0.82653650  0.37489150  0.24512600  1
  N  121  1  0.97753250  0.79225750  0.91180400  1
  N  122  1  0.95680450  0.83250600  0.86434450  1
  N  127  1  0.99050850  0.87924050  0.97385200  1
  N  128  1  0.97435300  0.88781300  0.89492900  1
  N  129  1  0.94017550  0.73524400  0.88165450  1
  N  130  1  0.87407200  0.74511750  0.82736650  1
  N  147  1  0.87959000  0.56646450  0.58826250  1
  N  148  1  0.96728850  0.59320300  0.63566050  1
  N  153  1  0.90451650  0.51749350  0.52611600  1
  N  154  1  0.99201500  0.58023150  0.60505450  1
  N  155  1  0.85273350  0.55915600  0.61840450  1
  N  156  1  0.91699400  0.54741900  0.67264600  1
  N  173  1  0.52082150  0.93345850  0.31390600  1
  N  174  1  0.54160100  0.90677550  0.37491650  1
  N  179  1  0.50779850  0.98251900  0.38790350  1
  N  180  1  0.52398250  0.91975500  0.41262350  1
  N  181  1  0.55818950  0.94070100  0.29426850  1
  N  182  1  0.62427400  0.95248650  0.37023350  1
  N  199  1  0.61873850  0.70777250  0.18611500  1
  N  200  1  0.53101000  0.66753000  0.12516100  1
  N  205  1  0.59373600  0.62073050  0.11209850  1
  N  206  1  0.50626400  0.61221600  0.08741900  1
  N  207  1  0.64564300  0.76477600  0.20571300  1
  N  208  1  0.58141100  0.75487400  0.12976600  1
  N  225  1  0.06572900  0.08819600  0.88045400  1
  N  226  1  0.09246000  0.13565550  0.96816150  1
  N  231  1  0.01665650  0.02614800  0.90538850  1
  N  232  1  0.07942400  0.10507100  0.99288400  1
  N  233  1  0.05852100  0.11834550  0.85358950  1
  N  234  1  0.04670550  0.17263350  0.91775100  1
  N  251  1  0.29132750  0.41173800  0.97820250  1
  N  252  1  0.33162900  0.36434050  0.95754250  1
  N  257  1  0.37840050  0.47388400  0.99137750  1
  N  258  1  0.38696050  0.39494550  0.97517700  1
  N  259  1  0.23432900  0.38159600  0.94075200  1
  N  260  1  0.24434800  0.32735400  0.87477300  1
  N  277  1  0.20691550  0.68609400  0.61955250  1
  N  278  1  0.16668450  0.62508350  0.53185900  1
  N  283  1  0.11989500  0.61209550  0.59461450  1
  N  284  1  0.11135850  0.58737600  0.50713150  1
  N  285  1  0.26392100  0.70573200  0.64643300  1
  N  286  1  0.25404050  0.62976650  0.58225300  1
  N  303  1  0.43262250  0.81388450  0.52165800  1
  N  304  1  0.40584950  0.87483900  0.54236950  1
  N  309  1  0.48163800  0.88790200  0.50863200  1
  N  310  1  0.41884450  0.91258050  0.52479700  1
  N  311  1  0.43993000  0.79428700  0.55906300  1
  N  312  1  0.45164550  0.87023450  0.62510900  1
  N  329  1  0.68527500  0.20774250  0.11954550  1
  N  330  1  0.62429850  0.16749300  0.03183850  1
  N  335  1  0.61126900  0.12075950  0.09461150  1
  N  336  1  0.58653950  0.11218650  0.00711600  1
  N  337  1  0.70493250  0.26475650  0.14641200  1
  N  338  1  0.62895450  0.25488250  0.08224800  1
  N  355  1  0.81312550  0.43353650  0.02179800  1
  N  356  1  0.87408650  0.40679750  0.04245800  1
  N  361  1  0.88702300  0.48250650  0.00862350  1
  N  362  1  0.91178400  0.41976900  0.02482400  1
  N  363  1  0.79357650  0.44084400  0.05924750  1
  N  364  1  0.86957600  0.45258150  0.12522750  1
  N  381  1  0.08736350  0.06654150  0.38044700  1
  N  382  1  0.13482450  0.09322350  0.46814000  1
  N  387  1  0.02528100  0.01748100  0.40538500  1
  N  388  1  0.10422700  0.08024500  0.49286900  1
  N  389  1  0.11748900  0.05929950  0.35356750  1
  N  390  1  0.17178750  0.04751300  0.41774750  1
  N  407  1  0.41096550  0.29222650  0.47834200  1
  N  408  1  0.36347950  0.33246850  0.45763000  1
  N  413  1  0.47300600  0.37927000  0.49136900  1
  N  414  1  0.39404750  0.38778400  0.47520250  1
  N  415  1  0.38086600  0.23522350  0.44093650  1
  N  416  1  0.32653650  0.24512550  0.37489200  1
  N  433  1  0.47753250  0.91180300  0.79225750  1
  N  434  1  0.45680550  0.86434550  0.83250700  1
  N  439  1  0.49050950  0.97385200  0.87924050  1
  N  440  1  0.47435300  0.89492950  0.88781350  1
  N  441  1  0.44017600  0.88165550  0.73524350  1
  N  442  1  0.37407200  0.82736550  0.74511750  1
  N  459  1  0.37958900  0.58826150  0.56646350  1
  N  460  1  0.46728850  0.63566050  0.59320200  1
  N  465  1  0.40451650  0.52611650  0.51749300  1
  N  466  1  0.49201500  0.60505500  0.58023100  1
  N  467  1  0.35273200  0.61840400  0.55915600  1
  N  468  1  0.41699450  0.67264650  0.54741900  1
  N  485  1  0.02082200  0.31390550  0.93345850  1
  N  486  1  0.04160100  0.37491650  0.90677650  1
  N  491  1  0.00779950  0.38790300  0.98251950  1
  N  492  1  0.02398200  0.41262400  0.91975500  1
  N  493  1  0.05819000  0.29426800  0.94070100  1
  N  494  1  0.12427450  0.37023450  0.95248700  1
  N  511  1  0.11873900  0.18611550  0.70777350  1
  N  512  1  0.03101100  0.12516150  0.66753150  1
  N  517  1  0.09373700  0.11209900  0.62073100  1
  N  518  1  0.00626350  0.08741850  0.61221600  1
  N  519  1  0.14564250  0.20571300  0.76477650  1
  N  520  1  0.08141100  0.12976650  0.75487450  1
  N  537  1  0.56572950  0.88045450  0.08819700  1
  N  538  1  0.59246000  0.96816150  0.13565450  1
  N  543  1  0.51665750  0.90538850  0.02614800  1
  N  544  1  0.57942350  0.99288400  0.10507050  1
  N  545  1  0.55852050  0.85358850  0.11834500  1
  N  546  1  0.54670650  0.91775200  0.17263450  1
  N  563  1  0.79132700  0.97820150  0.41173850  1
  N  564  1  0.83162850  0.95754200  0.36433950  1
  N  569  1  0.87839950  0.99137650  0.47388300  1
  N  570  1  0.88696000  0.97517600  0.39494500  1
  N  571  1  0.73432850  0.94075250  0.38159600  1
  N  572  1  0.74434800  0.87477250  0.32735350  1
  N  589  1  0.70691650  0.61955300  0.68609450  1
  N  590  1  0.66668350  0.53185800  0.62508250  1
  N  595  1  0.61989600  0.59461500  0.61209600  1
  N  596  1  0.61135800  0.50713100  0.58737600  1
  N  597  1  0.76392150  0.64643250  0.70573200  1
  N  598  1  0.75404000  0.58225250  0.62976550  1
  N  615  1  0.93262350  0.52165800  0.81388450  1
  N  616  1  0.90584850  0.54236900  0.87483850  1
  N  621  1  0.98163700  0.50863100  0.88790100  1
  N  622  1  0.91884500  0.52479750  0.91258150  1
  N  623  1  0.93993050  0.55906250  0.79428700  1
  N  624  1  0.95164450  0.62510800  0.87023350  1
  N  1257  1  0.04415600  0.10264250  0.04056850  1
  N  1258  1  0.06654650  0.10013600  0.08764350  1
  N  1275  1  0.45408150  0.99551950  0.55766200  1
  N  1276  1  0.43167950  0.02022000  0.53280050  1
  N  1293  1  0.43705300  0.39734400  0.94231800  1
  N  1294  1  0.48660850  0.39977150  0.96719100  1
  N  1311  1  0.06124150  0.50442550  0.45943000  1
  N  1312  1  0.01165050  0.47975350  0.41235000  1
  N  1329  1  0.00358750  0.95943150  0.06207400  1
  N  1330  1  0.97890250  0.91235650  0.01249200  1
  N  1347  1  0.89641950  0.44233800  0.43785750  1
  N  1348  1  0.89887900  0.46719950  0.48741950  1
  N  1365  1  0.49473500  0.05768150  0.45502550  1
  N  1366  1  0.51941750  0.03280850  0.43258000  1
  N  1383  1  0.60181050  0.54057000  0.04499450  1
  N  1384  1  0.59930100  0.58765000  0.06740400  1
  N  1401  1  0.94151350  0.93792600  0.89735750  1
  N  1402  1  0.96641050  0.98750800  0.89986450  1
  N  1419  1  0.45856250  0.56214250  0.00448100  1
  N  1420  1  0.41145950  0.51258050  0.97978000  1
  N  1437  1  0.03970950  0.54497450  0.60265600  1
  N  1438  1  0.08683750  0.56742000  0.60022850  1
  N  1455  1  0.55681600  0.95500450  0.49557450  1
  N  1456  1  0.53189700  0.93259650  0.52024650  1
  N  1473  1  0.54415700  0.04056950  0.10264350  1
  N  1474  1  0.56654650  0.08764350  0.10013600  1
  N  1491  1  0.95408150  0.55766100  0.99551950  1
  N  1492  1  0.93167950  0.53280150  0.02022000  1
  N  1509  1  0.93705200  0.94231750  0.39734250  1
  N  1510  1  0.98660950  0.96719150  0.39977100  1
  N  1527  1  0.56124100  0.45942950  0.50442450  1
  N  1528  1  0.51165150  0.41235000  0.47975450  1
  N  1545  1  0.50358750  0.06207400  0.95943050  1
  N  1546  1  0.47890300  0.01249250  0.91235650  1
  N  1563  1  0.39642050  0.43785750  0.44233800  1
  N  1564  1  0.39887800  0.48741850  0.46719850  1
  N  1581  1  0.99473550  0.45502600  0.05768250  1
  N  1582  1  0.01941800  0.43257950  0.03280850  1
  N  1599  1  0.10181150  0.04499500  0.54057050  1
  N  1600  1  0.09930150  0.06740450  0.58765000  1
  N  1617  1  0.44151350  0.89735650  0.93792600  1
  N  1618  1  0.46641050  0.89986400  0.98750750  1
  N  1635  1  0.95856300  0.00448050  0.56214250  1
  N  1636  1  0.91145950  0.97978000  0.51258150  1
  N  1653  1  0.53970900  0.60265650  0.54497350  1
  N  1654  1  0.58683850  0.60022900  0.56742050  1
  N  1671  1  0.05681700  0.49557550  0.95500550  1
  N  1672  1  0.03189700  0.52024550  0.93259550  1
  N  2121  1  0.05636400  0.05046650  0.29779350  1
  N  2122  1  0.06105750  0.06069500  0.25378250  1
  N  2139  1  0.44201900  0.24068800  0.49328100  1
  N  2140  1  0.43740300  0.19202250  0.49886850  1
  N  2157  1  0.74669500  0.44976700  0.00695300  1
  N  2158  1  0.69240400  0.43947350  0.00130050  1
  N  2175  1  0.75184350  0.25940350  0.20218200  1
  N  2176  1  0.80607650  0.30811100  0.24621150  1
  N  2193  1  0.75857050  0.70220650  0.75267300  1
  N  2194  1  0.80727500  0.74621850  0.80691350  1
  N  2211  1  0.94873800  0.50671950  0.74740750  1
  N  2212  1  0.93853500  0.50113150  0.69315450  1
  N  2229  1  0.73974150  0.99304700  0.44281350  1
  N  2230  1  0.69110350  0.99869950  0.43817300  1
  N  2247  1  0.54966200  0.79781800  0.05722300  1
  N  2248  1  0.55986500  0.75378850  0.06189950  1
  N  2265  1  0.00589750  0.24732700  0.94953350  1
  N  2266  1  0.00036250  0.19308750  0.93930500  1
  N  2283  1  0.20133100  0.25259300  0.75931200  1
  N  2284  1  0.24538050  0.30684550  0.80797700  1
  N  2301  1  0.29692800  0.55718650  0.55023250  1
  N  2302  1  0.25293100  0.56182650  0.56052650  1
  N  2319  1  0.49244000  0.94277850  0.74059650  1
  N  2320  1  0.49796550  0.93810050  0.69188900  1
  N  2337  1  0.55636500  0.29779350  0.05046650  1
  N  2338  1  0.56105750  0.25378100  0.06069450  1
  N  2355  1  0.94201900  0.49328050  0.24068850  1
  N  2356  1  0.93740350  0.49886850  0.19202200  1
  N  2373  1  0.24669600  0.00695350  0.44976750  1
  N  2374  1  0.19240400  0.00129950  0.43947350  1
  N  2391  1  0.25184300  0.20218150  0.25940450  1
  N  2392  1  0.30607700  0.24621100  0.30811100  1
  N  2409  1  0.25857150  0.75267300  0.70220650  1
  N  2410  1  0.30727600  0.80691350  0.74621850  1
  N  2427  1  0.44873850  0.74740750  0.50671900  1
  N  2428  1  0.43853500  0.69315400  0.50113200  1
  N  2445  1  0.23974250  0.44281450  0.99304700  1
  N  2446  1  0.19110450  0.43817350  0.99870100  1
  N  2463  1  0.04966150  0.05722300  0.79781850  1
  N  2464  1  0.05986600  0.06190000  0.75378900  1
  N  2481  1  0.50589850  0.94953400  0.24732750  1
  N  2482  1  0.50036250  0.93930500  0.19308650  1
  N  2499  1  0.70133050  0.75931100  0.25259250  1
  N  2500  1  0.74538050  0.80797650  0.30684600  1
  N  2517  1  0.79692850  0.55023250  0.55718600  1
  N  2518  1  0.75293100  0.56052750  0.56182650  1
  N  2535  1  0.99243900  0.74059550  0.94277750  1
  N  2536  1  0.99796600  0.69189000  0.93810100  1
  O  1259  1  0.02485650  0.08137550  0.03490200  1
  O  1260  1  0.07975550  0.11931050  0.11156300  1
  O  1261  1  0.04551500  0.12288100  0.05717500  1
  O  1262  1  0.05666400  0.07769550  0.08648950  1
  O  1277  1  0.47337350  0.00915250  0.55568500  1
  O  1278  1  0.41845250  0.03091900  0.53873850  1
  O  1279  1  0.45273700  0.01076550  0.57655550  1
  O  1280  1  0.44159450  0.02896650  0.52027100  1
  O  1295  1  0.45266800  0.41861050  0.94429550  1
  O  1296  1  0.49132200  0.38057350  0.96125350  1
  O  1297  1  0.43341600  0.37710600  0.92343200  1
  O  1298  1  0.50791000  0.42219200  0.97970900  1
  O  1313  1  0.04564800  0.49078000  0.46509500  1
  O  1314  1  0.00693600  0.46909350  0.38843850  1
  O  1315  1  0.06486300  0.48918500  0.44280600  1
  O  1316  1  0.99035200  0.47098200  0.41347500  1
  O  1331  1  0.98995450  0.96509800  0.04647350  1
  O  1332  1  0.96819250  0.88843700  0.00774750  1
  O  1333  1  0.98834000  0.94282500  0.06570600  1
  O  1334  1  0.97017450  0.91351050  0.99120600  1
  O  1349  1  0.91768850  0.44431500  0.45346750  1
  O  1350  1  0.87971400  0.46126150  0.49218050  1
  O  1351  1  0.87618150  0.42344350  0.43420900  1
  O  1352  1  0.92132350  0.47972800  0.50869450  1
  O  1367  1  0.50837250  0.05570450  0.47431500  1
  O  1368  1  0.53006850  0.03874650  0.41932000  1
  O  1369  1  0.50998400  0.07656800  0.45367400  1
  O  1370  1  0.52820100  0.02029100  0.44248300  1
  O  1385  1  0.58055350  0.53490600  0.02568650  1
  O  1386  1  0.61849800  0.61156150  0.08065550  1
  O  1387  1  0.62205700  0.55719400  0.04637900  1
  O  1388  1  0.57687700  0.58652500  0.05750700  1
  O  1403  1  0.94348100  0.95352650  0.91862450  1
  O  1404  1  0.96044500  0.99225250  0.88068950  1
  O  1405  1  0.92263400  0.93429400  0.87711900  1
  O  1406  1  0.97896850  0.00879400  0.92230450  1
  O  1421  1  0.46422050  0.54653150  0.99084600  1
  O  1422  1  0.38753350  0.50781950  0.96908100  1
  O  1423  1  0.44197200  0.56579000  0.98923500  1
  O  1424  1  0.41262900  0.49130550  0.97103350  1
  O  1439  1  0.03405750  0.52568600  0.58139050  1
  O  1440  1  0.11074850  0.58068000  0.61942650  1
  O  1441  1  0.05631000  0.54632600  0.62289400  1
  O  1442  1  0.08571800  0.55751700  0.57780800  1
  O  1457  1  0.55486750  0.97431500  0.50921950  1
  O  1458  1  0.53784250  0.91934500  0.53090650  1
  O  1459  1  0.57567800  0.95362100  0.51081500  1
  O  1460  1  0.51937000  0.94249300  0.52901800  1
  O  1475  1  0.52485700  0.03490250  0.08137650  1
  O  1476  1  0.57975500  0.11156200  0.11931000  1
  O  1477  1  0.54551500  0.05717500  0.12288100  1
  O  1478  1  0.55666450  0.08649050  0.07769500  1
  O  1493  1  0.97337450  0.55568600  0.00915350  1
  O  1494  1  0.91845200  0.53873850  0.03091950  1
  O  1495  1  0.95273800  0.57655550  0.01076550  1
  O  1496  1  0.94159450  0.52027150  0.02896600  1
  O  1511  1  0.95266800  0.94429550  0.41860950  1
  O  1512  1  0.99132300  0.96125350  0.38057350  1
  O  1513  1  0.93341600  0.92343200  0.37710700  1
  O  1514  1  0.00791000  0.97970900  0.42219200  1
  O  1529  1  0.54564750  0.46509450  0.49078000  1
  O  1530  1  0.50693650  0.38843850  0.46909300  1
  O  1531  1  0.56486200  0.44280500  0.48918400  1
  O  1532  1  0.49035200  0.41347400  0.47098200  1
  O  1547  1  0.48995450  0.04647400  0.96509750  1
  O  1548  1  0.46819300  0.00774800  0.88843800  1
  O  1549  1  0.48834000  0.06570600  0.94282500  1
  O  1550  1  0.47017400  0.99120450  0.91350950  1
  O  1565  1  0.41768800  0.45346750  0.44431350  1
  O  1566  1  0.37971350  0.49218000  0.46126050  1
  O  1567  1  0.37618250  0.43421000  0.42344450  1
  O  1568  1  0.42132300  0.50869450  0.47972850  1
  O  1583  1  0.00837250  0.47431400  0.05570450  1
  O  1584  1  0.03006950  0.41932000  0.03874650  1
  O  1585  1  0.00998300  0.45367400  0.07656800  1
  O  1586  1  0.02820050  0.44248250  0.02029000  1
  O  1601  1  0.08055300  0.02568550  0.53490550  1
  O  1602  1  0.11849800  0.08065450  0.61156150  1
  O  1603  1  0.12205700  0.04637900  0.55719500  1
  O  1604  1  0.07687800  0.05750800  0.58652600  1
  O  1619  1  0.44348050  0.91862350  0.95352600  1
  O  1620  1  0.46044500  0.88069000  0.99225200  1
  O  1621  1  0.42263400  0.87711900  0.93429400  1
  O  1622  1  0.47896950  0.92230500  0.00879550  1
  O  1637  1  0.96422050  0.99084600  0.54653250  1
  O  1638  1  0.88753250  0.96908050  0.50781900  1
  O  1639  1  0.94197250  0.98923450  0.56579000  1
  O  1640  1  0.91262850  0.97103400  0.49130550  1
  O  1655  1  0.53405850  0.58139050  0.52568600  1
  O  1656  1  0.61074950  0.61942650  0.58068000  1
  O  1657  1  0.55630900  0.62289400  0.54632600  1
  O  1658  1  0.58571850  0.57780800  0.55751750  1
  O  1673  1  0.05486750  0.50922000  0.97431450  1
  O  1674  1  0.03784350  0.53090700  0.91934550  1
  O  1675  1  0.07567800  0.51081500  0.95362000  1
  O  1676  1  0.01937050  0.52901800  0.94249250  1
  O  2123  1  0.05589100  0.07215900  0.30564300  1
  O  2124  1  0.06007550  0.08138900  0.26570450  1
  O  2125  1  0.03351300  0.03110550  0.27880450  1
  O  2126  1  0.03780050  0.04034650  0.23881500  1
  O  2141  1  0.44244550  0.24899650  0.51542400  1
  O  2142  1  0.43833150  0.20491000  0.52051650  1
  O  2143  1  0.46489600  0.24460200  0.49682100  1
  O  2144  1  0.46067800  0.20036100  0.50182200  1
  O  2159  1  0.73288400  0.42812400  0.98474400  1
  O  2160  1  0.68366900  0.41882750  0.97959750  1
  O  2161  1  0.74710800  0.46917900  0.00354400  1
  O  2162  1  0.69782500  0.45986750  0.99846850  1
  O  2177  1  0.76569700  0.25109400  0.19433800  1
  O  2178  1  0.81485650  0.29522500  0.23428150  1
  O  2179  1  0.75146250  0.25552750  0.22116200  1
  O  2180  1  0.80069400  0.29979600  0.26116300  1
  O  2195  1  0.75024800  0.69435700  0.76651600  1
  O  2196  1  0.79437100  0.73429550  0.81568450  1
  O  2197  1  0.75470850  0.72119550  0.75230100  1
  O  2198  1  0.79898550  0.76118500  0.80153150  1
  O  2213  1  0.92702100  0.48457500  0.73357300  1
  O  2214  1  0.91781550  0.47948350  0.68439400  1
  O  2215  1  0.96807500  0.50317800  0.74778100  1
  O  2216  1  0.95885650  0.49817850  0.69853900  1
  O  2231  1  0.74814000  0.01525550  0.44337950  1
  O  2232  1  0.70407150  0.02040250  0.43923000  1
  O  2233  1  0.74356400  0.99645600  0.46563500  1
  O  2234  1  0.69935650  0.00153150  0.46139900  1
  O  2249  1  0.57135800  0.80566300  0.05675600  1
  O  2250  1  0.58057550  0.76571850  0.06094400  1
  O  2251  1  0.53030100  0.77883800  0.03436600  1
  O  2252  1  0.53953150  0.73883700  0.03863350  1
  O  2267  1  0.98373200  0.23348400  0.92784100  1
  O  2268  1  0.97868650  0.18431550  0.91861100  1
  O  2269  1  0.00240750  0.24769900  0.96889450  1
  O  2270  1  0.99745400  0.19846850  0.95965350  1
  O  2285  1  0.19344900  0.26642750  0.75100350  1
  O  2286  1  0.23342150  0.31560600  0.79508950  1
  O  2287  1  0.22029400  0.25221900  0.75539800  1
  O  2288  1  0.26031700  0.30146050  0.79963850  1
  O  2303  1  0.30476000  0.55662000  0.57187600  1
  O  2304  1  0.26484250  0.56077050  0.58117200  1
  O  2305  1  0.27792950  0.53436600  0.53082250  1
  O  2306  1  0.23795650  0.53860100  0.54013150  1
  O  2321  1  0.51460300  0.94324400  0.74890600  1
  O  2322  1  0.51963150  0.93905650  0.70477500  1
  O  2323  1  0.49593500  0.96563450  0.74447250  1
  O  2324  1  0.50089800  0.96136700  0.70020400  1
  O  2339  1  0.55589150  0.30564400  0.07215950  1
  O  2340  1  0.56007500  0.26570400  0.08138800  1
  O  2341  1  0.53351300  0.27880500  0.03110500  1
  O  2342  1  0.53780050  0.23881600  0.04034650  1
  O  2357  1  0.94244550  0.51542450  0.24899700  1
  O  2358  1  0.93833250  0.52051700  0.20491050  1
  O  2359  1  0.96489650  0.49682100  0.24460250  1
  O  2360  1  0.96067850  0.50182300  0.20036150  1
  O  2375  1  0.23288450  0.98474400  0.42812350  1
  O  2376  1  0.18367000  0.97959750  0.41882750  1
  O  2377  1  0.24710750  0.00354400  0.46917850  1
  O  2378  1  0.19782600  0.99846950  0.45986850  1
  O  2393  1  0.26569550  0.19433750  0.25109300  1
  O  2394  1  0.31485700  0.23428100  0.29522500  1
  O  2395  1  0.25146300  0.22116200  0.25552800  1
  O  2396  1  0.30069350  0.26116300  0.29979650  1
  O  2411  1  0.25024750  0.76651550  0.69435600  1
  O  2412  1  0.29437100  0.81568400  0.73429600  1
  O  2413  1  0.25470900  0.75230100  0.72119500  1
  O  2414  1  0.29898400  0.80153000  0.76118400  1
  O  2429  1  0.42702200  0.73357350  0.48457550  1
  O  2430  1  0.41781600  0.68439500  0.47948400  1
  O  2431  1  0.46807500  0.74778100  0.50317900  1
  O  2432  1  0.45885550  0.69853850  0.49817700  1
  O  2447  1  0.24814100  0.44337950  0.01525650  1
  O  2448  1  0.20407200  0.43922950  0.02040250  1
  O  2449  1  0.24356450  0.46563450  0.99645700  1
  O  2450  1  0.19935550  0.46139850  0.00153100  1
  O  2465  1  0.07135800  0.05675550  0.80566250  1
  O  2466  1  0.08057600  0.06094400  0.76571900  1
  O  2467  1  0.03030100  0.03436600  0.77883800  1
  O  2468  1  0.03953050  0.03863350  0.73883700  1
  O  2483  1  0.48373200  0.92784050  0.23348450  1
  O  2484  1  0.47868700  0.91861200  0.18431600  1
  O  2485  1  0.50240750  0.96889500  0.24769950  1
  O  2486  1  0.49745400  0.95965350  0.19846950  1
  O  2501  1  0.69344850  0.75100250  0.26642700  1
  O  2502  1  0.73342150  0.79508950  0.31560700  1
  O  2503  1  0.72029350  0.75539700  0.25221950  1
  O  2504  1  0.76031700  0.79963900  0.30146100  1
  O  2519  1  0.80476150  0.57187700  0.55662050  1
  O  2520  1  0.76484250  0.58117300  0.56077050  1
  O  2521  1  0.77793000  0.53082250  0.53436550  1
  O  2522  1  0.73795700  0.54013250  0.53860150  1
  O  2537  1  0.01460250  0.74890600  0.94324350  1
  O  2538  1  0.01963150  0.70477400  0.93905650  1
  O  2539  1  0.99593500  0.74447200  0.96563400  1
  O  2540  1  0.00089750  0.70020400  0.96136650  1
