# generated using pymatgen
data_H17C30(N3O2)2
_symmetry_space_group_name_H-M   'P 1'
_cell_length_a   53.73720000
_cell_length_b   61.49360000
_cell_length_c   61.53550000
_cell_angle_alpha   89.98350000
_cell_angle_beta   89.97910000
_cell_angle_gamma   89.95820000
_symmetry_Int_Tables_number   1
_chemical_formula_structural   H17C30(N3O2)2
_chemical_formula_sum   'H1088 C1920 N384 O256'
_cell_volume   203343.60721237
_cell_formula_units_Z   64
loop_
 _symmetry_equiv_pos_site_id
 _symmetry_equiv_pos_as_xyz
  1  'x, y, z'
loop_
 _atom_site_type_symbol
 _atom_site_label
 _atom_site_symmetry_multiplicity
 _atom_site_fract_x
 _atom_site_fract_y
 _atom_site_fract_z
 _atom_site_occupancy
  H  12  1  0.94344200  0.04534800  0.05160100  1
  H  13  1  0.98860700  0.08290100  0.05883200  1
  H  14  1  0.96534000  0.10775000  0.08106800  1
  H  15  1  0.93174600  0.08467100  0.01155400  1
  H  16  1  0.90865100  0.10959700  0.03363200  1
  H  23  1  0.85251600  0.14016700  0.08116200  1
  H  25  1  0.92460600  0.15361600  0.10401200  1
  H  31  1  0.88729700  0.12228100  0.06492100  1
  H  34  1  0.79972600  0.18163800  0.16263700  1
  H  39  1  0.87023000  0.20665800  0.13288900  1
  H  40  1  0.77600500  0.20374400  0.18721700  1
  H  43  1  0.85310400  0.23169000  0.15716000  1
  H  48  1  0.81902700  0.21194300  0.22272000  1
  H  50  1  0.77404900  0.25886800  0.16008300  1
  H  53  1  0.82949300  0.25366500  0.18173300  1
  H  56  1  0.77152000  0.25963900  0.24304300  1
  H  59  1  0.81887500  0.21196100  0.26375000  1
  H  61  1  0.74173800  0.28910300  0.15982300  1
  H  63  1  0.68858100  0.28782600  0.17427700  1
  H  64  1  0.74228900  0.28777800  0.24279700  1
  H  67  1  0.66555400  0.30882400  0.14816300  1
  H  74  1  0.83470700  0.24898400  0.29655500  1
  H  77  1  0.67765400  0.29505100  0.29859100  1
  H  84  1  0.77130300  0.21012900  0.30786000  1
  H  96  1  0.92917700  0.97020000  0.01433300  1
  H  97  1  0.90583300  0.94588400  0.03667300  1
  H  98  1  0.99153400  0.96217500  0.05520500  1
  H  99  1  0.96818700  0.93749500  0.07752600  1
  H  100  1  0.94374000  0.00427400  0.05153400  1
  H  121  1  0.54730900  0.61434300  0.08043500  1
  H  122  1  0.52347800  0.58929500  0.05893900  1
  H  123  1  0.60970300  0.60336500  0.04021100  1
  H  124  1  0.58596000  0.57843600  0.01879700  1
  H  125  1  0.57093800  0.54515700  0.05562100  1
  H  126  1  0.57046200  0.50410600  0.05559000  1
  H  127  1  0.52413100  0.60825700  0.01049400  1
  H  128  1  0.52166000  0.44202600  0.01083400  1
  H  129  1  0.52718700  0.46970100  0.06524700  1
  H  130  1  0.55105500  0.44479700  0.08688900  1
  H  131  1  0.60200400  0.43739500  0.03516400  1
  H  132  1  0.57832200  0.46226800  0.01373000  1
  H  137  1  0.70497000  0.36507900  0.16676000  1
  H  145  1  0.74345600  0.76029800  0.16034400  1
  H  146  1  0.77566500  0.79056700  0.16008700  1
  H  147  1  0.81268200  0.86622700  0.16692400  1
  H  148  1  0.85092000  0.80968100  0.14721800  1
  H  149  1  0.71790200  0.68264500  0.16314100  1
  H  150  1  0.66400800  0.73240000  0.15840400  1
  H  158  1  0.66350600  0.63873300  0.08449500  1
  H  160  1  0.59170800  0.65382100  0.10709400  1
  H  168  1  0.62864700  0.61860100  0.07122400  1
  H  170  1  0.64690400  0.70731100  0.13401500  1
  H  176  1  0.85430100  0.90627600  0.07786500  1
  H  178  1  0.92494700  0.89767600  0.10600500  1
  H  186  1  0.89118600  0.91807700  0.05876600  1
  H  188  1  0.85917700  0.87680800  0.15574700  1
  H  194  1  0.65973000  0.40616300  0.07938600  1
  H  196  1  0.59012400  0.39566500  0.10884500  1
  H  204  1  0.62136900  0.41580100  0.06062900  1
  H  206  1  0.65848300  0.37615300  0.15693600  1
  H  208  1  0.72842500  0.34408500  0.19248300  1
  H  219  1  0.78980900  0.84536500  0.19314100  1
  H  220  1  0.82852400  0.78881500  0.17384100  1
  H  221  1  0.74199500  0.70496800  0.18719400  1
  H  222  1  0.68800800  0.75460600  0.18244800  1
  H  226  1  0.68771200  0.32919200  0.22221200  1
  H  231  1  0.69896700  0.71302500  0.22296400  1
  H  232  1  0.83049400  0.82983800  0.22245300  1
  H  237  1  0.74639800  0.76073400  0.24325800  1
  H  238  1  0.77511700  0.78930900  0.24303400  1
  H  239  1  0.68812700  0.32967000  0.26317900  1
  H  242  1  0.69904000  0.71310900  0.26398100  1
  H  243  1  0.83002700  0.83034400  0.26344500  1
  H  250  1  0.68310500  0.75074600  0.29665300  1
  H  251  1  0.83944900  0.79560500  0.29966000  1
  H  253  1  0.73917000  0.33723400  0.30476800  1
  H  259  1  0.74586200  0.71101400  0.30792800  1
  H  260  1  0.77915900  0.83938700  0.30393600  1
  H  277  1  0.07074400  0.04642100  0.93098600  1
  H  278  1  0.02189000  0.02548900  0.97732200  1
  H  279  1  0.99149700  0.02516000  0.00430800  1
  H  280  1  0.02191200  0.10860600  0.97571300  1
  H  281  1  0.98986100  0.10827300  0.00621000  1
  H  282  1  0.02749800  0.08085900  0.92126800  1
  H  283  1  0.05135500  0.10573600  0.89960800  1
  H  284  1  0.10221300  0.11320500  0.95134500  1
  H  285  1  0.07854400  0.08835900  0.97279900  1
  H  314  1  0.04554300  0.11225400  0.58250800  1
  H  315  1  0.02224300  0.08764200  0.56011400  1
  H  316  1  0.10731800  0.10554700  0.54067300  1
  H  317  1  0.08399500  0.08117800  0.51823400  1
  H  318  1  0.06990500  0.04643900  0.55583900  1
  H  319  1  0.02185500  0.02540200  0.50892000  1
  H  320  1  0.99353800  0.02491200  0.48007100  1
  H  321  1  0.02295600  0.10847700  0.50940800  1
  H  322  1  0.99030700  0.10803500  0.47939300  1
  H  323  1  0.92894000  0.08210600  0.47398300  1
  H  324  1  0.90543500  0.10608000  0.45121700  1
  H  325  1  0.98863500  0.08438300  0.42946200  1
  H  326  1  0.96518500  0.10859400  0.40673400  1
  H  327  1  0.93828900  0.04495100  0.43916500  1
  H  336  1  0.83790800  0.16058800  0.37213000  1
  H  344  1  0.89040600  0.13291900  0.42730900  1
  H  351  1  0.17319100  0.16293500  0.61779300  1
  H  358  1  0.12012000  0.13573600  0.56186700  1
  H  364  1  0.15993900  0.14441600  0.90709900  1
  H  366  1  0.09033700  0.15492900  0.87765300  1
  H  373  1  0.12157600  0.13477900  0.92586300  1
  H  374  1  0.15874000  0.17442800  0.82957500  1
  H  377  1  0.21613900  0.19140000  0.65652300  1
  H  378  1  0.20518000  0.18558700  0.81973600  1
  H  383  1  0.79453000  0.18862700  0.33333333  1
  H  385  1  0.90997800  0.18458100  0.36077000  1
  H  387  1  0.87608300  0.19757100  0.33920600  1
  H  388  1  0.10163800  0.18917800  0.62646100  1
  H  391  1  0.13539400  0.20207200  0.64838300  1
  H  399  1  0.23926700  0.21348000  0.68153900  1
  H  400  1  0.18828700  0.22090100  0.72330800  1
  H  401  1  0.18788900  0.22138400  0.76427000  1
  H  402  1  0.22860500  0.20659500  0.79401500  1
  H  404  1  0.85785700  0.22757400  0.32192500  1
  H  414  1  0.15448200  0.23344700  0.66310000  1
  H  415  1  0.16555200  0.24180200  0.83827800  1
  H  421  1  0.24222000  0.26296000  0.74363800  1
  H  422  1  0.24033500  0.26183000  0.66057300  1
  H  423  1  0.17757200  0.25549700  0.68798500  1
  H  424  1  0.24169500  0.26161900  0.82662500  1
  H  425  1  0.18854900  0.26281500  0.81216400  1
  H  427  1  0.77321600  0.25902900  0.32604800  1
  H  437  1  0.27145100  0.29105600  0.74339700  1
  H  438  1  0.27314600  0.29165300  0.66038100  1
  H  439  1  0.27395000  0.29185700  0.82635600  1
  H  440  1  0.74036500  0.28886000  0.32586400  1
  H  444  1  0.33466600  0.30165200  0.68984000  1
  H  445  1  0.32940900  0.29702200  0.80479500  1
  H  452  1  0.35295700  0.31901300  0.82935700  1
  H  453  1  0.65454700  0.31707900  0.32353200  1
  H  467  1  0.04758900  0.93640000  0.90610400  1
  H  468  1  0.02372600  0.96146600  0.92760500  1
  H  469  1  0.10984100  0.94706900  0.94652600  1
  H  470  1  0.08606700  0.97202000  0.96794600  1
  H  471  1  0.07118700  0.00536900  0.93099300  1
  H  472  1  0.02429100  0.94237400  0.97610900  1
  H  473  1  0.99155400  0.94206800  0.00601600  1
  H  504  1  0.52169300  0.52515500  0.00925000  1
  H  505  1  0.49129000  0.52549300  0.98228500  1
  H  506  1  0.49142400  0.60859500  0.98058500  1
  H  507  1  0.42904600  0.58057500  0.97227500  1
  H  508  1  0.40574700  0.60492000  0.94991000  1
  H  509  1  0.49145000  0.58844100  0.93139700  1
  H  510  1  0.46814900  0.61314900  0.90905600  1
  H  511  1  0.44361900  0.54649200  0.93505600  1
  H  512  1  0.44326900  0.50542000  0.93496300  1
  H  513  1  0.48962200  0.44239300  0.98034300  1
  H  514  1  0.48841100  0.46776300  0.92771700  1
  H  515  1  0.46517400  0.44297000  0.90544800  1
  H  516  1  0.43146100  0.46607000  0.97493900  1
  H  517  1  0.40839000  0.44119900  0.95282700  1
  H  530  1  0.29443500  0.36203800  0.65308700  1
  H  531  1  0.27121800  0.34052900  0.67857100  1
  H  532  1  0.35780300  0.32307000  0.66448000  1
  H  533  1  0.31881500  0.33865500  0.72264700  1
  H  534  1  0.31897500  0.33868900  0.76367600  1
  H  535  1  0.27593600  0.34699300  0.79914700  1
  H  536  1  0.29959500  0.36911600  0.82371400  1
  H  542  1  0.71602600  0.35928900  0.32983700  1
  H  552  1  0.72204600  0.68943200  0.33293600  1
  H  553  1  0.65938600  0.72926300  0.32156500  1
  H  554  1  0.74423900  0.76040200  0.32625900  1
  H  555  1  0.77699100  0.79029700  0.32610100  1
  H  556  1  0.86280000  0.81771100  0.32417200  1
  H  557  1  0.80247800  0.86147900  0.32879400  1
  H  608  1  0.22215000  0.86136200  0.65347700  1
  H  609  1  0.24598300  0.83980700  0.67850900  1
  H  610  1  0.15956000  0.82151300  0.66486100  1
  H  611  1  0.18329600  0.80005900  0.68979700  1
  H  612  1  0.19914500  0.83769600  0.72248900  1
  H  613  1  0.19907100  0.83775700  0.76350700  1
  H  614  1  0.24658700  0.79006400  0.74316600  1
  H  615  1  0.27545900  0.76161500  0.74339200  1
  H  616  1  0.24448400  0.79046000  0.66016700  1
  H  617  1  0.27727700  0.76056000  0.66031800  1
  H  618  1  0.33965000  0.75520500  0.68674600  1
  H  619  1  0.36302800  0.73309400  0.66221400  1
  H  620  1  0.27942300  0.71142300  0.68252400  1
  H  621  1  0.30277000  0.68932700  0.65764400  1
  H  622  1  0.33016300  0.72030600  0.72293100  1
  H  623  1  0.33062200  0.72077800  0.76392500  1
  H  624  1  0.24370700  0.79054500  0.82609300  1
  H  625  1  0.27594300  0.76025900  0.82634300  1
  H  626  1  0.28998200  0.70541300  0.79333600  1
  H  627  1  0.31282500  0.68454800  0.81957900  1
  H  628  1  0.32878200  0.76190900  0.81250100  1
  H  629  1  0.35114600  0.74104300  0.83915200  1
  H  630  1  0.24213000  0.84578700  0.79923200  1
  H  631  1  0.21802800  0.86807900  0.82335800  1
  H  632  1  0.16422000  0.81831200  0.82811400  1
  H  633  1  0.18822500  0.79613700  0.80400300  1
  H  686  1  0.54559500  0.43843900  0.40392500  1
  H  687  1  0.52227400  0.46309400  0.42630500  1
  H  688  1  0.60726000  0.44493100  0.44587400  1
  H  689  1  0.58391400  0.46933900  0.46830500  1
  H  690  1  0.56995800  0.50411000  0.43062200  1
  H  691  1  0.57058300  0.54516000  0.43061500  1
  H  692  1  0.52181600  0.52525500  0.47746900  1
  H  693  1  0.49344400  0.52574600  0.50626800  1
  H  694  1  0.52290300  0.44216600  0.47701700  1
  H  695  1  0.49024700  0.44263300  0.50704400  1
  H  696  1  0.42883400  0.46875300  0.51260300  1
  H  697  1  0.40533000  0.44480000  0.53537500  1
  H  698  1  0.48865100  0.46615600  0.55694400  1
  H  699  1  0.46520100  0.44196500  0.57967500  1
  H  700  1  0.43839500  0.50581900  0.54744700  1
  H  701  1  0.43850300  0.54683600  0.54703700  1
  H  702  1  0.52595800  0.60822500  0.47721900  1
  H  703  1  0.49378100  0.60876700  0.50751400  1
  H  704  1  0.47970900  0.57578600  0.56243200  1
  H  705  1  0.45697400  0.60199600  0.58344000  1
  H  706  1  0.44078300  0.59533600  0.50612800  1
  H  707  1  0.41852200  0.62195200  0.52714300  1
  H  708  1  0.52774700  0.58086600  0.42186200  1
  H  709  1  0.55190500  0.60509400  0.39974600  1
  H  710  1  0.60493000  0.61045800  0.45006300  1
  H  711  1  0.58087600  0.58623200  0.47206000  1
  H  737  1  0.07050900  0.00539000  0.55580600  1
  H  738  1  0.93836400  0.00393500  0.43954500  1
  H  739  1  0.02602200  0.94242200  0.50910000  1
  H  740  1  0.99384300  0.94190600  0.47882500  1
  H  741  1  0.97944700  0.97503900  0.42391200  1
  H  742  1  0.95668100  0.94888100  0.40291800  1
  H  743  1  0.94089500  0.95524000  0.48032600  1
  H  744  1  0.91861000  0.92867200  0.45932500  1
  H  745  1  0.02765200  0.96966400  0.56445900  1
  H  746  1  0.05184700  0.94545000  0.58657200  1
  H  747  1  0.10504000  0.94026900  0.53633000  1
  H  748  1  0.08094500  0.96448200  0.51433300  1
  H  756  1  0.16373300  0.91184500  0.90213500  1
  H  758  1  0.09194100  0.89688300  0.87952700  1
  H  766  1  0.12885800  0.93204900  0.91538200  1
  H  768  1  0.14718000  0.84331500  0.85262900  1
  H  774  1  0.40992100  0.36611500  0.62571200  1
  H  776  1  0.33783000  0.39008800  0.61428600  1
  H  784  1  0.37600600  0.35307300  0.64721100  1
  H  786  1  0.39038000  0.41783200  0.55918700  1
  H  792  1  0.35430100  0.64453400  0.90862100  1
  H  794  1  0.42501900  0.65302700  0.88056500  1
  H  802  1  0.39117300  0.63277200  0.92780300  1
  H  804  1  0.35937300  0.67392600  0.83071000  1
  H  810  1  0.60159700  0.36141400  0.36004100  1
  H  812  1  0.67313600  0.38760900  0.36868800  1
  H  820  1  0.63536500  0.34858500  0.33803500  1
  H  822  1  0.61997700  0.41464300  0.42473600  1
  H  828  1  0.35233900  0.41062800  0.90526600  1
  H  830  1  0.42444900  0.39709600  0.88243400  1
  H  838  1  0.38710500  0.42840900  0.92158100  1
  H  840  1  0.37015000  0.34415100  0.85346300  1
  H  846  1  0.60570900  0.68468400  0.35673900  1
  H  848  1  0.67755900  0.66225600  0.37189500  1
  H  856  1  0.64060200  0.69807700  0.33666800  1
  H  858  1  0.62218800  0.63488200  0.42509000  1
  H  864  1  0.10583500  0.86600900  0.62963900  1
  H  866  1  0.17764500  0.88850900  0.61452400  1
  H  874  1  0.14073200  0.85271300  0.64978000  1
  H  876  1  0.12227600  0.91577500  0.56126500  1
  H  882  1  0.91519200  0.85996800  0.36246000  1
  H  884  1  0.84454400  0.88825100  0.37079500  1
  H  892  1  0.87832200  0.84098300  0.35043700  1
  H  894  1  0.91005200  0.93778900  0.39241700  1
  H  900  1  0.41542000  0.69076800  0.62394500  1
  H  902  1  0.34473500  0.66265400  0.61557600  1
  H  910  1  0.37847900  0.70989900  0.63579900  1
  H  912  1  0.41025300  0.61295000  0.59403500  1
  H  924  1  0.12953300  0.04534800  0.05160100  1
  H  925  1  0.17469800  0.08290100  0.05883200  1
  H  926  1  0.15143100  0.10775000  0.08106800  1
  H  927  1  0.11783700  0.08467100  0.01155400  1
  H  928  1  0.09474180  0.10959700  0.03363200  1
  H  935  1  0.03860680  0.14016700  0.08116200  1
  H  937  1  0.11069700  0.15361600  0.10401200  1
  H  943  1  0.07338780  0.12228100  0.06492100  1
  H  946  1  0.98581700  0.18163800  0.16263700  1
  H  951  1  0.05632080  0.20665800  0.13288900  1
  H  952  1  0.96209600  0.20374400  0.18721700  1
  H  955  1  0.03919480  0.23169000  0.15716000  1
  H  960  1  0.00511783  0.21194300  0.22272000  1
  H  962  1  0.96014000  0.25886800  0.16008300  1
  H  965  1  0.01558380  0.25366500  0.18173300  1
  H  968  1  0.95761100  0.25963900  0.24304300  1
  H  971  1  0.00496583  0.21196100  0.26375000  1
  H  973  1  0.92782900  0.28910300  0.15982300  1
  H  975  1  0.87467200  0.28782600  0.17427700  1
  H  976  1  0.92838000  0.28777800  0.24279700  1
  H  979  1  0.85164500  0.30882400  0.14816300  1
  H  986  1  0.02079780  0.24898400  0.29655500  1
  H  989  1  0.86374500  0.29505100  0.29859100  1
  H  996  1  0.95739400  0.21012900  0.30786000  1
  H  1008  1  0.11526800  0.97020000  0.01433300  1
  H  1009  1  0.09192380  0.94588400  0.03667300  1
  H  1010  1  0.17762500  0.96217500  0.05520500  1
  H  1011  1  0.15427800  0.93749500  0.07752600  1
  H  1012  1  0.12983100  0.00427400  0.05153400  1
  H  1033  1  0.73340000  0.61434300  0.08043500  1
  H  1034  1  0.70956900  0.58929500  0.05893900  1
  H  1035  1  0.79579400  0.60336500  0.04021100  1
  H  1036  1  0.77205100  0.57843600  0.01879700  1
  H  1037  1  0.75702900  0.54515700  0.05562100  1
  H  1038  1  0.75655300  0.50410600  0.05559000  1
  H  1039  1  0.71022200  0.60825700  0.01049400  1
  H  1040  1  0.70775100  0.44202600  0.01083400  1
  H  1041  1  0.71327800  0.46970100  0.06524700  1
  H  1042  1  0.73714600  0.44479700  0.08688900  1
  H  1043  1  0.78809500  0.43739500  0.03516400  1
  H  1044  1  0.76441300  0.46226800  0.01373000  1
  H  1049  1  0.89106100  0.36507900  0.16676000  1
  H  1057  1  0.92954700  0.76029800  0.16034400  1
  H  1058  1  0.96175600  0.79056700  0.16008700  1
  H  1059  1  0.99877300  0.86622700  0.16692400  1
  H  1060  1  0.03701080  0.80968100  0.14721800  1
  H  1061  1  0.90399300  0.68264500  0.16314100  1
  H  1062  1  0.85009900  0.73240000  0.15840400  1
  H  1070  1  0.84959700  0.63873300  0.08449500  1
  H  1072  1  0.77779900  0.65382100  0.10709400  1
  H  1080  1  0.81473800  0.61860100  0.07122400  1
  H  1082  1  0.83299500  0.70731100  0.13401500  1
  H  1088  1  0.04039180  0.90627600  0.07786500  1
  H  1090  1  0.11103800  0.89767600  0.10600500  1
  H  1098  1  0.07727680  0.91807700  0.05876600  1
  H  1100  1  0.04526780  0.87680800  0.15574700  1
  H  1106  1  0.84582100  0.40616300  0.07938600  1
  H  1108  1  0.77621500  0.39566500  0.10884500  1
  H  1116  1  0.80746000  0.41580100  0.06062900  1
  H  1118  1  0.84457400  0.37615300  0.15693600  1
  H  1120  1  0.91451600  0.34408500  0.19248300  1
  H  1131  1  0.97590000  0.84536500  0.19314100  1
  H  1132  1  0.01461480  0.78881500  0.17384100  1
  H  1133  1  0.92808600  0.70496800  0.18719400  1
  H  1134  1  0.87409900  0.75460600  0.18244800  1
  H  1138  1  0.87380300  0.32919200  0.22221200  1
  H  1143  1  0.88505800  0.71302500  0.22296400  1
  H  1144  1  0.01658480  0.82983800  0.22245300  1
  H  1149  1  0.93248900  0.76073400  0.24325800  1
  H  1150  1  0.96120800  0.78930900  0.24303400  1
  H  1151  1  0.87421800  0.32967000  0.26317900  1
  H  1154  1  0.88513100  0.71310900  0.26398100  1
  H  1155  1  0.01611780  0.83034400  0.26344500  1
  H  1162  1  0.86919600  0.75074600  0.29665300  1
  H  1163  1  0.02553980  0.79560500  0.29966000  1
  H  1165  1  0.92526100  0.33723400  0.30476800  1
  H  1171  1  0.93195300  0.71101400  0.30792800  1
  H  1172  1  0.96525000  0.83938700  0.30393600  1
  H  1189  1  0.25683500  0.04642100  0.93098600  1
  H  1190  1  0.20798100  0.02548900  0.97732200  1
  H  1191  1  0.17758800  0.02516000  0.00430800  1
  H  1192  1  0.20800300  0.10860600  0.97571300  1
  H  1193  1  0.17595200  0.10827300  0.00621000  1
  H  1194  1  0.21358900  0.08085900  0.92126800  1
  H  1195  1  0.23744600  0.10573600  0.89960800  1
  H  1196  1  0.28830400  0.11320500  0.95134500  1
  H  1197  1  0.26463500  0.08835900  0.97279900  1
  H  1226  1  0.23163400  0.11225400  0.58250800  1
  H  1227  1  0.20833400  0.08764200  0.56011400  1
  H  1228  1  0.29340900  0.10554700  0.54067300  1
  H  1229  1  0.27008600  0.08117800  0.51823400  1
  H  1230  1  0.25599600  0.04643900  0.55583900  1
  H  1231  1  0.20794600  0.02540200  0.50892000  1
  H  1232  1  0.17962900  0.02491200  0.48007100  1
  H  1233  1  0.20904700  0.10847700  0.50940800  1
  H  1234  1  0.17639800  0.10803500  0.47939300  1
  H  1235  1  0.11503100  0.08210600  0.47398300  1
  H  1236  1  0.09152580  0.10608000  0.45121700  1
  H  1237  1  0.17472600  0.08438300  0.42946200  1
  H  1238  1  0.15127600  0.10859400  0.40673400  1
  H  1239  1  0.12438000  0.04495100  0.43916500  1
  H  1248  1  0.02399880  0.16058800  0.37213000  1
  H  1256  1  0.07649680  0.13291900  0.42730900  1
  H  1263  1  0.35928200  0.16293500  0.61779300  1
  H  1270  1  0.30621100  0.13573600  0.56186700  1
  H  1276  1  0.34603000  0.14441600  0.90709900  1
  H  1278  1  0.27642800  0.15492900  0.87765300  1
  H  1285  1  0.30766700  0.13477900  0.92586300  1
  H  1286  1  0.34483100  0.17442800  0.82957500  1
  H  1289  1  0.40223000  0.19140000  0.65652300  1
  H  1290  1  0.39127100  0.18558700  0.81973600  1
  H  1295  1  0.98062100  0.18862700  0.33333333  1
  H  1297  1  0.09606880  0.18458100  0.36077000  1
  H  1299  1  0.06217380  0.19757100  0.33920600  1
  H  1300  1  0.28772900  0.18917800  0.62646100  1
  H  1303  1  0.32148500  0.20207200  0.64838300  1
  H  1311  1  0.42535800  0.21348000  0.68153900  1
  H  1312  1  0.37437800  0.22090100  0.72330800  1
  H  1313  1  0.37398000  0.22138400  0.76427000  1
  H  1314  1  0.41469600  0.20659500  0.79401500  1
  H  1316  1  0.04394780  0.22757400  0.32192500  1
  H  1326  1  0.34057300  0.23344700  0.66310000  1
  H  1327  1  0.35164300  0.24180200  0.83827800  1
  H  1333  1  0.42831100  0.26296000  0.74363800  1
  H  1334  1  0.42642600  0.26183000  0.66057300  1
  H  1335  1  0.36366300  0.25549700  0.68798500  1
  H  1336  1  0.42778600  0.26161900  0.82662500  1
  H  1337  1  0.37464000  0.26281500  0.81216400  1
  H  1339  1  0.95930700  0.25902900  0.32604800  1
  H  1349  1  0.45754200  0.29105600  0.74339700  1
  H  1350  1  0.45923700  0.29165300  0.66038100  1
  H  1351  1  0.46004100  0.29185700  0.82635600  1
  H  1352  1  0.92645600  0.28886000  0.32586400  1
  H  1356  1  0.52075700  0.30165200  0.68984000  1
  H  1357  1  0.51550000  0.29702200  0.80479500  1
  H  1364  1  0.53904800  0.31901300  0.82935700  1
  H  1365  1  0.84063800  0.31707900  0.32353200  1
  H  1379  1  0.23368000  0.93640000  0.90610400  1
  H  1380  1  0.20981700  0.96146600  0.92760500  1
  H  1381  1  0.29593200  0.94706900  0.94652600  1
  H  1382  1  0.27215800  0.97202000  0.96794600  1
  H  1383  1  0.25727800  0.00536900  0.93099300  1
  H  1384  1  0.21038200  0.94237400  0.97610900  1
  H  1385  1  0.17764500  0.94206800  0.00601600  1
  H  1416  1  0.70778400  0.52515500  0.00925000  1
  H  1417  1  0.67738100  0.52549300  0.98228500  1
  H  1418  1  0.67751500  0.60859500  0.98058500  1
  H  1419  1  0.61513700  0.58057500  0.97227500  1
  H  1420  1  0.59183800  0.60492000  0.94991000  1
  H  1421  1  0.67754100  0.58844100  0.93139700  1
  H  1422  1  0.65424000  0.61314900  0.90905600  1
  H  1423  1  0.62971000  0.54649200  0.93505600  1
  H  1424  1  0.62936000  0.50542000  0.93496300  1
  H  1425  1  0.67571300  0.44239300  0.98034300  1
  H  1426  1  0.67450200  0.46776300  0.92771700  1
  H  1427  1  0.65126500  0.44297000  0.90544800  1
  H  1428  1  0.61755200  0.46607000  0.97493900  1
  H  1429  1  0.59448100  0.44119900  0.95282700  1
  H  1442  1  0.48052600  0.36203800  0.65308700  1
  H  1443  1  0.45730900  0.34052900  0.67857100  1
  H  1444  1  0.54389400  0.32307000  0.66448000  1
  H  1445  1  0.50490600  0.33865500  0.72264700  1
  H  1446  1  0.50506600  0.33868900  0.76367600  1
  H  1447  1  0.46202700  0.34699300  0.79914700  1
  H  1448  1  0.48568600  0.36911600  0.82371400  1
  H  1454  1  0.90211700  0.35928900  0.32983700  1
  H  1464  1  0.90813700  0.68943200  0.33293600  1
  H  1465  1  0.84547700  0.72926300  0.32156500  1
  H  1466  1  0.93033000  0.76040200  0.32625900  1
  H  1467  1  0.96308200  0.79029700  0.32610100  1
  H  1468  1  0.04889080  0.81771100  0.32417200  1
  H  1469  1  0.98856900  0.86147900  0.32879400  1
  H  1520  1  0.40824100  0.86136200  0.65347700  1
  H  1521  1  0.43207400  0.83980700  0.67850900  1
  H  1522  1  0.34565100  0.82151300  0.66486100  1
  H  1523  1  0.36938700  0.80005900  0.68979700  1
  H  1524  1  0.38523600  0.83769600  0.72248900  1
  H  1525  1  0.38516200  0.83775700  0.76350700  1
  H  1526  1  0.43267800  0.79006400  0.74316600  1
  H  1527  1  0.46155000  0.76161500  0.74339200  1
  H  1528  1  0.43057500  0.79046000  0.66016700  1
  H  1529  1  0.46336800  0.76056000  0.66031800  1
  H  1530  1  0.52574100  0.75520500  0.68674600  1
  H  1531  1  0.54911900  0.73309400  0.66221400  1
  H  1532  1  0.46551400  0.71142300  0.68252400  1
  H  1533  1  0.48886100  0.68932700  0.65764400  1
  H  1534  1  0.51625400  0.72030600  0.72293100  1
  H  1535  1  0.51671300  0.72077800  0.76392500  1
  H  1536  1  0.42979800  0.79054500  0.82609300  1
  H  1537  1  0.46203400  0.76025900  0.82634300  1
  H  1538  1  0.47607300  0.70541300  0.79333600  1
  H  1539  1  0.49891600  0.68454800  0.81957900  1
  H  1540  1  0.51487300  0.76190900  0.81250100  1
  H  1541  1  0.53723700  0.74104300  0.83915200  1
  H  1542  1  0.42822100  0.84578700  0.79923200  1
  H  1543  1  0.40411900  0.86807900  0.82335800  1
  H  1544  1  0.35031100  0.81831200  0.82811400  1
  H  1545  1  0.37431600  0.79613700  0.80400300  1
  H  1598  1  0.73168600  0.43843900  0.40392500  1
  H  1599  1  0.70836500  0.46309400  0.42630500  1
  H  1600  1  0.79335100  0.44493100  0.44587400  1
  H  1601  1  0.77000500  0.46933900  0.46830500  1
  H  1602  1  0.75604900  0.50411000  0.43062200  1
  H  1603  1  0.75667400  0.54516000  0.43061500  1
  H  1604  1  0.70790700  0.52525500  0.47746900  1
  H  1605  1  0.67953500  0.52574600  0.50626800  1
  H  1606  1  0.70899400  0.44216600  0.47701700  1
  H  1607  1  0.67633800  0.44263300  0.50704400  1
  H  1608  1  0.61492500  0.46875300  0.51260300  1
  H  1609  1  0.59142100  0.44480000  0.53537500  1
  H  1610  1  0.67474200  0.46615600  0.55694400  1
  H  1611  1  0.65129200  0.44196500  0.57967500  1
  H  1612  1  0.62448600  0.50581900  0.54744700  1
  H  1613  1  0.62459400  0.54683600  0.54703700  1
  H  1614  1  0.71204900  0.60822500  0.47721900  1
  H  1615  1  0.67987200  0.60876700  0.50751400  1
  H  1616  1  0.66580000  0.57578600  0.56243200  1
  H  1617  1  0.64306500  0.60199600  0.58344000  1
  H  1618  1  0.62687400  0.59533600  0.50612800  1
  H  1619  1  0.60461300  0.62195200  0.52714300  1
  H  1620  1  0.71383800  0.58086600  0.42186200  1
  H  1621  1  0.73799600  0.60509400  0.39974600  1
  H  1622  1  0.79102100  0.61045800  0.45006300  1
  H  1623  1  0.76696700  0.58623200  0.47206000  1
  H  1649  1  0.25660000  0.00539000  0.55580600  1
  H  1650  1  0.12445500  0.00393500  0.43954500  1
  H  1651  1  0.21211300  0.94242200  0.50910000  1
  H  1652  1  0.17993400  0.94190600  0.47882500  1
  H  1653  1  0.16553800  0.97503900  0.42391200  1
  H  1654  1  0.14277200  0.94888100  0.40291800  1
  H  1655  1  0.12698600  0.95524000  0.48032600  1
  H  1656  1  0.10470100  0.92867200  0.45932500  1
  H  1657  1  0.21374300  0.96966400  0.56445900  1
  H  1658  1  0.23793800  0.94545000  0.58657200  1
  H  1659  1  0.29113100  0.94026900  0.53633000  1
  H  1660  1  0.26703600  0.96448200  0.51433300  1
  H  1668  1  0.34982400  0.91184500  0.90213500  1
  H  1670  1  0.27803200  0.89688300  0.87952700  1
  H  1678  1  0.31494900  0.93204900  0.91538200  1
  H  1680  1  0.33327100  0.84331500  0.85262900  1
  H  1686  1  0.59601200  0.36611500  0.62571200  1
  H  1688  1  0.52392100  0.39008800  0.61428600  1
  H  1696  1  0.56209700  0.35307300  0.64721100  1
  H  1698  1  0.57647100  0.41783200  0.55918700  1
  H  1704  1  0.54039200  0.64453400  0.90862100  1
  H  1706  1  0.61111000  0.65302700  0.88056500  1
  H  1714  1  0.57726400  0.63277200  0.92780300  1
  H  1716  1  0.54546400  0.67392600  0.83071000  1
  H  1722  1  0.78768800  0.36141400  0.36004100  1
  H  1724  1  0.85922700  0.38760900  0.36868800  1
  H  1732  1  0.82145600  0.34858500  0.33803500  1
  H  1734  1  0.80606800  0.41464300  0.42473600  1
  H  1740  1  0.53843000  0.41062800  0.90526600  1
  H  1742  1  0.61054000  0.39709600  0.88243400  1
  H  1750  1  0.57319600  0.42840900  0.92158100  1
  H  1752  1  0.55624100  0.34415100  0.85346300  1
  H  1758  1  0.79180000  0.68468400  0.35673900  1
  H  1760  1  0.86365000  0.66225600  0.37189500  1
  H  1768  1  0.82669300  0.69807700  0.33666800  1
  H  1770  1  0.80827900  0.63488200  0.42509000  1
  H  1776  1  0.29192600  0.86600900  0.62963900  1
  H  1778  1  0.36373600  0.88850900  0.61452400  1
  H  1786  1  0.32682300  0.85271300  0.64978000  1
  H  1788  1  0.30836700  0.91577500  0.56126500  1
  H  1794  1  0.10128300  0.85996800  0.36246000  1
  H  1796  1  0.03063480  0.88825100  0.37079500  1
  H  1804  1  0.06441280  0.84098300  0.35043700  1
  H  1806  1  0.09614280  0.93778900  0.39241700  1
  H  1812  1  0.60151100  0.69076800  0.62394500  1
  H  1814  1  0.53082600  0.66265400  0.61557600  1
  H  1822  1  0.56457000  0.70989900  0.63579900  1
  H  1824  1  0.59634400  0.61295000  0.59403500  1
  H  1836  1  0.31562400  0.04534800  0.05160100  1
  H  1837  1  0.36078900  0.08290100  0.05883200  1
  H  1838  1  0.33752200  0.10775000  0.08106800  1
  H  1839  1  0.30392800  0.08467100  0.01155400  1
  H  1840  1  0.28083300  0.10959700  0.03363200  1
  H  1847  1  0.22469800  0.14016700  0.08116200  1
  H  1849  1  0.29678800  0.15361600  0.10401200  1
  H  1855  1  0.25947900  0.12228100  0.06492100  1
  H  1858  1  0.17190800  0.18163800  0.16263700  1
  H  1863  1  0.24241200  0.20665800  0.13288900  1
  H  1864  1  0.14818700  0.20374400  0.18721700  1
  H  1867  1  0.22528600  0.23169000  0.15716000  1
  H  1872  1  0.19120900  0.21194300  0.22272000  1
  H  1874  1  0.14623100  0.25886800  0.16008300  1
  H  1877  1  0.20167500  0.25366500  0.18173300  1
  H  1880  1  0.14370200  0.25963900  0.24304300  1
  H  1883  1  0.19105700  0.21196100  0.26375000  1
  H  1885  1  0.11392000  0.28910300  0.15982300  1
  H  1887  1  0.06076270  0.28782600  0.17427700  1
  H  1888  1  0.11447100  0.28777800  0.24279700  1
  H  1891  1  0.03773570  0.30882400  0.14816300  1
  H  1898  1  0.20688900  0.24898400  0.29655500  1
  H  1901  1  0.04983570  0.29505100  0.29859100  1
  H  1908  1  0.14348500  0.21012900  0.30786000  1
  H  1920  1  0.30135900  0.97020000  0.01433300  1
  H  1921  1  0.27801500  0.94588400  0.03667300  1
  H  1922  1  0.36371600  0.96217500  0.05520500  1
  H  1923  1  0.34036900  0.93749500  0.07752600  1
  H  1924  1  0.31592200  0.00427400  0.05153400  1
  H  1945  1  0.91949100  0.61434300  0.08043500  1
  H  1946  1  0.89566000  0.58929500  0.05893900  1
  H  1947  1  0.98188500  0.60336500  0.04021100  1
  H  1948  1  0.95814200  0.57843600  0.01879700  1
  H  1949  1  0.94312000  0.54515700  0.05562100  1
  H  1950  1  0.94264400  0.50410600  0.05559000  1
  H  1951  1  0.89631300  0.60825700  0.01049400  1
  H  1952  1  0.89384200  0.44202600  0.01083400  1
  H  1953  1  0.89936900  0.46970100  0.06524700  1
  H  1954  1  0.92323700  0.44479700  0.08688900  1
  H  1955  1  0.97418600  0.43739500  0.03516400  1
  H  1956  1  0.95050400  0.46226800  0.01373000  1
  H  1961  1  0.07715170  0.36507900  0.16676000  1
  H  1969  1  0.11563800  0.76029800  0.16034400  1
  H  1970  1  0.14784700  0.79056700  0.16008700  1
  H  1971  1  0.18486400  0.86622700  0.16692400  1
  H  1972  1  0.22310200  0.80968100  0.14721800  1
  H  1973  1  0.09008370  0.68264500  0.16314100  1
  H  1974  1  0.03618970  0.73240000  0.15840400  1
  H  1982  1  0.03568770  0.63873300  0.08449500  1
  H  1984  1  0.96389000  0.65382100  0.10709400  1
  H  1992  1  0.00082865  0.61860100  0.07122400  1
  H  1994  1  0.01908570  0.70731100  0.13401500  1
  H  2000  1  0.22648300  0.90627600  0.07786500  1
  H  2002  1  0.29712900  0.89767600  0.10600500  1
  H  2010  1  0.26336800  0.91807700  0.05876600  1
  H  2012  1  0.23135900  0.87680800  0.15574700  1
  H  2018  1  0.03191170  0.40616300  0.07938600  1
  H  2020  1  0.96230600  0.39566500  0.10884500  1
  H  2028  1  0.99355100  0.41580100  0.06062900  1
  H  2030  1  0.03066470  0.37615300  0.15693600  1
  H  2032  1  0.10060700  0.34408500  0.19248300  1
  H  2043  1  0.16199100  0.84536500  0.19314100  1
  H  2044  1  0.20070600  0.78881500  0.17384100  1
  H  2045  1  0.11417700  0.70496800  0.18719400  1
  H  2046  1  0.06018970  0.75460600  0.18244800  1
  H  2050  1  0.05989370  0.32919200  0.22221200  1
  H  2055  1  0.07114870  0.71302500  0.22296400  1
  H  2056  1  0.20267600  0.82983800  0.22245300  1
  H  2061  1  0.11858000  0.76073400  0.24325800  1
  H  2062  1  0.14729900  0.78930900  0.24303400  1
  H  2063  1  0.06030870  0.32967000  0.26317900  1
  H  2066  1  0.07122170  0.71310900  0.26398100  1
  H  2067  1  0.20220900  0.83034400  0.26344500  1
  H  2074  1  0.05528670  0.75074600  0.29665300  1
  H  2075  1  0.21163100  0.79560500  0.29966000  1
  H  2077  1  0.11135200  0.33723400  0.30476800  1
  H  2083  1  0.11804400  0.71101400  0.30792800  1
  H  2084  1  0.15134100  0.83938700  0.30393600  1
  H  2101  1  0.44292600  0.04642100  0.93098600  1
  H  2102  1  0.39407200  0.02548900  0.97732200  1
  H  2103  1  0.36367900  0.02516000  0.00430800  1
  H  2104  1  0.39409400  0.10860600  0.97571300  1
  H  2105  1  0.36204300  0.10827300  0.00621000  1
  H  2106  1  0.39968000  0.08085900  0.92126800  1
  H  2107  1  0.42353700  0.10573600  0.89960800  1
  H  2108  1  0.47439500  0.11320500  0.95134500  1
  H  2109  1  0.45072600  0.08835900  0.97279900  1
  H  2138  1  0.41772500  0.11225400  0.58250800  1
  H  2139  1  0.39442500  0.08764200  0.56011400  1
  H  2140  1  0.47950000  0.10554700  0.54067300  1
  H  2141  1  0.45617700  0.08117800  0.51823400  1
  H  2142  1  0.44208700  0.04643900  0.55583900  1
  H  2143  1  0.39403700  0.02540200  0.50892000  1
  H  2144  1  0.36572000  0.02491200  0.48007100  1
  H  2145  1  0.39513800  0.10847700  0.50940800  1
  H  2146  1  0.36248900  0.10803500  0.47939300  1
  H  2147  1  0.30112200  0.08210600  0.47398300  1
  H  2148  1  0.27761700  0.10608000  0.45121700  1
  H  2149  1  0.36081700  0.08438300  0.42946200  1
  H  2150  1  0.33736700  0.10859400  0.40673400  1
  H  2151  1  0.31047100  0.04495100  0.43916500  1
  H  2160  1  0.21009000  0.16058800  0.37213000  1
  H  2168  1  0.26258800  0.13291900  0.42730900  1
  H  2175  1  0.54537300  0.16293500  0.61779300  1
  H  2182  1  0.49230200  0.13573600  0.56186700  1
  H  2188  1  0.53212100  0.14441600  0.90709900  1
  H  2190  1  0.46251900  0.15492900  0.87765300  1
  H  2197  1  0.49375800  0.13477900  0.92586300  1
  H  2198  1  0.53092200  0.17442800  0.82957500  1
  H  2201  1  0.58832100  0.19140000  0.65652300  1
  H  2202  1  0.57736200  0.18558700  0.81973600  1
  H  2207  1  0.16671200  0.18862700  0.33333333  1
  H  2209  1  0.28216000  0.18458100  0.36077000  1
  H  2211  1  0.24826500  0.19757100  0.33920600  1
  H  2212  1  0.47382000  0.18917800  0.62646100  1
  H  2215  1  0.50757600  0.20207200  0.64838300  1
  H  2223  1  0.61144900  0.21348000  0.68153900  1
  H  2224  1  0.56046900  0.22090100  0.72330800  1
  H  2225  1  0.56007100  0.22138400  0.76427000  1
  H  2226  1  0.60078700  0.20659500  0.79401500  1
  H  2228  1  0.23003900  0.22757400  0.32192500  1
  H  2238  1  0.52666400  0.23344700  0.66310000  1
  H  2239  1  0.53773400  0.24180200  0.83827800  1
  H  2245  1  0.61440200  0.26296000  0.74363800  1
  H  2246  1  0.61251700  0.26183000  0.66057300  1
  H  2247  1  0.54975400  0.25549700  0.68798500  1
  H  2248  1  0.61387700  0.26161900  0.82662500  1
  H  2249  1  0.56073100  0.26281500  0.81216400  1
  H  2251  1  0.14539800  0.25902900  0.32604800  1
  H  2261  1  0.64363300  0.29105600  0.74339700  1
  H  2262  1  0.64532800  0.29165300  0.66038100  1
  H  2263  1  0.64613200  0.29185700  0.82635600  1
  H  2264  1  0.11254700  0.28886000  0.32586400  1
  H  2268  1  0.70684800  0.30165200  0.68984000  1
  H  2269  1  0.70159100  0.29702200  0.80479500  1
  H  2276  1  0.72513900  0.31901300  0.82935700  1
  H  2277  1  0.02672870  0.31707900  0.32353200  1
  H  2291  1  0.41977100  0.93640000  0.90610400  1
  H  2292  1  0.39590800  0.96146600  0.92760500  1
  H  2293  1  0.48202300  0.94706900  0.94652600  1
  H  2294  1  0.45824900  0.97202000  0.96794600  1
  H  2295  1  0.44336900  0.00536900  0.93099300  1
  H  2296  1  0.39647300  0.94237400  0.97610900  1
  H  2297  1  0.36373600  0.94206800  0.00601600  1
  H  2328  1  0.89387500  0.52515500  0.00925000  1
  H  2329  1  0.86347200  0.52549300  0.98228500  1
  H  2330  1  0.86360600  0.60859500  0.98058500  1
  H  2331  1  0.80122800  0.58057500  0.97227500  1
  H  2332  1  0.77792900  0.60492000  0.94991000  1
  H  2333  1  0.86363200  0.58844100  0.93139700  1
  H  2334  1  0.84033100  0.61314900  0.90905600  1
  H  2335  1  0.81580100  0.54649200  0.93505600  1
  H  2336  1  0.81545100  0.50542000  0.93496300  1
  H  2337  1  0.86180400  0.44239300  0.98034300  1
  H  2338  1  0.86059300  0.46776300  0.92771700  1
  H  2339  1  0.83735600  0.44297000  0.90544800  1
  H  2340  1  0.80364300  0.46607000  0.97493900  1
  H  2341  1  0.78057200  0.44119900  0.95282700  1
  H  2354  1  0.66666667  0.36203800  0.65308700  1
  H  2355  1  0.64340000  0.34052900  0.67857100  1
  H  2356  1  0.72998500  0.32307000  0.66448000  1
  H  2357  1  0.69099700  0.33865500  0.72264700  1
  H  2358  1  0.69115700  0.33868900  0.76367600  1
  H  2359  1  0.64811800  0.34699300  0.79914700  1
  H  2360  1  0.67177700  0.36911600  0.82371400  1
  H  2366  1  0.08820770  0.35928900  0.32983700  1
  H  2376  1  0.09422770  0.68943200  0.33293600  1
  H  2377  1  0.03156770  0.72926300  0.32156500  1
  H  2378  1  0.11642100  0.76040200  0.32625900  1
  H  2379  1  0.14917300  0.79029700  0.32610100  1
  H  2380  1  0.23498200  0.81771100  0.32417200  1
  H  2381  1  0.17466000  0.86147900  0.32879400  1
  H  2432  1  0.59433200  0.86136200  0.65347700  1
  H  2433  1  0.61816500  0.83980700  0.67850900  1
  H  2434  1  0.53174200  0.82151300  0.66486100  1
  H  2435  1  0.55547800  0.80005900  0.68979700  1
  H  2436  1  0.57132700  0.83769600  0.72248900  1
  H  2437  1  0.57125300  0.83775700  0.76350700  1
  H  2438  1  0.61876900  0.79006400  0.74316600  1
  H  2439  1  0.64764100  0.76161500  0.74339200  1
  H  2440  1  0.61666600  0.79046000  0.66016700  1
  H  2441  1  0.64945900  0.76056000  0.66031800  1
  H  2442  1  0.71183200  0.75520500  0.68674600  1
  H  2443  1  0.73521000  0.73309400  0.66221400  1
  H  2444  1  0.65160500  0.71142300  0.68252400  1
  H  2445  1  0.67495200  0.68932700  0.65764400  1
  H  2446  1  0.70234500  0.72030600  0.72293100  1
  H  2447  1  0.70280400  0.72077800  0.76392500  1
  H  2448  1  0.61588900  0.79054500  0.82609300  1
  H  2449  1  0.64812500  0.76025900  0.82634300  1
  H  2450  1  0.66216400  0.70541300  0.79333600  1
  H  2451  1  0.68500700  0.68454800  0.81957900  1
  H  2452  1  0.70096400  0.76190900  0.81250100  1
  H  2453  1  0.72332800  0.74104300  0.83915200  1
  H  2454  1  0.61431200  0.84578700  0.79923200  1
  H  2455  1  0.59021000  0.86807900  0.82335800  1
  H  2456  1  0.53640200  0.81831200  0.82811400  1
  H  2457  1  0.56040700  0.79613700  0.80400300  1
  H  2510  1  0.91777700  0.43843900  0.40392500  1
  H  2511  1  0.89445600  0.46309400  0.42630500  1
  H  2512  1  0.97944200  0.44493100  0.44587400  1
  H  2513  1  0.95609600  0.46933900  0.46830500  1
  H  2514  1  0.94214000  0.50411000  0.43062200  1
  H  2515  1  0.94276500  0.54516000  0.43061500  1
  H  2516  1  0.89399800  0.52525500  0.47746900  1
  H  2517  1  0.86562600  0.52574600  0.50626800  1
  H  2518  1  0.89508500  0.44216600  0.47701700  1
  H  2519  1  0.86242900  0.44263300  0.50704400  1
  H  2520  1  0.80101600  0.46875300  0.51260300  1
  H  2521  1  0.77751200  0.44480000  0.53537500  1
  H  2522  1  0.86083300  0.46615600  0.55694400  1
  H  2523  1  0.83738300  0.44196500  0.57967500  1
  H  2524  1  0.81057700  0.50581900  0.54744700  1
  H  2525  1  0.81068500  0.54683600  0.54703700  1
  H  2526  1  0.89814000  0.60822500  0.47721900  1
  H  2527  1  0.86596300  0.60876700  0.50751400  1
  H  2528  1  0.85189100  0.57578600  0.56243200  1
  H  2529  1  0.82915600  0.60199600  0.58344000  1
  H  2530  1  0.81296500  0.59533600  0.50612800  1
  H  2531  1  0.79070400  0.62195200  0.52714300  1
  H  2532  1  0.89992900  0.58086600  0.42186200  1
  H  2533  1  0.92408700  0.60509400  0.39974600  1
  H  2534  1  0.97711200  0.61045800  0.45006300  1
  H  2535  1  0.95305800  0.58623200  0.47206000  1
  H  2561  1  0.44269100  0.00539000  0.55580600  1
  H  2562  1  0.31054600  0.00393500  0.43954500  1
  H  2563  1  0.39820400  0.94242200  0.50910000  1
  H  2564  1  0.36602500  0.94190600  0.47882500  1
  H  2565  1  0.35162900  0.97503900  0.42391200  1
  H  2566  1  0.32886300  0.94888100  0.40291800  1
  H  2567  1  0.31307700  0.95524000  0.48032600  1
  H  2568  1  0.29079200  0.92867200  0.45932500  1
  H  2569  1  0.39983400  0.96966400  0.56445900  1
  H  2570  1  0.42402900  0.94545000  0.58657200  1
  H  2571  1  0.47722200  0.94026900  0.53633000  1
  H  2572  1  0.45312700  0.96448200  0.51433300  1
  H  2580  1  0.53591500  0.91184500  0.90213500  1
  H  2582  1  0.46412300  0.89688300  0.87952700  1
  H  2590  1  0.50104000  0.93204900  0.91538200  1
  H  2592  1  0.51936200  0.84331500  0.85262900  1
  H  2598  1  0.78210300  0.36611500  0.62571200  1
  H  2600  1  0.71001200  0.39008800  0.61428600  1
  H  2608  1  0.74818800  0.35307300  0.64721100  1
  H  2610  1  0.76256200  0.41783200  0.55918700  1
  H  2616  1  0.72648300  0.64453400  0.90862100  1
  H  2618  1  0.79720100  0.65302700  0.88056500  1
  H  2626  1  0.76335500  0.63277200  0.92780300  1
  H  2628  1  0.73155500  0.67392600  0.83071000  1
  H  2634  1  0.97377900  0.36141400  0.36004100  1
  H  2636  1  0.04531770  0.38760900  0.36868800  1
  H  2644  1  0.00754665  0.34858500  0.33803500  1
  H  2646  1  0.99215900  0.41464300  0.42473600  1
  H  2652  1  0.72452100  0.41062800  0.90526600  1
  H  2654  1  0.79663100  0.39709600  0.88243400  1
  H  2662  1  0.75928700  0.42840900  0.92158100  1
  H  2664  1  0.74233200  0.34415100  0.85346300  1
  H  2670  1  0.97789100  0.68468400  0.35673900  1
  H  2672  1  0.04974070  0.66225600  0.37189500  1
  H  2680  1  0.01278370  0.69807700  0.33666800  1
  H  2682  1  0.99437000  0.63488200  0.42509000  1
  H  2688  1  0.47801700  0.86600900  0.62963900  1
  H  2690  1  0.54982700  0.88850900  0.61452400  1
  H  2698  1  0.51291400  0.85271300  0.64978000  1
  H  2700  1  0.49445800  0.91577500  0.56126500  1
  H  2706  1  0.28737400  0.85996800  0.36246000  1
  H  2708  1  0.21672600  0.88825100  0.37079500  1
  H  2716  1  0.25050400  0.84098300  0.35043700  1
  H  2718  1  0.28223400  0.93778900  0.39241700  1
  H  2724  1  0.78760200  0.69076800  0.62394500  1
  H  2726  1  0.71691700  0.66265400  0.61557600  1
  H  2734  1  0.75066100  0.70989900  0.63579900  1
  H  2736  1  0.78243500  0.61295000  0.59403500  1
  H  2748  1  0.50171400  0.04534800  0.05160100  1
  H  2749  1  0.54687900  0.08290100  0.05883200  1
  H  2750  1  0.52361200  0.10775000  0.08106800  1
  H  2751  1  0.49001800  0.08467100  0.01155400  1
  H  2752  1  0.46692300  0.10959700  0.03363200  1
  H  2759  1  0.41078800  0.14016700  0.08116200  1
  H  2761  1  0.48287800  0.15361600  0.10401200  1
  H  2767  1  0.44556900  0.12228100  0.06492100  1
  H  2770  1  0.35799800  0.18163800  0.16263700  1
  H  2775  1  0.42850200  0.20665800  0.13288900  1
  H  2776  1  0.33427700  0.20374400  0.18721700  1
  H  2779  1  0.41137600  0.23169000  0.15716000  1
  H  2784  1  0.37729900  0.21194300  0.22272000  1
  H  2786  1  0.33232100  0.25886800  0.16008300  1
  H  2789  1  0.38776500  0.25366500  0.18173300  1
  H  2792  1  0.32979200  0.25963900  0.24304300  1
  H  2795  1  0.37714700  0.21196100  0.26375000  1
  H  2797  1  0.30001000  0.28910300  0.15982300  1
  H  2799  1  0.24685300  0.28782600  0.17427700  1
  H  2800  1  0.30056100  0.28777800  0.24279700  1
  H  2803  1  0.22382600  0.30882400  0.14816300  1
  H  2810  1  0.39297900  0.24898400  0.29655500  1
  H  2813  1  0.23592600  0.29505100  0.29859100  1
  H  2820  1  0.32957500  0.21012900  0.30786000  1
  H  2832  1  0.48744900  0.97020000  0.01433300  1
  H  2833  1  0.46410500  0.94588400  0.03667300  1
  H  2834  1  0.54980600  0.96217500  0.05520500  1
  H  2835  1  0.52645900  0.93749500  0.07752600  1
  H  2836  1  0.50201200  0.00427400  0.05153400  1
  H  2857  1  0.10558100  0.61434300  0.08043500  1
  H  2858  1  0.08175050  0.58929500  0.05893900  1
  H  2859  1  0.16797500  0.60336500  0.04021100  1
  H  2860  1  0.14423200  0.57843600  0.01879700  1
  H  2861  1  0.12921000  0.54515700  0.05562100  1
  H  2862  1  0.12873400  0.50410600  0.05559000  1
  H  2863  1  0.08240350  0.60825700  0.01049400  1
  H  2864  1  0.07993250  0.44202600  0.01083400  1
  H  2865  1  0.08545950  0.46970100  0.06524700  1
  H  2866  1  0.10932700  0.44479700  0.08688900  1
  H  2867  1  0.16027600  0.43739500  0.03516400  1
  H  2868  1  0.13659400  0.46226800  0.01373000  1
  H  2873  1  0.26324200  0.36507900  0.16676000  1
  H  2881  1  0.30172800  0.76029800  0.16034400  1
  H  2882  1  0.33393700  0.79056700  0.16008700  1
  H  2883  1  0.37095400  0.86622700  0.16692400  1
  H  2884  1  0.40919200  0.80968100  0.14721800  1
  H  2885  1  0.27617400  0.68264500  0.16314100  1
  H  2886  1  0.22228000  0.73240000  0.15840400  1
  H  2894  1  0.22177800  0.63873300  0.08449500  1
  H  2896  1  0.14998000  0.65382100  0.10709400  1
  H  2904  1  0.18691900  0.61860100  0.07122400  1
  H  2906  1  0.20517600  0.70731100  0.13401500  1
  H  2912  1  0.41257300  0.90627600  0.07786500  1
  H  2914  1  0.48321900  0.89767600  0.10600500  1
  H  2922  1  0.44945800  0.91807700  0.05876600  1
  H  2924  1  0.41744900  0.87680800  0.15574700  1
  H  2930  1  0.21800200  0.40616300  0.07938600  1
  H  2932  1  0.14839600  0.39566500  0.10884500  1
  H  2940  1  0.17964100  0.41580100  0.06062900  1
  H  2942  1  0.21675500  0.37615300  0.15693600  1
  H  2944  1  0.28669700  0.34408500  0.19248300  1
  H  2955  1  0.34808100  0.84536500  0.19314100  1
  H  2956  1  0.38679600  0.78881500  0.17384100  1
  H  2957  1  0.30026700  0.70496800  0.18719400  1
  H  2958  1  0.24628000  0.75460600  0.18244800  1
  H  2962  1  0.24598400  0.32919200  0.22221200  1
  H  2967  1  0.25723900  0.71302500  0.22296400  1
  H  2968  1  0.38876600  0.82983800  0.22245300  1
  H  2973  1  0.30467000  0.76073400  0.24325800  1
  H  2974  1  0.33338900  0.78930900  0.24303400  1
  H  2975  1  0.24639900  0.32967000  0.26317900  1
  H  2978  1  0.25731200  0.71310900  0.26398100  1
  H  2979  1  0.38829900  0.83034400  0.26344500  1
  H  2986  1  0.24137700  0.75074600  0.29665300  1
  H  2987  1  0.39772100  0.79560500  0.29966000  1
  H  2989  1  0.29744200  0.33723400  0.30476800  1
  H  2995  1  0.30413400  0.71101400  0.30792800  1
  H  2996  1  0.33743100  0.83938700  0.30393600  1
  H  3013  1  0.62901600  0.04642100  0.93098600  1
  H  3014  1  0.58016200  0.02548900  0.97732200  1
  H  3015  1  0.54976900  0.02516000  0.00430800  1
  H  3016  1  0.58018400  0.10860600  0.97571300  1
  H  3017  1  0.54813300  0.10827300  0.00621000  1
  H  3018  1  0.58577000  0.08085900  0.92126800  1
  H  3019  1  0.60962700  0.10573600  0.89960800  1
  H  3020  1  0.66048500  0.11320500  0.95134500  1
  H  3021  1  0.63681600  0.08835900  0.97279900  1
  H  3050  1  0.60381500  0.11225400  0.58250800  1
  H  3051  1  0.58051500  0.08764200  0.56011400  1
  H  3052  1  0.66559000  0.10554700  0.54067300  1
  H  3053  1  0.64226700  0.08117800  0.51823400  1
  H  3054  1  0.62817700  0.04643900  0.55583900  1
  H  3055  1  0.58012700  0.02540200  0.50892000  1
  H  3056  1  0.55181000  0.02491200  0.48007100  1
  H  3057  1  0.58122800  0.10847700  0.50940800  1
  H  3058  1  0.54857900  0.10803500  0.47939300  1
  H  3059  1  0.48721200  0.08210600  0.47398300  1
  H  3060  1  0.46370700  0.10608000  0.45121700  1
  H  3061  1  0.54690700  0.08438300  0.42946200  1
  H  3062  1  0.52345700  0.10859400  0.40673400  1
  H  3063  1  0.49656100  0.04495100  0.43916500  1
  H  3072  1  0.39618000  0.16058800  0.37213000  1
  H  3080  1  0.44867800  0.13291900  0.42730900  1
  H  3087  1  0.73146300  0.16293500  0.61779300  1
  H  3094  1  0.67839200  0.13573600  0.56186700  1
  H  3100  1  0.71821100  0.14441600  0.90709900  1
  H  3102  1  0.64860900  0.15492900  0.87765300  1
  H  3109  1  0.67984800  0.13477900  0.92586300  1
  H  3110  1  0.71701200  0.17442800  0.82957500  1
  H  3113  1  0.77441100  0.19140000  0.65652300  1
  H  3114  1  0.76345200  0.18558700  0.81973600  1
  H  3119  1  0.35280200  0.18862700  0.33333333  1
  H  3121  1  0.46825000  0.18458100  0.36077000  1
  H  3123  1  0.43435500  0.19757100  0.33920600  1
  H  3124  1  0.65991000  0.18917800  0.62646100  1
  H  3127  1  0.69366600  0.20207200  0.64838300  1
  H  3135  1  0.79753900  0.21348000  0.68153900  1
  H  3136  1  0.74655900  0.22090100  0.72330800  1
  H  3137  1  0.74616100  0.22138400  0.76427000  1
  H  3138  1  0.78687700  0.20659500  0.79401500  1
  H  3140  1  0.41612900  0.22757400  0.32192500  1
  H  3150  1  0.71275400  0.23344700  0.66310000  1
  H  3151  1  0.72382400  0.24180200  0.83827800  1
  H  3157  1  0.80049200  0.26296000  0.74363800  1
  H  3158  1  0.79860700  0.26183000  0.66057300  1
  H  3159  1  0.73584400  0.25549700  0.68798500  1
  H  3160  1  0.79996700  0.26161900  0.82662500  1
  H  3161  1  0.74682100  0.26281500  0.81216400  1
  H  3163  1  0.33148800  0.25902900  0.32604800  1
  H  3173  1  0.82972300  0.29105600  0.74339700  1
  H  3174  1  0.83141800  0.29165300  0.66038100  1
  H  3175  1  0.83222200  0.29185700  0.82635600  1
  H  3176  1  0.29863700  0.28886000  0.32586400  1
  H  3180  1  0.89293800  0.30165200  0.68984000  1
  H  3181  1  0.88768100  0.29702200  0.80479500  1
  H  3188  1  0.91122900  0.31901300  0.82935700  1
  H  3189  1  0.21281900  0.31707900  0.32353200  1
  H  3203  1  0.60586100  0.93640000  0.90610400  1
  H  3204  1  0.58199800  0.96146600  0.92760500  1
  H  3205  1  0.66811300  0.94706900  0.94652600  1
  H  3206  1  0.64433900  0.97202000  0.96794600  1
  H  3207  1  0.62945900  0.00536900  0.93099300  1
  H  3208  1  0.58256300  0.94237400  0.97610900  1
  H  3209  1  0.54982600  0.94206800  0.00601600  1
  H  3240  1  0.07996550  0.52515500  0.00925000  1
  H  3241  1  0.04956250  0.52549300  0.98228500  1
  H  3242  1  0.04969650  0.60859500  0.98058500  1
  H  3243  1  0.98731800  0.58057500  0.97227500  1
  H  3244  1  0.96401900  0.60492000  0.94991000  1
  H  3245  1  0.04972250  0.58844100  0.93139700  1
  H  3246  1  0.02642150  0.61314900  0.90905600  1
  H  3247  1  0.00189148  0.54649200  0.93505600  1
  H  3248  1  0.00154148  0.50542000  0.93496300  1
  H  3249  1  0.04789450  0.44239300  0.98034300  1
  H  3250  1  0.04668350  0.46776300  0.92771700  1
  H  3251  1  0.02344650  0.44297000  0.90544800  1
  H  3252  1  0.98973300  0.46607000  0.97493900  1
  H  3253  1  0.96666200  0.44119900  0.95282700  1
  H  3266  1  0.85270700  0.36203800  0.65308700  1
  H  3267  1  0.82949000  0.34052900  0.67857100  1
  H  3268  1  0.91607500  0.32307000  0.66448000  1
  H  3269  1  0.87708700  0.33865500  0.72264700  1
  H  3270  1  0.87724700  0.33868900  0.76367600  1
  H  3271  1  0.83420800  0.34699300  0.79914700  1
  H  3272  1  0.85786700  0.36911600  0.82371400  1
  H  3278  1  0.27429800  0.35928900  0.32983700  1
  H  3288  1  0.28031800  0.68943200  0.33293600  1
  H  3289  1  0.21765800  0.72926300  0.32156500  1
  H  3290  1  0.30251100  0.76040200  0.32625900  1
  H  3291  1  0.33526300  0.79029700  0.32610100  1
  H  3292  1  0.42107200  0.81771100  0.32417200  1
  H  3293  1  0.36075000  0.86147900  0.32879400  1
  H  3344  1  0.78042200  0.86136200  0.65347700  1
  H  3345  1  0.80425500  0.83980700  0.67850900  1
  H  3346  1  0.71783200  0.82151300  0.66486100  1
  H  3347  1  0.74156800  0.80005900  0.68979700  1
  H  3348  1  0.75741700  0.83769600  0.72248900  1
  H  3349  1  0.75734300  0.83775700  0.76350700  1
  H  3350  1  0.80485900  0.79006400  0.74316600  1
  H  3351  1  0.83373100  0.76161500  0.74339200  1
  H  3352  1  0.80275600  0.79046000  0.66016700  1
  H  3353  1  0.83554900  0.76056000  0.66031800  1
  H  3354  1  0.89792200  0.75520500  0.68674600  1
  H  3355  1  0.92130000  0.73309400  0.66221400  1
  H  3356  1  0.83769500  0.71142300  0.68252400  1
  H  3357  1  0.86104200  0.68932700  0.65764400  1
  H  3358  1  0.88843500  0.72030600  0.72293100  1
  H  3359  1  0.88889400  0.72077800  0.76392500  1
  H  3360  1  0.80197900  0.79054500  0.82609300  1
  H  3361  1  0.83421500  0.76025900  0.82634300  1
  H  3362  1  0.84825400  0.70541300  0.79333600  1
  H  3363  1  0.87109700  0.68454800  0.81957900  1
  H  3364  1  0.88705400  0.76190900  0.81250100  1
  H  3365  1  0.90941800  0.74104300  0.83915200  1
  H  3366  1  0.80040200  0.84578700  0.79923200  1
  H  3367  1  0.77630000  0.86807900  0.82335800  1
  H  3368  1  0.72249200  0.81831200  0.82811400  1
  H  3369  1  0.74649700  0.79613700  0.80400300  1
  H  3422  1  0.10386700  0.43843900  0.40392500  1
  H  3423  1  0.08054650  0.46309400  0.42630500  1
  H  3424  1  0.16553200  0.44493100  0.44587400  1
  H  3425  1  0.14218600  0.46933900  0.46830500  1
  H  3426  1  0.12823000  0.50411000  0.43062200  1
  H  3427  1  0.12885500  0.54516000  0.43061500  1
  H  3428  1  0.08008850  0.52525500  0.47746900  1
  H  3429  1  0.05171650  0.52574600  0.50626800  1
  H  3430  1  0.08117550  0.44216600  0.47701700  1
  H  3431  1  0.04851950  0.44263300  0.50704400  1
  H  3432  1  0.98710600  0.46875300  0.51260300  1
  H  3433  1  0.96360200  0.44480000  0.53537500  1
  H  3434  1  0.04692350  0.46615600  0.55694400  1
  H  3435  1  0.02347350  0.44196500  0.57967500  1
  H  3436  1  0.99666700  0.50581900  0.54744700  1
  H  3437  1  0.99677500  0.54683600  0.54703700  1
  H  3438  1  0.08423050  0.60822500  0.47721900  1
  H  3439  1  0.05205350  0.60876700  0.50751400  1
  H  3440  1  0.03798150  0.57578600  0.56243200  1
  H  3441  1  0.01524650  0.60199600  0.58344000  1
  H  3442  1  0.99905500  0.59533600  0.50612800  1
  H  3443  1  0.97679400  0.62195200  0.52714300  1
  H  3444  1  0.08601950  0.58086600  0.42186200  1
  H  3445  1  0.11017700  0.60509400  0.39974600  1
  H  3446  1  0.16320200  0.61045800  0.45006300  1
  H  3447  1  0.13914800  0.58623200  0.47206000  1
  H  3473  1  0.62878100  0.00539000  0.55580600  1
  H  3474  1  0.49663600  0.00393500  0.43954500  1
  H  3475  1  0.58429400  0.94242200  0.50910000  1
  H  3476  1  0.55211500  0.94190600  0.47882500  1
  H  3477  1  0.53771900  0.97503900  0.42391200  1
  H  3478  1  0.51495300  0.94888100  0.40291800  1
  H  3479  1  0.49916700  0.95524000  0.48032600  1
  H  3480  1  0.47688200  0.92867200  0.45932500  1
  H  3481  1  0.58592400  0.96966400  0.56445900  1
  H  3482  1  0.61011900  0.94545000  0.58657200  1
  H  3483  1  0.66331200  0.94026900  0.53633000  1
  H  3484  1  0.63921700  0.96448200  0.51433300  1
  H  3492  1  0.72200500  0.91184500  0.90213500  1
  H  3494  1  0.65021300  0.89688300  0.87952700  1
  H  3502  1  0.68713000  0.93204900  0.91538200  1
  H  3504  1  0.70545200  0.84331500  0.85262900  1
  H  3510  1  0.96819300  0.36611500  0.62571200  1
  H  3512  1  0.89610200  0.39008800  0.61428600  1
  H  3520  1  0.93427800  0.35307300  0.64721100  1
  H  3522  1  0.94865200  0.41783200  0.55918700  1
  H  3528  1  0.91257300  0.64453400  0.90862100  1
  H  3530  1  0.98329100  0.65302700  0.88056500  1
  H  3538  1  0.94944500  0.63277200  0.92780300  1
  H  3540  1  0.91764500  0.67392600  0.83071000  1
  H  3546  1  0.15986900  0.36141400  0.36004100  1
  H  3548  1  0.23140800  0.38760900  0.36868800  1
  H  3556  1  0.19363700  0.34858500  0.33803500  1
  H  3558  1  0.17824900  0.41464300  0.42473600  1
  H  3564  1  0.91061100  0.41062800  0.90526600  1
  H  3566  1  0.98272100  0.39709600  0.88243400  1
  H  3574  1  0.94537700  0.42840900  0.92158100  1
  H  3576  1  0.92842200  0.34415100  0.85346300  1
  H  3582  1  0.16398100  0.68468400  0.35673900  1
  H  3584  1  0.23583100  0.66225600  0.37189500  1
  H  3592  1  0.19887400  0.69807700  0.33666800  1
  H  3594  1  0.18046000  0.63488200  0.42509000  1
  H  3600  1  0.66410700  0.86600900  0.62963900  1
  H  3602  1  0.73591700  0.88850900  0.61452400  1
  H  3610  1  0.69900400  0.85271300  0.64978000  1
  H  3612  1  0.68054800  0.91577500  0.56126500  1
  H  3618  1  0.47346400  0.85996800  0.36246000  1
  H  3620  1  0.40281600  0.88825100  0.37079500  1
  H  3628  1  0.43659400  0.84098300  0.35043700  1
  H  3630  1  0.46832400  0.93778900  0.39241700  1
  H  3636  1  0.97369200  0.69076800  0.62394500  1
  H  3638  1  0.90300700  0.66265400  0.61557600  1
  H  3646  1  0.93675100  0.70989900  0.63579900  1
  H  3648  1  0.96852500  0.61295000  0.59403500  1
  C  2  1  0.97036400  0.04337200  0.02523800  1
  C  3  1  0.95388000  0.03609200  0.04123500  1
  C  4  1  0.95402900  0.01366100  0.04118000  1
  C  5  1  0.97536600  0.06563800  0.02055300  1
  C  6  1  0.96244400  0.08164800  0.03303400  1
  C  7  1  0.97187900  0.08863500  0.05329300  1
  C  8  1  0.95816600  0.10315000  0.06635800  1
  C  9  1  0.93460500  0.11084100  0.05969500  1
  C  10  1  0.92543200  0.10409900  0.03919700  1
  C  11  1  0.93910500  0.08961400  0.02608200  1
  C  18  1  0.89023300  0.14433400  0.09007400  1
  C  19  1  0.86437000  0.14837300  0.09129800  1
  C  20  1  0.85410200  0.16388900  0.10576400  1
  C  21  1  0.87005700  0.17587000  0.11979100  1
  C  22  1  0.89612100  0.17172800  0.11909100  1
  C  24  1  0.90577200  0.15610600  0.10437900  1
  C  30  1  0.89938000  0.12946000  0.07483700  1
  C  32  1  0.82867100  0.20447200  0.15741600  1
  C  33  1  0.80605300  0.19690400  0.16632500  1
  C  38  1  0.86092200  0.19271000  0.13279000  1
  C  41  1  0.83675400  0.22564700  0.16309300  1
  C  42  1  0.79202400  0.20991400  0.18065200  1
  C  44  1  0.80031800  0.23092000  0.18648300  1
  C  45  1  0.82283300  0.23865600  0.17750000  1
  C  46  1  0.78732300  0.24330900  0.20254300  1
  C  47  1  0.80854100  0.22225600  0.23199400  1
  C  49  1  0.79215400  0.23837700  0.22477400  1
  C  51  1  0.77047600  0.25958100  0.19526000  1
  C  52  1  0.76592800  0.26530300  0.17366200  1
  C  54  1  0.80850800  0.22230300  0.25440700  1
  C  57  1  0.74837600  0.28173200  0.17353500  1
  C  60  1  0.79228200  0.23859100  0.26151700  1
  C  62  1  0.74168400  0.28609100  0.19503500  1
  C  65  1  0.78747000  0.24366300  0.28372400  1
  C  68  1  0.69232400  0.30407200  0.17273000  1
  C  69  1  0.72385300  0.30168400  0.20208400  1
  C  70  1  0.71810800  0.30585300  0.22433300  1
  C  72  1  0.71809000  0.30590700  0.26111200  1
  C  73  1  0.72378800  0.30175500  0.28335400  1
  C  75  1  0.77035000  0.25979700  0.29081800  1
  C  76  1  0.74154800  0.28625100  0.29064500  1
  C  78  1  0.67875600  0.31639300  0.15745700  1
  C  79  1  0.71075800  0.31392600  0.18585300  1
  C  80  1  0.69960200  0.32014000  0.23150200  1
  C  81  1  0.69979300  0.32037400  0.25390900  1
  C  82  1  0.71063300  0.31399600  0.29944100  1
  C  83  1  0.78948000  0.21406200  0.31089900  1
  C  85  1  0.80076800  0.23168100  0.29993000  1
  C  86  1  0.82599700  0.23639900  0.30435500  1
  C  87  1  0.68599800  0.30844500  0.30525400  1
  C  88  1  0.97574400  0.98439100  0.02024100  1
  C  89  1  0.97049600  0.00659800  0.02506500  1
  C  90  1  0.96272300  0.96814200  0.03239300  1
  C  91  1  0.93778000  0.96297800  0.02731200  1
  C  92  1  0.92405300  0.94862200  0.04051600  1
  C  93  1  0.93487100  0.93889200  0.05913800  1
  C  94  1  0.95988900  0.94397300  0.06401500  1
  C  95  1  0.97365800  0.95839500  0.05087500  1
  C  102  1  0.56019900  0.53596100  0.04546100  1
  C  103  1  0.55989600  0.51353100  0.04548200  1
  C  104  1  0.54292600  0.50653100  0.02976400  1
  C  106  1  0.54360500  0.54332000  0.02958300  1
  C  107  1  0.53883800  0.56561900  0.02478100  1
  C  108  1  0.53743500  0.48434200  0.02510100  1
  C  109  1  0.55029900  0.46805500  0.03732700  1
  C  110  1  0.57212000  0.45834700  0.02897100  1
  C  111  1  0.58611000  0.44374500  0.04169800  1
  C  112  1  0.57878800  0.43847500  0.06319700  1
  C  113  1  0.55677900  0.44805200  0.07135000  1
  C  114  1  0.54269000  0.46262500  0.05863800  1
  C  115  1  0.55242800  0.58162800  0.03675300  1
  C  116  1  0.54157700  0.59234500  0.05473200  1
  C  117  1  0.57756100  0.58605800  0.03165000  1
  C  118  1  0.59158300  0.60057700  0.04441100  1
  C  119  1  0.58091100  0.61106100  0.06267400  1
  C  120  1  0.55561600  0.60697900  0.06738700  1
  C  135  1  0.70130300  0.34882600  0.16828900  1
  C  136  1  0.68265300  0.33899500  0.15540300  1
  C  139  1  0.68058500  0.72650100  0.16400600  1
  C  140  1  0.68869100  0.70533200  0.15829500  1
  C  141  1  0.71157500  0.69792100  0.16682000  1
  C  142  1  0.81628800  0.84994900  0.16837100  1
  C  143  1  0.83439700  0.83998800  0.15497600  1
  C  144  1  0.83816500  0.81735500  0.15691300  1
  C  153  1  0.62588400  0.64366900  0.09336400  1
  C  154  1  0.65180000  0.64749000  0.09431800  1
  C  155  1  0.66233100  0.66347100  0.10810100  1
  C  156  1  0.64660700  0.67616500  0.12172600  1
  C  157  1  0.62048100  0.67230500  0.12124800  1
  C  159  1  0.61055900  0.65621800  0.10719900  1
  C  167  1  0.61653600  0.62798200  0.07907600  1
  C  169  1  0.65606000  0.69327300  0.13419600  1
  C  171  1  0.89141900  0.90409300  0.08916800  1
  C  172  1  0.86553200  0.90001800  0.08978700  1
  C  173  1  0.85429900  0.88792700  0.10674500  1
  C  174  1  0.86934500  0.87930400  0.12365600  1
  C  175  1  0.89544900  0.88298900  0.12324800  1
  C  177  1  0.90610500  0.89522600  0.10605100  1
  C  185  1  0.90136900  0.91636600  0.07214100  1
  C  187  1  0.85834100  0.86924100  0.14146700  1
  C  189  1  0.62302300  0.40301500  0.09146200  1
  C  190  1  0.64904100  0.39958600  0.09151500  1
  C  191  1  0.66109200  0.38765600  0.10815400  1
  C  192  1  0.64675000  0.37854100  0.12526800  1
  C  193  1  0.62053200  0.38159500  0.12543000  1
  C  195  1  0.60904400  0.39370600  0.10855500  1
  C  203  1  0.61221000  0.41493600  0.07463100  1
  C  205  1  0.65852600  0.36849800  0.14268500  1
  C  207  1  0.71521100  0.33645300  0.18324700  1
  C  209  1  0.77605500  0.78728900  0.19527700  1
  C  210  1  0.74733400  0.76074700  0.19549300  1
  C  211  1  0.75171300  0.76660800  0.17390900  1
  C  212  1  0.76918900  0.78307700  0.17379100  1
  C  213  1  0.71751100  0.73206300  0.18672200  1
  C  214  1  0.69473700  0.73964500  0.17810000  1
  C  215  1  0.72582000  0.71106100  0.18084200  1
  C  216  1  0.80700000  0.81507500  0.18606200  1
  C  217  1  0.80272800  0.83765700  0.18363300  1
  C  218  1  0.82496000  0.80511500  0.17248600  1
  C  223  1  0.79394400  0.80281900  0.20232000  1
  C  225  1  0.73056500  0.74442400  0.20275900  1
  C  227  1  0.70943700  0.72334200  0.23222500  1
  C  228  1  0.72579000  0.73946700  0.22499500  1
  C  229  1  0.79975600  0.80689100  0.22457700  1
  C  230  1  0.81847500  0.82093300  0.23175000  1
  C  233  1  0.70942200  0.72342800  0.25463400  1
  C  236  1  0.81825500  0.82118600  0.25416300  1
  C  240  1  0.72560000  0.73973500  0.26173300  1
  C  241  1  0.79969800  0.80699500  0.26136700  1
  C  244  1  0.73029200  0.74488400  0.28393700  1
  C  246  1  0.79385100  0.80299600  0.28361600  1
  C  247  1  0.74734500  0.76103700  0.29104400  1
  C  248  1  0.77607600  0.78751700  0.29089400  1
  C  249  1  0.80696500  0.81523300  0.29972600  1
  C  252  1  0.72143400  0.33271500  0.30882900  1
  C  254  1  0.83128500  0.80922400  0.30606300  1
  C  255  1  0.79660500  0.83446200  0.30847400  1
  C  256  1  0.71678700  0.73303400  0.30009900  1
  C  257  1  0.72772600  0.71515100  0.31092500  1
  C  258  1  0.69157900  0.73799800  0.30439900  1
  C  261  1  0.06043200  0.01459500  0.94113400  1
  C  262  1  0.06014300  0.03702500  0.94108600  1
  C  263  1  0.04316200  0.04406700  0.95679500  1
  C  265  1  0.99228400  0.07303400  0.00441600  1
  C  267  1  0.02061400  0.07332700  0.97761000  1
  C  268  1  0.01482700  0.09487000  0.98272700  1
  C  269  1  0.99744400  0.09469100  0.99928100  1
  C  270  1  0.03769900  0.06627100  0.96144400  1
  C  271  1  0.05056300  0.08253600  0.94920000  1
  C  272  1  0.07236100  0.09225400  0.95754600  1
  C  273  1  0.08633200  0.10685700  0.94481700  1
  C  274  1  0.07903600  0.11209800  0.92330500  1
  C  275  1  0.05705300  0.10251100  0.91515600  1
  C  276  1  0.04298600  0.08793600  0.92787400  1
  C  287  1  0.05939700  0.03702200  0.54569400  1
  C  288  1  0.05968300  0.01459700  0.54570800  1
  C  290  1  0.04282300  0.04403000  0.52964800  1
  C  291  1  0.03772700  0.06622400  0.52465600  1
  C  292  1  0.02055800  0.07321200  0.50853700  1
  C  294  1  0.99188600  0.07281300  0.48201700  1
  C  295  1  0.99767100  0.09448200  0.48655600  1
  C  296  1  0.01532600  0.09472700  0.50288400  1
  C  297  1  0.97427200  0.06535900  0.46649700  1
  C  298  1  0.96875300  0.04306200  0.46240200  1
  C  300  1  0.95033300  0.01331300  0.44840300  1
  C  301  1  0.95027400  0.03573900  0.44820600  1
  C  302  1  0.96115800  0.08131200  0.45405600  1
  C  303  1  0.93693800  0.08796700  0.46006200  1
  C  304  1  0.92310400  0.10202700  0.44660100  1
  C  305  1  0.93312700  0.10985600  0.42679800  1
  C  306  1  0.95745900  0.10335500  0.42102100  1
  C  307  1  0.97130800  0.08924200  0.43440900  1
  C  308  1  0.05073200  0.08248800  0.53678300  1
  C  309  1  0.03997600  0.09172500  0.55560200  1
  C  310  1  0.07552600  0.08802600  0.53147900  1
  C  311  1  0.08923400  0.10237000  0.54471200  1
  C  312  1  0.07855800  0.11156900  0.56364600  1
  C  313  1  0.05373600  0.10606200  0.56881200  1
  C  330  1  0.87232000  0.17505500  0.36383400  1
  C  331  1  0.89799300  0.17440600  0.36879900  1
  C  332  1  0.90788000  0.16041600  0.38492800  1
  C  333  1  0.89174100  0.14626900  0.39660900  1
  C  334  1  0.86586500  0.14645300  0.39158900  1
  C  335  1  0.85658800  0.16072400  0.37538900  1
  C  343  1  0.90047200  0.13345200  0.41377500  1
  C  345  1  0.13904800  0.17860900  0.62461300  1
  C  346  1  0.11351100  0.17839600  0.61911700  1
  C  347  1  0.10364400  0.16401500  0.60334200  1
  C  348  1  0.11966200  0.14907300  0.59254500  1
  C  349  1  0.14544600  0.14882000  0.59819200  1
  C  350  1  0.15462000  0.16338100  0.61405200  1
  C  357  1  0.11076900  0.13590000  0.57577400  1
  C  359  1  0.12323500  0.14757100  0.89503100  1
  C  360  1  0.14924500  0.15101000  0.89498200  1
  C  361  1  0.16129000  0.16294100  0.87834300  1
  C  362  1  0.14694800  0.17206800  0.86123500  1
  C  363  1  0.12073500  0.16901100  0.86107400  1
  C  365  1  0.10925300  0.15689000  0.87794500  1
  C  372  1  0.11242700  0.13564200  0.91186100  1
  C  375  1  0.20145300  0.20183400  0.81819000  1
  C  376  1  0.20786900  0.20497600  0.66291400  1
  C  381  1  0.82852600  0.20576900  0.32994700  1
  C  382  1  0.80316300  0.20141000  0.32580800  1
  C  386  1  0.86360600  0.18949100  0.34798900  1
  C  390  1  0.14781900  0.19350700  0.63999000  1
  C  393  1  0.15872300  0.18210700  0.84381200  1
  C  394  1  0.21535000  0.21421500  0.80323700  1
  C  395  1  0.18274100  0.21164300  0.83105600  1
  C  396  1  0.17231600  0.22901100  0.66679800  1
  C  397  1  0.18296100  0.21004100  0.65760900  1
  C  398  1  0.22148900  0.21795800  0.67755300  1
  C  403  1  0.83965900  0.22364700  0.31916300  1
  C  405  1  0.21813600  0.24473300  0.72533600  1
  C  406  1  0.21818100  0.24478700  0.76212300  1
  C  407  1  0.19973700  0.23045800  0.75497100  1
  C  408  1  0.19991400  0.23022400  0.73256200  1
  C  409  1  0.21082800  0.23673600  0.80061100  1
  C  410  1  0.17878200  0.23424100  0.82898700  1
  C  411  1  0.19234200  0.24657300  0.81372300  1
  C  412  1  0.21064900  0.23664900  0.68700100  1
  C  413  1  0.18596000  0.24213200  0.68128100  1
  C  416  1  0.24155000  0.26439000  0.69579100  1
  C  417  1  0.22380000  0.24889100  0.70308200  1
  C  419  1  0.22390100  0.24898300  0.78437000  1
  C  420  1  0.24169100  0.26459000  0.79141100  1
  C  426  1  0.76538500  0.26549200  0.31235500  1
  C  429  1  0.24756400  0.26895100  0.67418400  1
  C  431  1  0.24834600  0.26897400  0.81291000  1
  C  432  1  0.74759100  0.28172200  0.31225200  1
  C  433  1  0.27031200  0.29085300  0.69561300  1
  C  434  1  0.26533800  0.28517500  0.67407600  1
  C  435  1  0.27044400  0.29110800  0.79117900  1
  C  436  1  0.26587400  0.28540200  0.81277800  1
  C  442  1  0.28741800  0.30698100  0.70269800  1
  C  443  1  0.28727800  0.30737600  0.78389500  1
  C  446  1  0.29211600  0.31227700  0.76165400  1
  C  447  1  0.29223900  0.31204700  0.72490300  1
  C  448  1  0.30024500  0.31978600  0.79995000  1
  C  449  1  0.32273900  0.31204900  0.80898200  1
  C  450  1  0.30070400  0.31896300  0.68648400  1
  C  451  1  0.32593800  0.31423400  0.68203800  1
  C  454  1  0.04380800  0.00728200  0.95700900  1
  C  455  1  0.03901900  0.98499800  0.96184400  1
  C  456  1  0.02178500  0.97762300  0.97774900  1
  C  458  1  0.99306000  0.97734400  0.00425900  1
  C  459  1  0.99881900  0.95580000  0.99913800  1
  C  460  1  0.01659700  0.95597200  0.98290700  1
  C  461  1  0.05260800  0.96897000  0.94988500  1
  C  462  1  0.04179900  0.95834500  0.93184900  1
  C  463  1  0.07770500  0.96445300  0.95505300  1
  C  464  1  0.09174400  0.94992600  0.94229200  1
  C  465  1  0.08111300  0.93952700  0.92397900  1
  C  466  1  0.05584700  0.94368800  0.91920600  1
  C  475  1  0.52160800  0.57301200  0.00887800  1
  C  477  1  0.49290500  0.57331600  0.98236200  1
  C  478  1  0.49866400  0.59485500  0.98748100  1
  C  479  1  0.51642900  0.59466700  0.00371200  1
  C  480  1  0.47560400  0.56629200  0.96637500  1
  C  481  1  0.47032500  0.54409800  0.96154400  1
  C  483  1  0.47015500  0.50732200  0.96133900  1
  C  484  1  0.45370700  0.51464700  0.94533800  1
  C  485  1  0.45386500  0.53707800  0.94542000  1
  C  486  1  0.47512800  0.48504000  0.96600200  1
  C  487  1  0.49203600  0.47762700  0.98213800  1
  C  489  1  0.52035300  0.47730700  0.00894300  1
  C  490  1  0.51457100  0.45577000  0.00382400  1
  C  491  1  0.49719600  0.45596700  0.98727300  1
  C  492  1  0.46220900  0.46905200  0.95350200  1
  C  493  1  0.47167400  0.46205000  0.93324600  1
  C  494  1  0.45797600  0.44756500  0.92015900  1
  C  495  1  0.43438900  0.43991200  0.92678400  1
  C  496  1  0.42518800  0.44666500  0.94728000  1
  C  497  1  0.43884700  0.46112100  0.96041800  1
  C  498  1  0.46261700  0.58256600  0.95422100  1
  C  499  1  0.43767300  0.58777900  0.95929700  1
  C  500  1  0.42397500  0.60215400  0.94608300  1
  C  501  1  0.43482800  0.61185600  0.92746300  1
  C  502  1  0.45984000  0.60671300  0.92258300  1
  C  503  1  0.47358300  0.59227800  0.93573700  1
  C  520  1  0.30846400  0.32831800  0.73200000  1
  C  521  1  0.30849800  0.32837600  0.75441300  1
  C  522  1  0.33662900  0.32507200  0.82338200  1
  C  523  1  0.32853800  0.34626900  0.82901400  1
  C  524  1  0.30593900  0.35384000  0.82005700  1
  C  525  1  0.29195100  0.34082100  0.80573000  1
  C  526  1  0.28940100  0.33658900  0.67552300  1
  C  527  1  0.33959700  0.32700000  0.66724500  1
  C  528  1  0.32845200  0.34489100  0.65647600  1
  C  529  1  0.30308100  0.34925300  0.66062600  1
  C  539  1  0.67234500  0.32155400  0.31975900  1
  C  540  1  0.68294100  0.34055900  0.32887900  1
  C  541  1  0.70780300  0.34568400  0.32349200  1
  C  544  1  0.76988800  0.78307700  0.31249100  1
  C  545  1  0.75215200  0.76682000  0.31258000  1
  C  546  1  0.84501700  0.82230400  0.32051800  1
  C  547  1  0.83480100  0.84169700  0.32921700  1
  C  548  1  0.81035200  0.84745200  0.32302700  1
  C  549  1  0.67757200  0.72519100  0.31890100  1
  C  550  1  0.68832800  0.70700700  0.32947700  1
  C  551  1  0.71369800  0.70244800  0.32554100  1
  C  560  1  0.20954200  0.82737200  0.73182500  1
  C  561  1  0.20956100  0.82744600  0.75423300  1
  C  562  1  0.22593300  0.81131000  0.76144300  1
  C  564  1  0.22575100  0.81107000  0.72471000  1
  C  565  1  0.23045900  0.80593700  0.70250300  1
  C  566  1  0.24754000  0.78979000  0.69538300  1
  C  568  1  0.27629700  0.76330300  0.69552700  1
  C  569  1  0.27014300  0.76776600  0.67393000  1
  C  570  1  0.25238600  0.78402800  0.67384500  1
  C  571  1  0.29407200  0.74781000  0.70280500  1
  C  572  1  0.29988200  0.74374100  0.72504400  1
  C  574  1  0.29993400  0.74381700  0.76183200  1
  C  575  1  0.31859700  0.72969800  0.75464000  1
  C  576  1  0.31837900  0.72946300  0.73222700  1
  C  577  1  0.29416500  0.74793200  0.78409100  1
  C  578  1  0.27627400  0.76347900  0.79114500  1
  C  580  1  0.24752900  0.79003000  0.79093500  1
  C  581  1  0.25191700  0.78418200  0.81251900  1
  C  582  1  0.26943200  0.76772500  0.81263500  1
  C  583  1  0.23073800  0.80634900  0.78366900  1
  C  584  1  0.21767300  0.81870200  0.79971100  1
  C  585  1  0.19493200  0.81109400  0.80836100  1
  C  586  1  0.18076800  0.82422500  0.82247600  1
  C  587  1  0.18886000  0.84538000  0.82820500  1
  C  588  1  0.21171600  0.85281400  0.81965300  1
  C  589  1  0.22597200  0.83969100  0.80560500  1
  C  590  1  0.30722700  0.73567300  0.80034400  1
  C  591  1  0.30291500  0.71310900  0.80281900  1
  C  592  1  0.31646100  0.70081300  0.81809200  1
  C  593  1  0.33457700  0.71076100  0.83145900  1
  C  594  1  0.33838200  0.73338000  0.82947500  1
  C  595  1  0.32520000  0.74562000  0.81388500  1
  C  596  1  0.30719500  0.73557900  0.68668800  1
  C  597  1  0.33150100  0.74159200  0.68034100  1
  C  598  1  0.34524500  0.72851600  0.66587300  1
  C  599  1  0.33504200  0.70913500  0.65717600  1
  C  600  1  0.31061400  0.70336400  0.66339500  1
  C  601  1  0.29685100  0.71635400  0.67795300  1
  C  602  1  0.21694100  0.81778900  0.68634900  1
  C  603  1  0.22785700  0.83566300  0.67551000  1
  C  604  1  0.19175000  0.81281000  0.68205100  1
  C  605  1  0.17773300  0.82560000  0.66753500  1
  C  606  1  0.18846200  0.84378200  0.65695400  1
  C  607  1  0.21381500  0.84836100  0.66089800  1
  C  638  1  0.55945700  0.51355400  0.44076600  1
  C  639  1  0.55974500  0.53597900  0.44072200  1
  C  640  1  0.54319000  0.54335300  0.45663000  1
  C  642  1  0.54284000  0.50658800  0.45680100  1
  C  643  1  0.53771000  0.48441100  0.46180600  1
  C  644  1  0.52053600  0.47743600  0.47792700  1
  C  646  1  0.49186800  0.47785500  0.50446600  1
  C  647  1  0.49762600  0.45618200  0.49989600  1
  C  648  1  0.51528800  0.45592300  0.48356300  1
  C  649  1  0.47424500  0.48532700  0.51998900  1
  C  650  1  0.46876300  0.50763600  0.52409500  1
  C  652  1  0.46920100  0.54443600  0.52405700  1
  C  653  1  0.45043100  0.53742900  0.53814400  1
  C  654  1  0.45034800  0.51500200  0.53835200  1
  C  655  1  0.47524500  0.56665100  0.51995700  1
  C  656  1  0.49316700  0.57354300  0.50438800  1
  C  658  1  0.52186800  0.57306900  0.47782800  1
  C  659  1  0.51765500  0.59471300  0.48361900  1
  C  660  1  0.50017700  0.59499000  0.50008700  1
  C  661  1  0.53860700  0.56564300  0.46154700  1
  C  662  1  0.55182500  0.58159100  0.44918800  1
  C  663  1  0.57436600  0.59044000  0.45699700  1
  C  664  1  0.58855000  0.60464200  0.44397900  1
  C  665  1  0.58070100  0.61024200  0.42272400  1
  C  666  1  0.55805900  0.60146700  0.41507500  1
  C  667  1  0.54377700  0.58734600  0.42809000  1
  C  668  1  0.46240600  0.58301000  0.53225300  1
  C  669  1  0.46679800  0.58536700  0.55480300  1
  C  670  1  0.45331200  0.60061500  0.56718200  1
  C  671  1  0.43516500  0.61405600  0.55733600  1
  C  672  1  0.43131800  0.61222400  0.53472600  1
  C  673  1  0.44444300  0.59666000  0.52239900  1
  C  674  1  0.46111700  0.46939000  0.53243400  1
  C  675  1  0.43685600  0.46283800  0.52649200  1
  C  676  1  0.42303100  0.44876700  0.53994200  1
  C  677  1  0.43308600  0.44085100  0.55969700  1
  C  678  1  0.45744500  0.44726900  0.56542600  1
  C  679  1  0.47128700  0.46138400  0.55204200  1
  C  680  1  0.55071200  0.46812900  0.44968700  1
  C  681  1  0.53998400  0.45895000  0.43084300  1
  C  682  1  0.57546600  0.46250800  0.45505200  1
  C  683  1  0.58919600  0.44816700  0.44180800  1
  C  684  1  0.57854800  0.43901600  0.42285300  1
  C  685  1  0.55375700  0.44459800  0.41763900  1
  C  716  1  0.04315200  0.00726200  0.52978100  1
  C  717  1  0.96915500  0.00626000  0.46241300  1
  C  718  1  0.97520600  0.98402800  0.46645400  1
  C  719  1  0.99314700  0.97712200  0.48200200  1
  C  721  1  0.02185000  0.97757600  0.50854800  1
  C  722  1  0.01767500  0.95593900  0.50273300  1
  C  723  1  0.00020400  0.95567400  0.48627200  1
  C  724  1  0.03858000  0.98498400  0.52482600  1
  C  725  1  0.05180300  0.96901600  0.53716300  1
  C  726  1  0.07440400  0.96022600  0.52937300  1
  C  727  1  0.08860800  0.94602900  0.54238900  1
  C  728  1  0.08072000  0.94038600  0.56362300  1
  C  729  1  0.05802000  0.94910100  0.57125200  1
  C  730  1  0.04371000  0.96320700  0.55823500  1
  C  731  1  0.96234900  0.96768900  0.45415500  1
  C  732  1  0.96661100  0.96541400  0.43157100  1
  C  733  1  0.95310800  0.95018900  0.41920100  1
  C  734  1  0.93506600  0.93667800  0.42907900  1
  C  735  1  0.93134100  0.93843300  0.45171400  1
  C  736  1  0.94447900  0.95397900  0.46403500  1
  C  751  1  0.12611800  0.90696400  0.89326100  1
  C  752  1  0.15203200  0.90310500  0.89231500  1
  C  753  1  0.16256200  0.88712200  0.87851800  1
  C  754  1  0.14683200  0.87446600  0.86489100  1
  C  755  1  0.12071000  0.87836100  0.86536500  1
  C  757  1  0.11078900  0.89445300  0.87942100  1
  C  765  1  0.11676400  0.92265300  0.90755100  1
  C  767  1  0.15628500  0.85736600  0.85240900  1
  C  769  1  0.37225100  0.37562800  0.62261500  1
  C  770  1  0.39793500  0.37629400  0.61768100  1
  C  771  1  0.40783000  0.39029500  0.60156800  1
  C  772  1  0.39169000  0.40444700  0.58987500  1
  C  773  1  0.36580500  0.40424800  0.59486900  1
  C  775  1  0.35651700  0.38996300  0.61105100  1
  C  783  1  0.36352900  0.36117300  0.63843900  1
  C  785  1  0.40043800  0.41727200  0.57272100  1
  C  787  1  0.39144600  0.64666400  0.89735900  1
  C  788  1  0.36555700  0.65075400  0.89669800  1
  C  789  1  0.35436900  0.66284200  0.87971400  1
  C  790  1  0.36945900  0.67142700  0.86281500  1
  C  791  1  0.39556400  0.66771900  0.86325900  1
  C  793  1  0.40617500  0.65549100  0.88048600  1
  C  801  1  0.40136100  0.63441700  0.91441800  1
  C  803  1  0.35850400  0.68149500  0.84498800  1
  C  805  1  0.63899700  0.37196600  0.36188200  1
  C  806  1  0.61346400  0.37217300  0.36740100  1
  C  807  1  0.60359400  0.38653400  0.38320400  1
  C  808  1  0.61961400  0.40144100  0.39400600  1
  C  809  1  0.64539200  0.40169900  0.38834300  1
  C  811  1  0.65456800  0.38716300  0.37245000  1
  C  819  1  0.64777500  0.35709700  0.34647300  1
  C  821  1  0.61071900  0.41459900  0.41078600  1
  C  823  1  0.39006700  0.40642500  0.89636500  1
  C  824  1  0.36420200  0.40242400  0.89511900  1
  C  825  1  0.35394700  0.38692200  0.88064600  1
  C  826  1  0.36991000  0.37492100  0.86661100  1
  C  827  1  0.39597400  0.37903500  0.86732900  1
  C  829  1  0.40561500  0.39463800  0.88205400  1
  C  837  1  0.39919900  0.42127300  0.91163000  1
  C  839  1  0.36079000  0.35808400  0.85360400  1
  C  841  1  0.64335400  0.67592600  0.36173400  1
  C  842  1  0.61742600  0.67485500  0.36547700  1
  C  843  1  0.60689700  0.66093800  0.38135400  1
  C  844  1  0.62264400  0.64730000  0.39401300  1
  C  845  1  0.64878000  0.64789300  0.39023000  1
  C  847  1  0.65869900  0.66207500  0.37424900  1
  C  855  1  0.65270100  0.69031600  0.34613100  1
  C  857  1  0.61317200  0.63468400  0.41100300  1
  C  859  1  0.14346200  0.87480700  0.62466400  1
  C  860  1  0.11753700  0.87583800  0.62089500  1
  C  861  1  0.10699600  0.88973500  0.60500400  1
  C  862  1  0.12272600  0.90338100  0.59235100  1
  C  863  1  0.14885900  0.90282100  0.59615200  1
  C  865  1  0.15879000  0.88866300  0.61215100  1
  C  873  1  0.15282100  0.86044900  0.64029200  1
  C  875  1  0.11325000  0.91598300  0.57535400  1
  C  877  1  0.87808300  0.87136300  0.36447700  1
  C  878  1  0.90394100  0.87189200  0.36871100  1
  C  879  1  0.91512100  0.88876100  0.38094900  1
  C  880  1  0.90005100  0.90567100  0.38957600  1
  C  881  1  0.87397100  0.90534900  0.38573600  1
  C  883  1  0.86336900  0.88824200  0.37334900  1
  C  891  1  0.86818200  0.85440400  0.35209100  1
  C  893  1  0.91102500  0.92340600  0.39979900  1
  C  895  1  0.37830300  0.67945400  0.62190400  1
  C  896  1  0.40416500  0.67885800  0.61770700  1
  C  897  1  0.41533700  0.66195000  0.60549200  1
  C  898  1  0.40024300  0.64507500  0.59687900  1
  C  899  1  0.37415600  0.64546100  0.60068500  1
  C  901  1  0.36356600  0.66260700  0.61304600  1
  C  909  1  0.36839900  0.69644600  0.63424800  1
  C  911  1  0.41118500  0.62732900  0.58664100  1
  C  914  1  0.15645500  0.04337200  0.02523800  1
  C  915  1  0.13997100  0.03609200  0.04123500  1
  C  916  1  0.14012000  0.01366100  0.04118000  1
  C  917  1  0.16145700  0.06563800  0.02055300  1
  C  918  1  0.14853500  0.08164800  0.03303400  1
  C  919  1  0.15797000  0.08863500  0.05329300  1
  C  920  1  0.14425700  0.10315000  0.06635800  1
  C  921  1  0.12069600  0.11084100  0.05969500  1
  C  922  1  0.11152300  0.10409900  0.03919700  1
  C  923  1  0.12519600  0.08961400  0.02608200  1
  C  930  1  0.07632380  0.14433400  0.09007400  1
  C  931  1  0.05046080  0.14837300  0.09129800  1
  C  932  1  0.04019280  0.16388900  0.10576400  1
  C  933  1  0.05614780  0.17587000  0.11979100  1
  C  934  1  0.08221180  0.17172800  0.11909100  1
  C  936  1  0.09186280  0.15610600  0.10437900  1
  C  942  1  0.08547080  0.12946000  0.07483700  1
  C  944  1  0.01476180  0.20447200  0.15741600  1
  C  945  1  0.99214400  0.19690400  0.16632500  1
  C  950  1  0.04701280  0.19271000  0.13279000  1
  C  953  1  0.02284480  0.22564700  0.16309300  1
  C  954  1  0.97811500  0.20991400  0.18065200  1
  C  956  1  0.98640900  0.23092000  0.18648300  1
  C  957  1  0.00892383  0.23865600  0.17750000  1
  C  958  1  0.97341400  0.24330900  0.20254300  1
  C  959  1  0.99463200  0.22225600  0.23199400  1
  C  961  1  0.97824500  0.23837700  0.22477400  1
  C  963  1  0.95656700  0.25958100  0.19526000  1
  C  964  1  0.95201900  0.26530300  0.17366200  1
  C  966  1  0.99459900  0.22230300  0.25440700  1
  C  969  1  0.93446700  0.28173200  0.17353500  1
  C  972  1  0.97837300  0.23859100  0.26151700  1
  C  974  1  0.92777500  0.28609100  0.19503500  1
  C  977  1  0.97356100  0.24366300  0.28372400  1
  C  980  1  0.87841500  0.30407200  0.17273000  1
  C  981  1  0.90994400  0.30168400  0.20208400  1
  C  982  1  0.90419900  0.30585300  0.22433300  1
  C  984  1  0.90418100  0.30590700  0.26111200  1
  C  985  1  0.90987900  0.30175500  0.28335400  1
  C  987  1  0.95644100  0.25979700  0.29081800  1
  C  988  1  0.92763900  0.28625100  0.29064500  1
  C  990  1  0.86484700  0.31639300  0.15745700  1
  C  991  1  0.89684900  0.31392600  0.18585300  1
  C  992  1  0.88569300  0.32014000  0.23150200  1
  C  993  1  0.88588400  0.32037400  0.25390900  1
  C  994  1  0.89672400  0.31399600  0.29944100  1
  C  995  1  0.97557100  0.21406200  0.31089900  1
  C  997  1  0.98685900  0.23168100  0.29993000  1
  C  998  1  0.01208780  0.23639900  0.30435500  1
  C  999  1  0.87208900  0.30844500  0.30525400  1
  C  1000  1  0.16183500  0.98439100  0.02024100  1
  C  1001  1  0.15658700  0.00659800  0.02506500  1
  C  1002  1  0.14881400  0.96814200  0.03239300  1
  C  1003  1  0.12387100  0.96297800  0.02731200  1
  C  1004  1  0.11014400  0.94862200  0.04051600  1
  C  1005  1  0.12096200  0.93889200  0.05913800  1
  C  1006  1  0.14598000  0.94397300  0.06401500  1
  C  1007  1  0.15974900  0.95839500  0.05087500  1
  C  1014  1  0.74629000  0.53596100  0.04546100  1
  C  1015  1  0.74598700  0.51353100  0.04548200  1
  C  1016  1  0.72901700  0.50653100  0.02976400  1
  C  1018  1  0.72969600  0.54332000  0.02958300  1
  C  1019  1  0.72492900  0.56561900  0.02478100  1
  C  1020  1  0.72352600  0.48434200  0.02510100  1
  C  1021  1  0.73639000  0.46805500  0.03732700  1
  C  1022  1  0.75821100  0.45834700  0.02897100  1
  C  1023  1  0.77220100  0.44374500  0.04169800  1
  C  1024  1  0.76487900  0.43847500  0.06319700  1
  C  1025  1  0.74287000  0.44805200  0.07135000  1
  C  1026  1  0.72878100  0.46262500  0.05863800  1
  C  1027  1  0.73851900  0.58162800  0.03675300  1
  C  1028  1  0.72766800  0.59234500  0.05473200  1
  C  1029  1  0.76365200  0.58605800  0.03165000  1
  C  1030  1  0.77767400  0.60057700  0.04441100  1
  C  1031  1  0.76700200  0.61106100  0.06267400  1
  C  1032  1  0.74170700  0.60697900  0.06738700  1
  C  1047  1  0.88739400  0.34882600  0.16828900  1
  C  1048  1  0.86874400  0.33899500  0.15540300  1
  C  1051  1  0.86667600  0.72650100  0.16400600  1
  C  1052  1  0.87478200  0.70533200  0.15829500  1
  C  1053  1  0.89766600  0.69792100  0.16682000  1
  C  1054  1  0.00237883  0.84994900  0.16837100  1
  C  1055  1  0.02048780  0.83998800  0.15497600  1
  C  1056  1  0.02425580  0.81735500  0.15691300  1
  C  1065  1  0.81197500  0.64366900  0.09336400  1
  C  1066  1  0.83789100  0.64749000  0.09431800  1
  C  1067  1  0.84842200  0.66347100  0.10810100  1
  C  1068  1  0.83269800  0.67616500  0.12172600  1
  C  1069  1  0.80657200  0.67230500  0.12124800  1
  C  1071  1  0.79665000  0.65621800  0.10719900  1
  C  1079  1  0.80262700  0.62798200  0.07907600  1
  C  1081  1  0.84215100  0.69327300  0.13419600  1
  C  1083  1  0.07750980  0.90409300  0.08916800  1
  C  1084  1  0.05162280  0.90001800  0.08978700  1
  C  1085  1  0.04038980  0.88792700  0.10674500  1
  C  1086  1  0.05543580  0.87930400  0.12365600  1
  C  1087  1  0.08153980  0.88298900  0.12324800  1
  C  1089  1  0.09219580  0.89522600  0.10605100  1
  C  1097  1  0.08745980  0.91636600  0.07214100  1
  C  1099  1  0.04443180  0.86924100  0.14146700  1
  C  1101  1  0.80911400  0.40301500  0.09146200  1
  C  1102  1  0.83513200  0.39958600  0.09151500  1
  C  1103  1  0.84718300  0.38765600  0.10815400  1
  C  1104  1  0.83284100  0.37854100  0.12526800  1
  C  1105  1  0.80662300  0.38159500  0.12543000  1
  C  1107  1  0.79513500  0.39370600  0.10855500  1
  C  1115  1  0.79830100  0.41493600  0.07463100  1
  C  1117  1  0.84461700  0.36849800  0.14268500  1
  C  1119  1  0.90130200  0.33645300  0.18324700  1
  C  1121  1  0.96214600  0.78728900  0.19527700  1
  C  1122  1  0.93342500  0.76074700  0.19549300  1
  C  1123  1  0.93780400  0.76660800  0.17390900  1
  C  1124  1  0.95528000  0.78307700  0.17379100  1
  C  1125  1  0.90360200  0.73206300  0.18672200  1
  C  1126  1  0.88082800  0.73964500  0.17810000  1
  C  1127  1  0.91191100  0.71106100  0.18084200  1
  C  1128  1  0.99309100  0.81507500  0.18606200  1
  C  1129  1  0.98881900  0.83765700  0.18363300  1
  C  1130  1  0.01105080  0.80511500  0.17248600  1
  C  1135  1  0.98003500  0.80281900  0.20232000  1
  C  1137  1  0.91665600  0.74442400  0.20275900  1
  C  1139  1  0.89552800  0.72334200  0.23222500  1
  C  1140  1  0.91188100  0.73946700  0.22499500  1
  C  1141  1  0.98584700  0.80689100  0.22457700  1
  C  1142  1  0.00456583  0.82093300  0.23175000  1
  C  1145  1  0.89551300  0.72342800  0.25463400  1
  C  1148  1  0.00434583  0.82118600  0.25416300  1
  C  1152  1  0.91169100  0.73973500  0.26173300  1
  C  1153  1  0.98578900  0.80699500  0.26136700  1
  C  1156  1  0.91638300  0.74488400  0.28393700  1
  C  1158  1  0.97994200  0.80299600  0.28361600  1
  C  1159  1  0.93343600  0.76103700  0.29104400  1
  C  1160  1  0.96216700  0.78751700  0.29089400  1
  C  1161  1  0.99305600  0.81523300  0.29972600  1
  C  1164  1  0.90752500  0.33271500  0.30882900  1
  C  1166  1  0.01737580  0.80922400  0.30606300  1
  C  1167  1  0.98269600  0.83446200  0.30847400  1
  C  1168  1  0.90287800  0.73303400  0.30009900  1
  C  1169  1  0.91381700  0.71515100  0.31092500  1
  C  1170  1  0.87767000  0.73799800  0.30439900  1
  C  1173  1  0.24652300  0.01459500  0.94113400  1
  C  1174  1  0.24623400  0.03702500  0.94108600  1
  C  1175  1  0.22925300  0.04406700  0.95679500  1
  C  1177  1  0.17837500  0.07303400  0.00441600  1
  C  1179  1  0.20670500  0.07332700  0.97761000  1
  C  1180  1  0.20091800  0.09487000  0.98272700  1
  C  1181  1  0.18353500  0.09469100  0.99928100  1
  C  1182  1  0.22379000  0.06627100  0.96144400  1
  C  1183  1  0.23665400  0.08253600  0.94920000  1
  C  1184  1  0.25845200  0.09225400  0.95754600  1
  C  1185  1  0.27242300  0.10685700  0.94481700  1
  C  1186  1  0.26512700  0.11209800  0.92330500  1
  C  1187  1  0.24314400  0.10251100  0.91515600  1
  C  1188  1  0.22907700  0.08793600  0.92787400  1
  C  1199  1  0.24548800  0.03702200  0.54569400  1
  C  1200  1  0.24577400  0.01459700  0.54570800  1
  C  1202  1  0.22891400  0.04403000  0.52964800  1
  C  1203  1  0.22381800  0.06622400  0.52465600  1
  C  1204  1  0.20664900  0.07321200  0.50853700  1
  C  1206  1  0.17797700  0.07281300  0.48201700  1
  C  1207  1  0.18376200  0.09448200  0.48655600  1
  C  1208  1  0.20141700  0.09472700  0.50288400  1
  C  1209  1  0.16036300  0.06535900  0.46649700  1
  C  1210  1  0.15484400  0.04306200  0.46240200  1
  C  1212  1  0.13642400  0.01331300  0.44840300  1
  C  1213  1  0.13636500  0.03573900  0.44820600  1
  C  1214  1  0.14724900  0.08131200  0.45405600  1
  C  1215  1  0.12302900  0.08796700  0.46006200  1
  C  1216  1  0.10919500  0.10202700  0.44660100  1
  C  1217  1  0.11921800  0.10985600  0.42679800  1
  C  1218  1  0.14355000  0.10335500  0.42102100  1
  C  1219  1  0.15739900  0.08924200  0.43440900  1
  C  1220  1  0.23682300  0.08248800  0.53678300  1
  C  1221  1  0.22606700  0.09172500  0.55560200  1
  C  1222  1  0.26161700  0.08802600  0.53147900  1
  C  1223  1  0.27532500  0.10237000  0.54471200  1
  C  1224  1  0.26464900  0.11156900  0.56364600  1
  C  1225  1  0.23982700  0.10606200  0.56881200  1
  C  1242  1  0.05841080  0.17505500  0.36383400  1
  C  1243  1  0.08408380  0.17440600  0.36879900  1
  C  1244  1  0.09397080  0.16041600  0.38492800  1
  C  1245  1  0.07783180  0.14626900  0.39660900  1
  C  1246  1  0.05195580  0.14645300  0.39158900  1
  C  1247  1  0.04267880  0.16072400  0.37538900  1
  C  1255  1  0.08656280  0.13345200  0.41377500  1
  C  1257  1  0.32513900  0.17860900  0.62461300  1
  C  1258  1  0.29960200  0.17839600  0.61911700  1
  C  1259  1  0.28973500  0.16401500  0.60334200  1
  C  1260  1  0.30575300  0.14907300  0.59254500  1
  C  1261  1  0.33153700  0.14882000  0.59819200  1
  C  1262  1  0.34071100  0.16338100  0.61405200  1
  C  1269  1  0.29686000  0.13590000  0.57577400  1
  C  1271  1  0.30932600  0.14757100  0.89503100  1
  C  1272  1  0.33533600  0.15101000  0.89498200  1
  C  1273  1  0.34738100  0.16294100  0.87834300  1
  C  1274  1  0.33303900  0.17206800  0.86123500  1
  C  1275  1  0.30682600  0.16901100  0.86107400  1
  C  1277  1  0.29534400  0.15689000  0.87794500  1
  C  1284  1  0.29851800  0.13564200  0.91186100  1
  C  1287  1  0.38754400  0.20183400  0.81819000  1
  C  1288  1  0.39396000  0.20497600  0.66291400  1
  C  1293  1  0.01461680  0.20576900  0.32994700  1
  C  1294  1  0.98925400  0.20141000  0.32580800  1
  C  1298  1  0.04969680  0.18949100  0.34798900  1
  C  1302  1  0.33391000  0.19350700  0.63999000  1
  C  1305  1  0.34481400  0.18210700  0.84381200  1
  C  1306  1  0.40144100  0.21421500  0.80323700  1
  C  1307  1  0.36883200  0.21164300  0.83105600  1
  C  1308  1  0.35840700  0.22901100  0.66679800  1
  C  1309  1  0.36905200  0.21004100  0.65760900  1
  C  1310  1  0.40758000  0.21795800  0.67755300  1
  C  1315  1  0.02574980  0.22364700  0.31916300  1
  C  1317  1  0.40422700  0.24473300  0.72533600  1
  C  1318  1  0.40427200  0.24478700  0.76212300  1
  C  1319  1  0.38582800  0.23045800  0.75497100  1
  C  1320  1  0.38600500  0.23022400  0.73256200  1
  C  1321  1  0.39691900  0.23673600  0.80061100  1
  C  1322  1  0.36487300  0.23424100  0.82898700  1
  C  1323  1  0.37843300  0.24657300  0.81372300  1
  C  1324  1  0.39674000  0.23664900  0.68700100  1
  C  1325  1  0.37205100  0.24213200  0.68128100  1
  C  1328  1  0.42764100  0.26439000  0.69579100  1
  C  1329  1  0.40989100  0.24889100  0.70308200  1
  C  1331  1  0.40999200  0.24898300  0.78437000  1
  C  1332  1  0.42778200  0.26459000  0.79141100  1
  C  1338  1  0.95147600  0.26549200  0.31235500  1
  C  1341  1  0.43365500  0.26895100  0.67418400  1
  C  1343  1  0.43443700  0.26897400  0.81291000  1
  C  1344  1  0.93368200  0.28172200  0.31225200  1
  C  1345  1  0.45640300  0.29085300  0.69561300  1
  C  1346  1  0.45142900  0.28517500  0.67407600  1
  C  1347  1  0.45653500  0.29110800  0.79117900  1
  C  1348  1  0.45196500  0.28540200  0.81277800  1
  C  1354  1  0.47350900  0.30698100  0.70269800  1
  C  1355  1  0.47336900  0.30737600  0.78389500  1
  C  1358  1  0.47820700  0.31227700  0.76165400  1
  C  1359  1  0.47833000  0.31204700  0.72490300  1
  C  1360  1  0.48633600  0.31978600  0.79995000  1
  C  1361  1  0.50883000  0.31204900  0.80898200  1
  C  1362  1  0.48679500  0.31896300  0.68648400  1
  C  1363  1  0.51202900  0.31423400  0.68203800  1
  C  1366  1  0.22989900  0.00728200  0.95700900  1
  C  1367  1  0.22511000  0.98499800  0.96184400  1
  C  1368  1  0.20787600  0.97762300  0.97774900  1
  C  1370  1  0.17915100  0.97734400  0.00425900  1
  C  1371  1  0.18491000  0.95580000  0.99913800  1
  C  1372  1  0.20268800  0.95597200  0.98290700  1
  C  1373  1  0.23869900  0.96897000  0.94988500  1
  C  1374  1  0.22789000  0.95834500  0.93184900  1
  C  1375  1  0.26379600  0.96445300  0.95505300  1
  C  1376  1  0.27783500  0.94992600  0.94229200  1
  C  1377  1  0.26720400  0.93952700  0.92397900  1
  C  1378  1  0.24193800  0.94368800  0.91920600  1
  C  1387  1  0.70769900  0.57301200  0.00887800  1
  C  1389  1  0.67899600  0.57331600  0.98236200  1
  C  1390  1  0.68475500  0.59485500  0.98748100  1
  C  1391  1  0.70252000  0.59466700  0.00371200  1
  C  1392  1  0.66169500  0.56629200  0.96637500  1
  C  1393  1  0.65641600  0.54409800  0.96154400  1
  C  1395  1  0.65624600  0.50732200  0.96133900  1
  C  1396  1  0.63979800  0.51464700  0.94533800  1
  C  1397  1  0.63995600  0.53707800  0.94542000  1
  C  1398  1  0.66121900  0.48504000  0.96600200  1
  C  1399  1  0.67812700  0.47762700  0.98213800  1
  C  1401  1  0.70644400  0.47730700  0.00894300  1
  C  1402  1  0.70066200  0.45577000  0.00382400  1
  C  1403  1  0.68328700  0.45596700  0.98727300  1
  C  1404  1  0.64830000  0.46905200  0.95350200  1
  C  1405  1  0.65776500  0.46205000  0.93324600  1
  C  1406  1  0.64406700  0.44756500  0.92015900  1
  C  1407  1  0.62048000  0.43991200  0.92678400  1
  C  1408  1  0.61127900  0.44666500  0.94728000  1
  C  1409  1  0.62493800  0.46112100  0.96041800  1
  C  1410  1  0.64870800  0.58256600  0.95422100  1
  C  1411  1  0.62376400  0.58777900  0.95929700  1
  C  1412  1  0.61006600  0.60215400  0.94608300  1
  C  1413  1  0.62091900  0.61185600  0.92746300  1
  C  1414  1  0.64593100  0.60671300  0.92258300  1
  C  1415  1  0.65967400  0.59227800  0.93573700  1
  C  1432  1  0.49455500  0.32831800  0.73200000  1
  C  1433  1  0.49458900  0.32837600  0.75441300  1
  C  1434  1  0.52272000  0.32507200  0.82338200  1
  C  1435  1  0.51462900  0.34626900  0.82901400  1
  C  1436  1  0.49203000  0.35384000  0.82005700  1
  C  1437  1  0.47804200  0.34082100  0.80573000  1
  C  1438  1  0.47549200  0.33658900  0.67552300  1
  C  1439  1  0.52568800  0.32700000  0.66724500  1
  C  1440  1  0.51454300  0.34489100  0.65647600  1
  C  1441  1  0.48917200  0.34925300  0.66062600  1
  C  1451  1  0.85843600  0.32155400  0.31975900  1
  C  1452  1  0.86903200  0.34055900  0.32887900  1
  C  1453  1  0.89389400  0.34568400  0.32349200  1
  C  1456  1  0.95597900  0.78307700  0.31249100  1
  C  1457  1  0.93824300  0.76682000  0.31258000  1
  C  1458  1  0.03110780  0.82230400  0.32051800  1
  C  1459  1  0.02089180  0.84169700  0.32921700  1
  C  1460  1  0.99644300  0.84745200  0.32302700  1
  C  1461  1  0.86366300  0.72519100  0.31890100  1
  C  1462  1  0.87441900  0.70700700  0.32947700  1
  C  1463  1  0.89978900  0.70244800  0.32554100  1
  C  1472  1  0.39563300  0.82737200  0.73182500  1
  C  1473  1  0.39565200  0.82744600  0.75423300  1
  C  1474  1  0.41202400  0.81131000  0.76144300  1
  C  1476  1  0.41184200  0.81107000  0.72471000  1
  C  1477  1  0.41655000  0.80593700  0.70250300  1
  C  1478  1  0.43363100  0.78979000  0.69538300  1
  C  1480  1  0.46238800  0.76330300  0.69552700  1
  C  1481  1  0.45623400  0.76776600  0.67393000  1
  C  1482  1  0.43847700  0.78402800  0.67384500  1
  C  1483  1  0.48016300  0.74781000  0.70280500  1
  C  1484  1  0.48597300  0.74374100  0.72504400  1
  C  1486  1  0.48602500  0.74381700  0.76183200  1
  C  1487  1  0.50468800  0.72969800  0.75464000  1
  C  1488  1  0.50447000  0.72946300  0.73222700  1
  C  1489  1  0.48025600  0.74793200  0.78409100  1
  C  1490  1  0.46236500  0.76347900  0.79114500  1
  C  1492  1  0.43362000  0.79003000  0.79093500  1
  C  1493  1  0.43800800  0.78418200  0.81251900  1
  C  1494  1  0.45552300  0.76772500  0.81263500  1
  C  1495  1  0.41682900  0.80634900  0.78366900  1
  C  1496  1  0.40376400  0.81870200  0.79971100  1
  C  1497  1  0.38102300  0.81109400  0.80836100  1
  C  1498  1  0.36685900  0.82422500  0.82247600  1
  C  1499  1  0.37495100  0.84538000  0.82820500  1
  C  1500  1  0.39780700  0.85281400  0.81965300  1
  C  1501  1  0.41206300  0.83969100  0.80560500  1
  C  1502  1  0.49331800  0.73567300  0.80034400  1
  C  1503  1  0.48900600  0.71310900  0.80281900  1
  C  1504  1  0.50255200  0.70081300  0.81809200  1
  C  1505  1  0.52066800  0.71076100  0.83145900  1
  C  1506  1  0.52447300  0.73338000  0.82947500  1
  C  1507  1  0.51129100  0.74562000  0.81388500  1
  C  1508  1  0.49328600  0.73557900  0.68668800  1
  C  1509  1  0.51759200  0.74159200  0.68034100  1
  C  1510  1  0.53133600  0.72851600  0.66587300  1
  C  1511  1  0.52113300  0.70913500  0.65717600  1
  C  1512  1  0.49670500  0.70336400  0.66339500  1
  C  1513  1  0.48294200  0.71635400  0.67795300  1
  C  1514  1  0.40303200  0.81778900  0.68634900  1
  C  1515  1  0.41394800  0.83566300  0.67551000  1
  C  1516  1  0.37784100  0.81281000  0.68205100  1
  C  1517  1  0.36382400  0.82560000  0.66753500  1
  C  1518  1  0.37455300  0.84378200  0.65695400  1
  C  1519  1  0.39990600  0.84836100  0.66089800  1
  C  1550  1  0.74554800  0.51355400  0.44076600  1
  C  1551  1  0.74583600  0.53597900  0.44072200  1
  C  1552  1  0.72928100  0.54335300  0.45663000  1
  C  1554  1  0.72893100  0.50658800  0.45680100  1
  C  1555  1  0.72380100  0.48441100  0.46180600  1
  C  1556  1  0.70662700  0.47743600  0.47792700  1
  C  1558  1  0.67795900  0.47785500  0.50446600  1
  C  1559  1  0.68371700  0.45618200  0.49989600  1
  C  1560  1  0.70137900  0.45592300  0.48356300  1
  C  1561  1  0.66033600  0.48532700  0.51998900  1
  C  1562  1  0.65485400  0.50763600  0.52409500  1
  C  1564  1  0.65529200  0.54443600  0.52405700  1
  C  1565  1  0.63652200  0.53742900  0.53814400  1
  C  1566  1  0.63643900  0.51500200  0.53835200  1
  C  1567  1  0.66133600  0.56665100  0.51995700  1
  C  1568  1  0.67925800  0.57354300  0.50438800  1
  C  1570  1  0.70795900  0.57306900  0.47782800  1
  C  1571  1  0.70374600  0.59471300  0.48361900  1
  C  1572  1  0.68626800  0.59499000  0.50008700  1
  C  1573  1  0.72469800  0.56564300  0.46154700  1
  C  1574  1  0.73791600  0.58159100  0.44918800  1
  C  1575  1  0.76045700  0.59044000  0.45699700  1
  C  1576  1  0.77464100  0.60464200  0.44397900  1
  C  1577  1  0.76679200  0.61024200  0.42272400  1
  C  1578  1  0.74415000  0.60146700  0.41507500  1
  C  1579  1  0.72986800  0.58734600  0.42809000  1
  C  1580  1  0.64849700  0.58301000  0.53225300  1
  C  1581  1  0.65288900  0.58536700  0.55480300  1
  C  1582  1  0.63940300  0.60061500  0.56718200  1
  C  1583  1  0.62125600  0.61405600  0.55733600  1
  C  1584  1  0.61740900  0.61222400  0.53472600  1
  C  1585  1  0.63053400  0.59666000  0.52239900  1
  C  1586  1  0.64720800  0.46939000  0.53243400  1
  C  1587  1  0.62294700  0.46283800  0.52649200  1
  C  1588  1  0.60912200  0.44876700  0.53994200  1
  C  1589  1  0.61917700  0.44085100  0.55969700  1
  C  1590  1  0.64353600  0.44726900  0.56542600  1
  C  1591  1  0.65737800  0.46138400  0.55204200  1
  C  1592  1  0.73680300  0.46812900  0.44968700  1
  C  1593  1  0.72607500  0.45895000  0.43084300  1
  C  1594  1  0.76155700  0.46250800  0.45505200  1
  C  1595  1  0.77528700  0.44816700  0.44180800  1
  C  1596  1  0.76463900  0.43901600  0.42285300  1
  C  1597  1  0.73984800  0.44459800  0.41763900  1
  C  1628  1  0.22924300  0.00726200  0.52978100  1
  C  1629  1  0.15524600  0.00626000  0.46241300  1
  C  1630  1  0.16129700  0.98402800  0.46645400  1
  C  1631  1  0.17923800  0.97712200  0.48200200  1
  C  1633  1  0.20794100  0.97757600  0.50854800  1
  C  1634  1  0.20376600  0.95593900  0.50273300  1
  C  1635  1  0.18629500  0.95567400  0.48627200  1
  C  1636  1  0.22467100  0.98498400  0.52482600  1
  C  1637  1  0.23789400  0.96901600  0.53716300  1
  C  1638  1  0.26049500  0.96022600  0.52937300  1
  C  1639  1  0.27469900  0.94602900  0.54238900  1
  C  1640  1  0.26681100  0.94038600  0.56362300  1
  C  1641  1  0.24411100  0.94910100  0.57125200  1
  C  1642  1  0.22980100  0.96320700  0.55823500  1
  C  1643  1  0.14844000  0.96768900  0.45415500  1
  C  1644  1  0.15270200  0.96541400  0.43157100  1
  C  1645  1  0.13919900  0.95018900  0.41920100  1
  C  1646  1  0.12115700  0.93667800  0.42907900  1
  C  1647  1  0.11743200  0.93843300  0.45171400  1
  C  1648  1  0.13057000  0.95397900  0.46403500  1
  C  1663  1  0.31220900  0.90696400  0.89326100  1
  C  1664  1  0.33812300  0.90310500  0.89231500  1
  C  1665  1  0.34865300  0.88712200  0.87851800  1
  C  1666  1  0.33292300  0.87446600  0.86489100  1
  C  1667  1  0.30680100  0.87836100  0.86536500  1
  C  1669  1  0.29688000  0.89445300  0.87942100  1
  C  1677  1  0.30285500  0.92265300  0.90755100  1
  C  1679  1  0.34237600  0.85736600  0.85240900  1
  C  1681  1  0.55834200  0.37562800  0.62261500  1
  C  1682  1  0.58402600  0.37629400  0.61768100  1
  C  1683  1  0.59392100  0.39029500  0.60156800  1
  C  1684  1  0.57778100  0.40444700  0.58987500  1
  C  1685  1  0.55189600  0.40424800  0.59486900  1
  C  1687  1  0.54260800  0.38996300  0.61105100  1
  C  1695  1  0.54962000  0.36117300  0.63843900  1
  C  1697  1  0.58652900  0.41727200  0.57272100  1
  C  1699  1  0.57753700  0.64666400  0.89735900  1
  C  1700  1  0.55164800  0.65075400  0.89669800  1
  C  1701  1  0.54046000  0.66284200  0.87971400  1
  C  1702  1  0.55555000  0.67142700  0.86281500  1
  C  1703  1  0.58165500  0.66771900  0.86325900  1
  C  1705  1  0.59226600  0.65549100  0.88048600  1
  C  1713  1  0.58745200  0.63441700  0.91441800  1
  C  1715  1  0.54459500  0.68149500  0.84498800  1
  C  1717  1  0.82508800  0.37196600  0.36188200  1
  C  1718  1  0.79955500  0.37217300  0.36740100  1
  C  1719  1  0.78968500  0.38653400  0.38320400  1
  C  1720  1  0.80570500  0.40144100  0.39400600  1
  C  1721  1  0.83148300  0.40169900  0.38834300  1
  C  1723  1  0.84065900  0.38716300  0.37245000  1
  C  1731  1  0.83386600  0.35709700  0.34647300  1
  C  1733  1  0.79681000  0.41459900  0.41078600  1
  C  1735  1  0.57615800  0.40642500  0.89636500  1
  C  1736  1  0.55029300  0.40242400  0.89511900  1
  C  1737  1  0.54003800  0.38692200  0.88064600  1
  C  1738  1  0.55600100  0.37492100  0.86661100  1
  C  1739  1  0.58206500  0.37903500  0.86732900  1
  C  1741  1  0.59170600  0.39463800  0.88205400  1
  C  1749  1  0.58529000  0.42127300  0.91163000  1
  C  1751  1  0.54688100  0.35808400  0.85360400  1
  C  1753  1  0.82944500  0.67592600  0.36173400  1
  C  1754  1  0.80351700  0.67485500  0.36547700  1
  C  1755  1  0.79298800  0.66093800  0.38135400  1
  C  1756  1  0.80873500  0.64730000  0.39401300  1
  C  1757  1  0.83487100  0.64789300  0.39023000  1
  C  1759  1  0.84479000  0.66207500  0.37424900  1
  C  1767  1  0.83879200  0.69031600  0.34613100  1
  C  1769  1  0.79926300  0.63468400  0.41100300  1
  C  1771  1  0.32955300  0.87480700  0.62466400  1
  C  1772  1  0.30362800  0.87583800  0.62089500  1
  C  1773  1  0.29308700  0.88973500  0.60500400  1
  C  1774  1  0.30881700  0.90338100  0.59235100  1
  C  1775  1  0.33495000  0.90282100  0.59615200  1
  C  1777  1  0.34488100  0.88866300  0.61215100  1
  C  1785  1  0.33891200  0.86044900  0.64029200  1
  C  1787  1  0.29934100  0.91598300  0.57535400  1
  C  1789  1  0.06417380  0.87136300  0.36447700  1
  C  1790  1  0.09003180  0.87189200  0.36871100  1
  C  1791  1  0.10121200  0.88876100  0.38094900  1
  C  1792  1  0.08614180  0.90567100  0.38957600  1
  C  1793  1  0.06006180  0.90534900  0.38573600  1
  C  1795  1  0.04945980  0.88824200  0.37334900  1
  C  1803  1  0.05427280  0.85440400  0.35209100  1
  C  1805  1  0.09711580  0.92340600  0.39979900  1
  C  1807  1  0.56439400  0.67945400  0.62190400  1
  C  1808  1  0.59025600  0.67885800  0.61770700  1
  C  1809  1  0.60142800  0.66195000  0.60549200  1
  C  1810  1  0.58633400  0.64507500  0.59687900  1
  C  1811  1  0.56024700  0.64546100  0.60068500  1
  C  1813  1  0.54965700  0.66260700  0.61304600  1
  C  1821  1  0.55449000  0.69644600  0.63424800  1
  C  1823  1  0.59727600  0.62732900  0.58664100  1
  C  1826  1  0.34254600  0.04337200  0.02523800  1
  C  1827  1  0.32606200  0.03609200  0.04123500  1
  C  1828  1  0.32621100  0.01366100  0.04118000  1
  C  1829  1  0.34754800  0.06563800  0.02055300  1
  C  1830  1  0.33462600  0.08164800  0.03303400  1
  C  1831  1  0.34406100  0.08863500  0.05329300  1
  C  1832  1  0.33034800  0.10315000  0.06635800  1
  C  1833  1  0.30678700  0.11084100  0.05969500  1
  C  1834  1  0.29761400  0.10409900  0.03919700  1
  C  1835  1  0.31128700  0.08961400  0.02608200  1
  C  1842  1  0.26241500  0.14433400  0.09007400  1
  C  1843  1  0.23655200  0.14837300  0.09129800  1
  C  1844  1  0.22628400  0.16388900  0.10576400  1
  C  1845  1  0.24223900  0.17587000  0.11979100  1
  C  1846  1  0.26830300  0.17172800  0.11909100  1
  C  1848  1  0.27795400  0.15610600  0.10437900  1
  C  1854  1  0.27156200  0.12946000  0.07483700  1
  C  1856  1  0.20085300  0.20447200  0.15741600  1
  C  1857  1  0.17823500  0.19690400  0.16632500  1
  C  1862  1  0.23310400  0.19271000  0.13279000  1
  C  1865  1  0.20893600  0.22564700  0.16309300  1
  C  1866  1  0.16420600  0.20991400  0.18065200  1
  C  1868  1  0.17250000  0.23092000  0.18648300  1
  C  1869  1  0.19501500  0.23865600  0.17750000  1
  C  1870  1  0.15950500  0.24330900  0.20254300  1
  C  1871  1  0.18072300  0.22225600  0.23199400  1
  C  1873  1  0.16433600  0.23837700  0.22477400  1
  C  1875  1  0.14265800  0.25958100  0.19526000  1
  C  1876  1  0.13811000  0.26530300  0.17366200  1
  C  1878  1  0.18069000  0.22230300  0.25440700  1
  C  1881  1  0.12055800  0.28173200  0.17353500  1
  C  1884  1  0.16446400  0.23859100  0.26151700  1
  C  1886  1  0.11386600  0.28609100  0.19503500  1
  C  1889  1  0.15965200  0.24366300  0.28372400  1
  C  1892  1  0.06450570  0.30407200  0.17273000  1
  C  1893  1  0.09603470  0.30168400  0.20208400  1
  C  1894  1  0.09028970  0.30585300  0.22433300  1
  C  1896  1  0.09027170  0.30590700  0.26111200  1
  C  1897  1  0.09596970  0.30175500  0.28335400  1
  C  1899  1  0.14253200  0.25979700  0.29081800  1
  C  1900  1  0.11373000  0.28625100  0.29064500  1
  C  1902  1  0.05093770  0.31639300  0.15745700  1
  C  1903  1  0.08293970  0.31392600  0.18585300  1
  C  1904  1  0.07178370  0.32014000  0.23150200  1
  C  1905  1  0.07197470  0.32037400  0.25390900  1
  C  1906  1  0.08281470  0.31399600  0.29944100  1
  C  1907  1  0.16166200  0.21406200  0.31089900  1
  C  1909  1  0.17295000  0.23168100  0.29993000  1
  C  1910  1  0.19817900  0.23639900  0.30435500  1
  C  1911  1  0.05817970  0.30844500  0.30525400  1
  C  1912  1  0.34792600  0.98439100  0.02024100  1
  C  1913  1  0.34267800  0.00659800  0.02506500  1
  C  1914  1  0.33490500  0.96814200  0.03239300  1
  C  1915  1  0.30996200  0.96297800  0.02731200  1
  C  1916  1  0.29623500  0.94862200  0.04051600  1
  C  1917  1  0.30705300  0.93889200  0.05913800  1
  C  1918  1  0.33207100  0.94397300  0.06401500  1
  C  1919  1  0.34584000  0.95839500  0.05087500  1
  C  1926  1  0.93238100  0.53596100  0.04546100  1
  C  1927  1  0.93207800  0.51353100  0.04548200  1
  C  1928  1  0.91510800  0.50653100  0.02976400  1
  C  1930  1  0.91578700  0.54332000  0.02958300  1
  C  1931  1  0.91102000  0.56561900  0.02478100  1
  C  1932  1  0.90961700  0.48434200  0.02510100  1
  C  1933  1  0.92248100  0.46805500  0.03732700  1
  C  1934  1  0.94430200  0.45834700  0.02897100  1
  C  1935  1  0.95829200  0.44374500  0.04169800  1
  C  1936  1  0.95097000  0.43847500  0.06319700  1
  C  1937  1  0.92896100  0.44805200  0.07135000  1
  C  1938  1  0.91487200  0.46262500  0.05863800  1
  C  1939  1  0.92461000  0.58162800  0.03675300  1
  C  1940  1  0.91375900  0.59234500  0.05473200  1
  C  1941  1  0.94974300  0.58605800  0.03165000  1
  C  1942  1  0.96376500  0.60057700  0.04441100  1
  C  1943  1  0.95309300  0.61106100  0.06267400  1
  C  1944  1  0.92779800  0.60697900  0.06738700  1
  C  1959  1  0.07348470  0.34882600  0.16828900  1
  C  1960  1  0.05483470  0.33899500  0.15540300  1
  C  1963  1  0.05276670  0.72650100  0.16400600  1
  C  1964  1  0.06087270  0.70533200  0.15829500  1
  C  1965  1  0.08375670  0.69792100  0.16682000  1
  C  1966  1  0.18847000  0.84994900  0.16837100  1
  C  1967  1  0.20657900  0.83998800  0.15497600  1
  C  1968  1  0.21034700  0.81735500  0.15691300  1
  C  1977  1  0.99806600  0.64366900  0.09336400  1
  C  1978  1  0.02398170  0.64749000  0.09431800  1
  C  1979  1  0.03451270  0.66347100  0.10810100  1
  C  1980  1  0.01878870  0.67616500  0.12172600  1
  C  1981  1  0.99266300  0.67230500  0.12124800  1
  C  1983  1  0.98274100  0.65621800  0.10719900  1
  C  1991  1  0.98871800  0.62798200  0.07907600  1
  C  1993  1  0.02824170  0.69327300  0.13419600  1
  C  1995  1  0.26360100  0.90409300  0.08916800  1
  C  1996  1  0.23771400  0.90001800  0.08978700  1
  C  1997  1  0.22648100  0.88792700  0.10674500  1
  C  1998  1  0.24152700  0.87930400  0.12365600  1
  C  1999  1  0.26763100  0.88298900  0.12324800  1
  C  2001  1  0.27828700  0.89522600  0.10605100  1
  C  2009  1  0.27355100  0.91636600  0.07214100  1
  C  2011  1  0.23052300  0.86924100  0.14146700  1
  C  2013  1  0.99520500  0.40301500  0.09146200  1
  C  2014  1  0.02122270  0.39958600  0.09151500  1
  C  2015  1  0.03327370  0.38765600  0.10815400  1
  C  2016  1  0.01893170  0.37854100  0.12526800  1
  C  2017  1  0.99271400  0.38159500  0.12543000  1
  C  2019  1  0.98122600  0.39370600  0.10855500  1
  C  2027  1  0.98439200  0.41493600  0.07463100  1
  C  2029  1  0.03070770  0.36849800  0.14268500  1
  C  2031  1  0.08739270  0.33645300  0.18324700  1
  C  2033  1  0.14823700  0.78728900  0.19527700  1
  C  2034  1  0.11951600  0.76074700  0.19549300  1
  C  2035  1  0.12389500  0.76660800  0.17390900  1
  C  2036  1  0.14137100  0.78307700  0.17379100  1
  C  2037  1  0.08969270  0.73206300  0.18672200  1
  C  2038  1  0.06691870  0.73964500  0.17810000  1
  C  2039  1  0.09800170  0.71106100  0.18084200  1
  C  2040  1  0.17918200  0.81507500  0.18606200  1
  C  2041  1  0.17491000  0.83765700  0.18363300  1
  C  2042  1  0.19714200  0.80511500  0.17248600  1
  C  2047  1  0.16612600  0.80281900  0.20232000  1
  C  2049  1  0.10274700  0.74442400  0.20275900  1
  C  2051  1  0.08161870  0.72334200  0.23222500  1
  C  2052  1  0.09797170  0.73946700  0.22499500  1
  C  2053  1  0.17193800  0.80689100  0.22457700  1
  C  2054  1  0.19065700  0.82093300  0.23175000  1
  C  2057  1  0.08160370  0.72342800  0.25463400  1
  C  2060  1  0.19043700  0.82118600  0.25416300  1
  C  2064  1  0.09778170  0.73973500  0.26173300  1
  C  2065  1  0.17188000  0.80699500  0.26136700  1
  C  2068  1  0.10247400  0.74488400  0.28393700  1
  C  2070  1  0.16603300  0.80299600  0.28361600  1
  C  2071  1  0.11952700  0.76103700  0.29104400  1
  C  2072  1  0.14825800  0.78751700  0.29089400  1
  C  2073  1  0.17914700  0.81523300  0.29972600  1
  C  2076  1  0.09361570  0.33271500  0.30882900  1
  C  2078  1  0.20346700  0.80922400  0.30606300  1
  C  2079  1  0.16878700  0.83446200  0.30847400  1
  C  2080  1  0.08896870  0.73303400  0.30009900  1
  C  2081  1  0.09990770  0.71515100  0.31092500  1
  C  2082  1  0.06376070  0.73799800  0.30439900  1
  C  2085  1  0.43261400  0.01459500  0.94113400  1
  C  2086  1  0.43232500  0.03702500  0.94108600  1
  C  2087  1  0.41534400  0.04406700  0.95679500  1
  C  2089  1  0.36446600  0.07303400  0.00441600  1
  C  2091  1  0.39279600  0.07332700  0.97761000  1
  C  2092  1  0.38700900  0.09487000  0.98272700  1
  C  2093  1  0.36962600  0.09469100  0.99928100  1
  C  2094  1  0.40988100  0.06627100  0.96144400  1
  C  2095  1  0.42274500  0.08253600  0.94920000  1
  C  2096  1  0.44454300  0.09225400  0.95754600  1
  C  2097  1  0.45851400  0.10685700  0.94481700  1
  C  2098  1  0.45121800  0.11209800  0.92330500  1
  C  2099  1  0.42923500  0.10251100  0.91515600  1
  C  2100  1  0.41516800  0.08793600  0.92787400  1
  C  2111  1  0.43157900  0.03702200  0.54569400  1
  C  2112  1  0.43186500  0.01459700  0.54570800  1
  C  2114  1  0.41500500  0.04403000  0.52964800  1
  C  2115  1  0.40990900  0.06622400  0.52465600  1
  C  2116  1  0.39274000  0.07321200  0.50853700  1
  C  2118  1  0.36406800  0.07281300  0.48201700  1
  C  2119  1  0.36985300  0.09448200  0.48655600  1
  C  2120  1  0.38750800  0.09472700  0.50288400  1
  C  2121  1  0.34645400  0.06535900  0.46649700  1
  C  2122  1  0.34093500  0.04306200  0.46240200  1
  C  2124  1  0.32251500  0.01331300  0.44840300  1
  C  2125  1  0.32245600  0.03573900  0.44820600  1
  C  2126  1  0.33333333  0.08131200  0.45405600  1
  C  2127  1  0.30912000  0.08796700  0.46006200  1
  C  2128  1  0.29528600  0.10202700  0.44660100  1
  C  2129  1  0.30530900  0.10985600  0.42679800  1
  C  2130  1  0.32964100  0.10335500  0.42102100  1
  C  2131  1  0.34349000  0.08924200  0.43440900  1
  C  2132  1  0.42291400  0.08248800  0.53678300  1
  C  2133  1  0.41215800  0.09172500  0.55560200  1
  C  2134  1  0.44770800  0.08802600  0.53147900  1
  C  2135  1  0.46141600  0.10237000  0.54471200  1
  C  2136  1  0.45074000  0.11156900  0.56364600  1
  C  2137  1  0.42591800  0.10606200  0.56881200  1
  C  2154  1  0.24450200  0.17505500  0.36383400  1
  C  2155  1  0.27017500  0.17440600  0.36879900  1
  C  2156  1  0.28006200  0.16041600  0.38492800  1
  C  2157  1  0.26392300  0.14626900  0.39660900  1
  C  2158  1  0.23804700  0.14645300  0.39158900  1
  C  2159  1  0.22877000  0.16072400  0.37538900  1
  C  2167  1  0.27265400  0.13345200  0.41377500  1
  C  2169  1  0.51123000  0.17860900  0.62461300  1
  C  2170  1  0.48569300  0.17839600  0.61911700  1
  C  2171  1  0.47582600  0.16401500  0.60334200  1
  C  2172  1  0.49184400  0.14907300  0.59254500  1
  C  2173  1  0.51762800  0.14882000  0.59819200  1
  C  2174  1  0.52680200  0.16338100  0.61405200  1
  C  2181  1  0.48295100  0.13590000  0.57577400  1
  C  2183  1  0.49541700  0.14757100  0.89503100  1
  C  2184  1  0.52142700  0.15101000  0.89498200  1
  C  2185  1  0.53347200  0.16294100  0.87834300  1
  C  2186  1  0.51913000  0.17206800  0.86123500  1
  C  2187  1  0.49291700  0.16901100  0.86107400  1
  C  2189  1  0.48143500  0.15689000  0.87794500  1
  C  2196  1  0.48460900  0.13564200  0.91186100  1
  C  2199  1  0.57363500  0.20183400  0.81819000  1
  C  2200  1  0.58005100  0.20497600  0.66291400  1
  C  2205  1  0.20070800  0.20576900  0.32994700  1
  C  2206  1  0.17534500  0.20141000  0.32580800  1
  C  2210  1  0.23578800  0.18949100  0.34798900  1
  C  2214  1  0.52000100  0.19350700  0.63999000  1
  C  2217  1  0.53090500  0.18210700  0.84381200  1
  C  2218  1  0.58753200  0.21421500  0.80323700  1
  C  2219  1  0.55492300  0.21164300  0.83105600  1
  C  2220  1  0.54449800  0.22901100  0.66679800  1
  C  2221  1  0.55514300  0.21004100  0.65760900  1
  C  2222  1  0.59367100  0.21795800  0.67755300  1
  C  2227  1  0.21184100  0.22364700  0.31916300  1
  C  2229  1  0.59031800  0.24473300  0.72533600  1
  C  2230  1  0.59036300  0.24478700  0.76212300  1
  C  2231  1  0.57191900  0.23045800  0.75497100  1
  C  2232  1  0.57209600  0.23022400  0.73256200  1
  C  2233  1  0.58301000  0.23673600  0.80061100  1
  C  2234  1  0.55096400  0.23424100  0.82898700  1
  C  2235  1  0.56452400  0.24657300  0.81372300  1
  C  2236  1  0.58283100  0.23664900  0.68700100  1
  C  2237  1  0.55814200  0.24213200  0.68128100  1
  C  2240  1  0.61373200  0.26439000  0.69579100  1
  C  2241  1  0.59598200  0.24889100  0.70308200  1
  C  2243  1  0.59608300  0.24898300  0.78437000  1
  C  2244  1  0.61387300  0.26459000  0.79141100  1
  C  2250  1  0.13756700  0.26549200  0.31235500  1
  C  2253  1  0.61974600  0.26895100  0.67418400  1
  C  2255  1  0.62052800  0.26897400  0.81291000  1
  C  2256  1  0.11977300  0.28172200  0.31225200  1
  C  2257  1  0.64249400  0.29085300  0.69561300  1
  C  2258  1  0.63752000  0.28517500  0.67407600  1
  C  2259  1  0.64262600  0.29110800  0.79117900  1
  C  2260  1  0.63805600  0.28540200  0.81277800  1
  C  2266  1  0.65960000  0.30698100  0.70269800  1
  C  2267  1  0.65946000  0.30737600  0.78389500  1
  C  2270  1  0.66429800  0.31227700  0.76165400  1
  C  2271  1  0.66442100  0.31204700  0.72490300  1
  C  2272  1  0.67242700  0.31978600  0.79995000  1
  C  2273  1  0.69492100  0.31204900  0.80898200  1
  C  2274  1  0.67288600  0.31896300  0.68648400  1
  C  2275  1  0.69812000  0.31423400  0.68203800  1
  C  2278  1  0.41599000  0.00728200  0.95700900  1
  C  2279  1  0.41120100  0.98499800  0.96184400  1
  C  2280  1  0.39396700  0.97762300  0.97774900  1
  C  2282  1  0.36524200  0.97734400  0.00425900  1
  C  2283  1  0.37100100  0.95580000  0.99913800  1
  C  2284  1  0.38877900  0.95597200  0.98290700  1
  C  2285  1  0.42479000  0.96897000  0.94988500  1
  C  2286  1  0.41398100  0.95834500  0.93184900  1
  C  2287  1  0.44988700  0.96445300  0.95505300  1
  C  2288  1  0.46392600  0.94992600  0.94229200  1
  C  2289  1  0.45329500  0.93952700  0.92397900  1
  C  2290  1  0.42802900  0.94368800  0.91920600  1
  C  2299  1  0.89379000  0.57301200  0.00887800  1
  C  2301  1  0.86508700  0.57331600  0.98236200  1
  C  2302  1  0.87084600  0.59485500  0.98748100  1
  C  2303  1  0.88861100  0.59466700  0.00371200  1
  C  2304  1  0.84778600  0.56629200  0.96637500  1
  C  2305  1  0.84250700  0.54409800  0.96154400  1
  C  2307  1  0.84233700  0.50732200  0.96133900  1
  C  2308  1  0.82588900  0.51464700  0.94533800  1
  C  2309  1  0.82604700  0.53707800  0.94542000  1
  C  2310  1  0.84731000  0.48504000  0.96600200  1
  C  2311  1  0.86421800  0.47762700  0.98213800  1
  C  2313  1  0.89253500  0.47730700  0.00894300  1
  C  2314  1  0.88675300  0.45577000  0.00382400  1
  C  2315  1  0.86937800  0.45596700  0.98727300  1
  C  2316  1  0.83439100  0.46905200  0.95350200  1
  C  2317  1  0.84385600  0.46205000  0.93324600  1
  C  2318  1  0.83015800  0.44756500  0.92015900  1
  C  2319  1  0.80657100  0.43991200  0.92678400  1
  C  2320  1  0.79737000  0.44666500  0.94728000  1
  C  2321  1  0.81102900  0.46112100  0.96041800  1
  C  2322  1  0.83479900  0.58256600  0.95422100  1
  C  2323  1  0.80985500  0.58777900  0.95929700  1
  C  2324  1  0.79615700  0.60215400  0.94608300  1
  C  2325  1  0.80701000  0.61185600  0.92746300  1
  C  2326  1  0.83202200  0.60671300  0.92258300  1
  C  2327  1  0.84576500  0.59227800  0.93573700  1
  C  2344  1  0.68064600  0.32831800  0.73200000  1
  C  2345  1  0.68068000  0.32837600  0.75441300  1
  C  2346  1  0.70881100  0.32507200  0.82338200  1
  C  2347  1  0.70072000  0.34626900  0.82901400  1
  C  2348  1  0.67812100  0.35384000  0.82005700  1
  C  2349  1  0.66413300  0.34082100  0.80573000  1
  C  2350  1  0.66158300  0.33658900  0.67552300  1
  C  2351  1  0.71177900  0.32700000  0.66724500  1
  C  2352  1  0.70063400  0.34489100  0.65647600  1
  C  2353  1  0.67526300  0.34925300  0.66062600  1
  C  2363  1  0.04452670  0.32155400  0.31975900  1
  C  2364  1  0.05512270  0.34055900  0.32887900  1
  C  2365  1  0.07998470  0.34568400  0.32349200  1
  C  2368  1  0.14207000  0.78307700  0.31249100  1
  C  2369  1  0.12433400  0.76682000  0.31258000  1
  C  2370  1  0.21719900  0.82230400  0.32051800  1
  C  2371  1  0.20698300  0.84169700  0.32921700  1
  C  2372  1  0.18253400  0.84745200  0.32302700  1
  C  2373  1  0.04975370  0.72519100  0.31890100  1
  C  2374  1  0.06050970  0.70700700  0.32947700  1
  C  2375  1  0.08587970  0.70244800  0.32554100  1
  C  2384  1  0.58172400  0.82737200  0.73182500  1
  C  2385  1  0.58174300  0.82744600  0.75423300  1
  C  2386  1  0.59811500  0.81131000  0.76144300  1
  C  2388  1  0.59793300  0.81107000  0.72471000  1
  C  2389  1  0.60264100  0.80593700  0.70250300  1
  C  2390  1  0.61972200  0.78979000  0.69538300  1
  C  2392  1  0.64847900  0.76330300  0.69552700  1
  C  2393  1  0.64232500  0.76776600  0.67393000  1
  C  2394  1  0.62456800  0.78402800  0.67384500  1
  C  2395  1  0.66625400  0.74781000  0.70280500  1
  C  2396  1  0.67206400  0.74374100  0.72504400  1
  C  2398  1  0.67211600  0.74381700  0.76183200  1
  C  2399  1  0.69077900  0.72969800  0.75464000  1
  C  2400  1  0.69056100  0.72946300  0.73222700  1
  C  2401  1  0.66634700  0.74793200  0.78409100  1
  C  2402  1  0.64845600  0.76347900  0.79114500  1
  C  2404  1  0.61971100  0.79003000  0.79093500  1
  C  2405  1  0.62409900  0.78418200  0.81251900  1
  C  2406  1  0.64161400  0.76772500  0.81263500  1
  C  2407  1  0.60292000  0.80634900  0.78366900  1
  C  2408  1  0.58985500  0.81870200  0.79971100  1
  C  2409  1  0.56711400  0.81109400  0.80836100  1
  C  2410  1  0.55295000  0.82422500  0.82247600  1
  C  2411  1  0.56104200  0.84538000  0.82820500  1
  C  2412  1  0.58389800  0.85281400  0.81965300  1
  C  2413  1  0.59815400  0.83969100  0.80560500  1
  C  2414  1  0.67940900  0.73567300  0.80034400  1
  C  2415  1  0.67509700  0.71310900  0.80281900  1
  C  2416  1  0.68864300  0.70081300  0.81809200  1
  C  2417  1  0.70675900  0.71076100  0.83145900  1
  C  2418  1  0.71056400  0.73338000  0.82947500  1
  C  2419  1  0.69738200  0.74562000  0.81388500  1
  C  2420  1  0.67937700  0.73557900  0.68668800  1
  C  2421  1  0.70368300  0.74159200  0.68034100  1
  C  2422  1  0.71742700  0.72851600  0.66587300  1
  C  2423  1  0.70722400  0.70913500  0.65717600  1
  C  2424  1  0.68279600  0.70336400  0.66339500  1
  C  2425  1  0.66903300  0.71635400  0.67795300  1
  C  2426  1  0.58912300  0.81778900  0.68634900  1
  C  2427  1  0.60003900  0.83566300  0.67551000  1
  C  2428  1  0.56393200  0.81281000  0.68205100  1
  C  2429  1  0.54991500  0.82560000  0.66753500  1
  C  2430  1  0.56064400  0.84378200  0.65695400  1
  C  2431  1  0.58599700  0.84836100  0.66089800  1
  C  2462  1  0.93163900  0.51355400  0.44076600  1
  C  2463  1  0.93192700  0.53597900  0.44072200  1
  C  2464  1  0.91537200  0.54335300  0.45663000  1
  C  2466  1  0.91502200  0.50658800  0.45680100  1
  C  2467  1  0.90989200  0.48441100  0.46180600  1
  C  2468  1  0.89271800  0.47743600  0.47792700  1
  C  2470  1  0.86405000  0.47785500  0.50446600  1
  C  2471  1  0.86980800  0.45618200  0.49989600  1
  C  2472  1  0.88747000  0.45592300  0.48356300  1
  C  2473  1  0.84642700  0.48532700  0.51998900  1
  C  2474  1  0.84094500  0.50763600  0.52409500  1
  C  2476  1  0.84138300  0.54443600  0.52405700  1
  C  2477  1  0.82261300  0.53742900  0.53814400  1
  C  2478  1  0.82253000  0.51500200  0.53835200  1
  C  2479  1  0.84742700  0.56665100  0.51995700  1
  C  2480  1  0.86534900  0.57354300  0.50438800  1
  C  2482  1  0.89405000  0.57306900  0.47782800  1
  C  2483  1  0.88983700  0.59471300  0.48361900  1
  C  2484  1  0.87235900  0.59499000  0.50008700  1
  C  2485  1  0.91078900  0.56564300  0.46154700  1
  C  2486  1  0.92400700  0.58159100  0.44918800  1
  C  2487  1  0.94654800  0.59044000  0.45699700  1
  C  2488  1  0.96073200  0.60464200  0.44397900  1
  C  2489  1  0.95288300  0.61024200  0.42272400  1
  C  2490  1  0.93024100  0.60146700  0.41507500  1
  C  2491  1  0.91595900  0.58734600  0.42809000  1
  C  2492  1  0.83458800  0.58301000  0.53225300  1
  C  2493  1  0.83898000  0.58536700  0.55480300  1
  C  2494  1  0.82549400  0.60061500  0.56718200  1
  C  2495  1  0.80734700  0.61405600  0.55733600  1
  C  2496  1  0.80350000  0.61222400  0.53472600  1
  C  2497  1  0.81662500  0.59666000  0.52239900  1
  C  2498  1  0.83329900  0.46939000  0.53243400  1
  C  2499  1  0.80903800  0.46283800  0.52649200  1
  C  2500  1  0.79521300  0.44876700  0.53994200  1
  C  2501  1  0.80526800  0.44085100  0.55969700  1
  C  2502  1  0.82962700  0.44726900  0.56542600  1
  C  2503  1  0.84346900  0.46138400  0.55204200  1
  C  2504  1  0.92289400  0.46812900  0.44968700  1
  C  2505  1  0.91216600  0.45895000  0.43084300  1
  C  2506  1  0.94764800  0.46250800  0.45505200  1
  C  2507  1  0.96137800  0.44816700  0.44180800  1
  C  2508  1  0.95073000  0.43901600  0.42285300  1
  C  2509  1  0.92593900  0.44459800  0.41763900  1
  C  2540  1  0.41533400  0.00726200  0.52978100  1
  C  2541  1  0.34133700  0.00626000  0.46241300  1
  C  2542  1  0.34738800  0.98402800  0.46645400  1
  C  2543  1  0.36532900  0.97712200  0.48200200  1
  C  2545  1  0.39403200  0.97757600  0.50854800  1
  C  2546  1  0.38985700  0.95593900  0.50273300  1
  C  2547  1  0.37238600  0.95567400  0.48627200  1
  C  2548  1  0.41076200  0.98498400  0.52482600  1
  C  2549  1  0.42398500  0.96901600  0.53716300  1
  C  2550  1  0.44658600  0.96022600  0.52937300  1
  C  2551  1  0.46079000  0.94602900  0.54238900  1
  C  2552  1  0.45290200  0.94038600  0.56362300  1
  C  2553  1  0.43020200  0.94910100  0.57125200  1
  C  2554  1  0.41589200  0.96320700  0.55823500  1
  C  2555  1  0.33453100  0.96768900  0.45415500  1
  C  2556  1  0.33879300  0.96541400  0.43157100  1
  C  2557  1  0.32529000  0.95018900  0.41920100  1
  C  2558  1  0.30724800  0.93667800  0.42907900  1
  C  2559  1  0.30352300  0.93843300  0.45171400  1
  C  2560  1  0.31666100  0.95397900  0.46403500  1
  C  2575  1  0.49830000  0.90696400  0.89326100  1
  C  2576  1  0.52421400  0.90310500  0.89231500  1
  C  2577  1  0.53474400  0.88712200  0.87851800  1
  C  2578  1  0.51901400  0.87446600  0.86489100  1
  C  2579  1  0.49289200  0.87836100  0.86536500  1
  C  2581  1  0.48297100  0.89445300  0.87942100  1
  C  2589  1  0.48894600  0.92265300  0.90755100  1
  C  2591  1  0.52846700  0.85736600  0.85240900  1
  C  2593  1  0.74443300  0.37562800  0.62261500  1
  C  2594  1  0.77011700  0.37629400  0.61768100  1
  C  2595  1  0.78001200  0.39029500  0.60156800  1
  C  2596  1  0.76387200  0.40444700  0.58987500  1
  C  2597  1  0.73798700  0.40424800  0.59486900  1
  C  2599  1  0.72869900  0.38996300  0.61105100  1
  C  2607  1  0.73571100  0.36117300  0.63843900  1
  C  2609  1  0.77262000  0.41727200  0.57272100  1
  C  2611  1  0.76362800  0.64666400  0.89735900  1
  C  2612  1  0.73773900  0.65075400  0.89669800  1
  C  2613  1  0.72655100  0.66284200  0.87971400  1
  C  2614  1  0.74164100  0.67142700  0.86281500  1
  C  2615  1  0.76774600  0.66771900  0.86325900  1
  C  2617  1  0.77835700  0.65549100  0.88048600  1
  C  2625  1  0.77354300  0.63441700  0.91441800  1
  C  2627  1  0.73068600  0.68149500  0.84498800  1
  C  2629  1  0.01117870  0.37196600  0.36188200  1
  C  2630  1  0.98564600  0.37217300  0.36740100  1
  C  2631  1  0.97577600  0.38653400  0.38320400  1
  C  2632  1  0.99179600  0.40144100  0.39400600  1
  C  2633  1  0.01757370  0.40169900  0.38834300  1
  C  2635  1  0.02674970  0.38716300  0.37245000  1
  C  2643  1  0.01995670  0.35709700  0.34647300  1
  C  2645  1  0.98290100  0.41459900  0.41078600  1
  C  2647  1  0.76224900  0.40642500  0.89636500  1
  C  2648  1  0.73638400  0.40242400  0.89511900  1
  C  2649  1  0.72612900  0.38692200  0.88064600  1
  C  2650  1  0.74209200  0.37492100  0.86661100  1
  C  2651  1  0.76815600  0.37903500  0.86732900  1
  C  2653  1  0.77779700  0.39463800  0.88205400  1
  C  2661  1  0.77138100  0.42127300  0.91163000  1
  C  2663  1  0.73297200  0.35808400  0.85360400  1
  C  2665  1  0.01553570  0.67592600  0.36173400  1
  C  2666  1  0.98960800  0.67485500  0.36547700  1
  C  2667  1  0.97907900  0.66093800  0.38135400  1
  C  2668  1  0.99482600  0.64730000  0.39401300  1
  C  2669  1  0.02096170  0.64789300  0.39023000  1
  C  2671  1  0.03088070  0.66207500  0.37424900  1
  C  2679  1  0.02488270  0.69031600  0.34613100  1
  C  2681  1  0.98535400  0.63468400  0.41100300  1
  C  2683  1  0.51564400  0.87480700  0.62466400  1
  C  2684  1  0.48971900  0.87583800  0.62089500  1
  C  2685  1  0.47917800  0.88973500  0.60500400  1
  C  2686  1  0.49490800  0.90338100  0.59235100  1
  C  2687  1  0.52104100  0.90282100  0.59615200  1
  C  2689  1  0.53097200  0.88866300  0.61215100  1
  C  2697  1  0.52500300  0.86044900  0.64029200  1
  C  2699  1  0.48543200  0.91598300  0.57535400  1
  C  2701  1  0.25026500  0.87136300  0.36447700  1
  C  2702  1  0.27612300  0.87189200  0.36871100  1
  C  2703  1  0.28730300  0.88876100  0.38094900  1
  C  2704  1  0.27223300  0.90567100  0.38957600  1
  C  2705  1  0.24615300  0.90534900  0.38573600  1
  C  2707  1  0.23555100  0.88824200  0.37334900  1
  C  2715  1  0.24036400  0.85440400  0.35209100  1
  C  2717  1  0.28320700  0.92340600  0.39979900  1
  C  2719  1  0.75048500  0.67945400  0.62190400  1
  C  2720  1  0.77634700  0.67885800  0.61770700  1
  C  2721  1  0.78751900  0.66195000  0.60549200  1
  C  2722  1  0.77242500  0.64507500  0.59687900  1
  C  2723  1  0.74633800  0.64546100  0.60068500  1
  C  2725  1  0.73574800  0.66260700  0.61304600  1
  C  2733  1  0.74058100  0.69644600  0.63424800  1
  C  2735  1  0.78336700  0.62732900  0.58664100  1
  C  2738  1  0.52863600  0.04337200  0.02523800  1
  C  2739  1  0.51215200  0.03609200  0.04123500  1
  C  2740  1  0.51230100  0.01366100  0.04118000  1
  C  2741  1  0.53363800  0.06563800  0.02055300  1
  C  2742  1  0.52071600  0.08164800  0.03303400  1
  C  2743  1  0.53015100  0.08863500  0.05329300  1
  C  2744  1  0.51643800  0.10315000  0.06635800  1
  C  2745  1  0.49287700  0.11084100  0.05969500  1
  C  2746  1  0.48370400  0.10409900  0.03919700  1
  C  2747  1  0.49737700  0.08961400  0.02608200  1
  C  2754  1  0.44850500  0.14433400  0.09007400  1
  C  2755  1  0.42264200  0.14837300  0.09129800  1
  C  2756  1  0.41237400  0.16388900  0.10576400  1
  C  2757  1  0.42832900  0.17587000  0.11979100  1
  C  2758  1  0.45439300  0.17172800  0.11909100  1
  C  2760  1  0.46404400  0.15610600  0.10437900  1
  C  2766  1  0.45765200  0.12946000  0.07483700  1
  C  2768  1  0.38694300  0.20447200  0.15741600  1
  C  2769  1  0.36432500  0.19690400  0.16632500  1
  C  2774  1  0.41919400  0.19271000  0.13279000  1
  C  2777  1  0.39502600  0.22564700  0.16309300  1
  C  2778  1  0.35029600  0.20991400  0.18065200  1
  C  2780  1  0.35859000  0.23092000  0.18648300  1
  C  2781  1  0.38110500  0.23865600  0.17750000  1
  C  2782  1  0.34559500  0.24330900  0.20254300  1
  C  2783  1  0.36681300  0.22225600  0.23199400  1
  C  2785  1  0.35042600  0.23837700  0.22477400  1
  C  2787  1  0.32874800  0.25958100  0.19526000  1
  C  2788  1  0.32420000  0.26530300  0.17366200  1
  C  2790  1  0.36678000  0.22230300  0.25440700  1
  C  2793  1  0.30664800  0.28173200  0.17353500  1
  C  2796  1  0.35055400  0.23859100  0.26151700  1
  C  2798  1  0.29995600  0.28609100  0.19503500  1
  C  2801  1  0.34574200  0.24366300  0.28372400  1
  C  2804  1  0.25059600  0.30407200  0.17273000  1
  C  2805  1  0.28212500  0.30168400  0.20208400  1
  C  2806  1  0.27638000  0.30585300  0.22433300  1
  C  2808  1  0.27636200  0.30590700  0.26111200  1
  C  2809  1  0.28206000  0.30175500  0.28335400  1
  C  2811  1  0.32862200  0.25979700  0.29081800  1
  C  2812  1  0.29982000  0.28625100  0.29064500  1
  C  2814  1  0.23702800  0.31639300  0.15745700  1
  C  2815  1  0.26903000  0.31392600  0.18585300  1
  C  2816  1  0.25787400  0.32014000  0.23150200  1
  C  2817  1  0.25806500  0.32037400  0.25390900  1
  C  2818  1  0.26890500  0.31399600  0.29944100  1
  C  2819  1  0.34775200  0.21406200  0.31089900  1
  C  2821  1  0.35904000  0.23168100  0.29993000  1
  C  2822  1  0.38426900  0.23639900  0.30435500  1
  C  2823  1  0.24427000  0.30844500  0.30525400  1
  C  2824  1  0.53401600  0.98439100  0.02024100  1
  C  2825  1  0.52876800  0.00659800  0.02506500  1
  C  2826  1  0.52099500  0.96814200  0.03239300  1
  C  2827  1  0.49605200  0.96297800  0.02731200  1
  C  2828  1  0.48232500  0.94862200  0.04051600  1
  C  2829  1  0.49314300  0.93889200  0.05913800  1
  C  2830  1  0.51816100  0.94397300  0.06401500  1
  C  2831  1  0.53193000  0.95839500  0.05087500  1
  C  2838  1  0.11847100  0.53596100  0.04546100  1
  C  2839  1  0.11816800  0.51353100  0.04548200  1
  C  2840  1  0.10119800  0.50653100  0.02976400  1
  C  2842  1  0.10187700  0.54332000  0.02958300  1
  C  2843  1  0.09711050  0.56561900  0.02478100  1
  C  2844  1  0.09570750  0.48434200  0.02510100  1
  C  2845  1  0.10857100  0.46805500  0.03732700  1
  C  2846  1  0.13039200  0.45834700  0.02897100  1
  C  2847  1  0.14438200  0.44374500  0.04169800  1
  C  2848  1  0.13706000  0.43847500  0.06319700  1
  C  2849  1  0.11505100  0.44805200  0.07135000  1
  C  2850  1  0.10096200  0.46262500  0.05863800  1
  C  2851  1  0.11070000  0.58162800  0.03675300  1
  C  2852  1  0.09984950  0.59234500  0.05473200  1
  C  2853  1  0.13583300  0.58605800  0.03165000  1
  C  2854  1  0.14985500  0.60057700  0.04441100  1
  C  2855  1  0.13918300  0.61106100  0.06267400  1
  C  2856  1  0.11388800  0.60697900  0.06738700  1
  C  2871  1  0.25957500  0.34882600  0.16828900  1
  C  2872  1  0.24092500  0.33899500  0.15540300  1
  C  2875  1  0.23885700  0.72650100  0.16400600  1
  C  2876  1  0.24696300  0.70533200  0.15829500  1
  C  2877  1  0.26984700  0.69792100  0.16682000  1
  C  2878  1  0.37456000  0.84994900  0.16837100  1
  C  2879  1  0.39266900  0.83998800  0.15497600  1
  C  2880  1  0.39643700  0.81735500  0.15691300  1
  C  2889  1  0.18415600  0.64366900  0.09336400  1
  C  2890  1  0.21007200  0.64749000  0.09431800  1
  C  2891  1  0.22060300  0.66347100  0.10810100  1
  C  2892  1  0.20487900  0.67616500  0.12172600  1
  C  2893  1  0.17875300  0.67230500  0.12124800  1
  C  2895  1  0.16883100  0.65621800  0.10719900  1
  C  2903  1  0.17480800  0.62798200  0.07907600  1
  C  2905  1  0.21433200  0.69327300  0.13419600  1
  C  2907  1  0.44969100  0.90409300  0.08916800  1
  C  2908  1  0.42380400  0.90001800  0.08978700  1
  C  2909  1  0.41257100  0.88792700  0.10674500  1
  C  2910  1  0.42761700  0.87930400  0.12365600  1
  C  2911  1  0.45372100  0.88298900  0.12324800  1
  C  2913  1  0.46437700  0.89522600  0.10605100  1
  C  2921  1  0.45964100  0.91636600  0.07214100  1
  C  2923  1  0.41661300  0.86924100  0.14146700  1
  C  2925  1  0.18129500  0.40301500  0.09146200  1
  C  2926  1  0.20731300  0.39958600  0.09151500  1
  C  2927  1  0.21936400  0.38765600  0.10815400  1
  C  2928  1  0.20502200  0.37854100  0.12526800  1
  C  2929  1  0.17880400  0.38159500  0.12543000  1
  C  2931  1  0.16731600  0.39370600  0.10855500  1
  C  2939  1  0.17048200  0.41493600  0.07463100  1
  C  2941  1  0.21679800  0.36849800  0.14268500  1
  C  2943  1  0.27348300  0.33645300  0.18324700  1
  C  2945  1  0.33432700  0.78728900  0.19527700  1
  C  2946  1  0.30560600  0.76074700  0.19549300  1
  C  2947  1  0.30998500  0.76660800  0.17390900  1
  C  2948  1  0.32746100  0.78307700  0.17379100  1
  C  2949  1  0.27578300  0.73206300  0.18672200  1
  C  2950  1  0.25300900  0.73964500  0.17810000  1
  C  2951  1  0.28409200  0.71106100  0.18084200  1
  C  2952  1  0.36527200  0.81507500  0.18606200  1
  C  2953  1  0.36100000  0.83765700  0.18363300  1
  C  2954  1  0.38323200  0.80511500  0.17248600  1
  C  2959  1  0.35221600  0.80281900  0.20232000  1
  C  2961  1  0.28883700  0.74442400  0.20275900  1
  C  2963  1  0.26770900  0.72334200  0.23222500  1
  C  2964  1  0.28406200  0.73946700  0.22499500  1
  C  2965  1  0.35802800  0.80689100  0.22457700  1
  C  2966  1  0.37674700  0.82093300  0.23175000  1
  C  2969  1  0.26769400  0.72342800  0.25463400  1
  C  2972  1  0.37652700  0.82118600  0.25416300  1
  C  2976  1  0.28387200  0.73973500  0.26173300  1
  C  2977  1  0.35797000  0.80699500  0.26136700  1
  C  2980  1  0.28856400  0.74488400  0.28393700  1
  C  2982  1  0.35212300  0.80299600  0.28361600  1
  C  2983  1  0.30561700  0.76103700  0.29104400  1
  C  2984  1  0.33434800  0.78751700  0.29089400  1
  C  2985  1  0.36523700  0.81523300  0.29972600  1
  C  2988  1  0.27970600  0.33271500  0.30882900  1
  C  2990  1  0.38955700  0.80922400  0.30606300  1
  C  2991  1  0.35487700  0.83446200  0.30847400  1
  C  2992  1  0.27505900  0.73303400  0.30009900  1
  C  2993  1  0.28599800  0.71515100  0.31092500  1
  C  2994  1  0.24985100  0.73799800  0.30439900  1
  C  2997  1  0.61870400  0.01459500  0.94113400  1
  C  2998  1  0.61841500  0.03702500  0.94108600  1
  C  2999  1  0.60143400  0.04406700  0.95679500  1
  C  3001  1  0.55055600  0.07303400  0.00441600  1
  C  3003  1  0.57888600  0.07332700  0.97761000  1
  C  3004  1  0.57309900  0.09487000  0.98272700  1
  C  3005  1  0.55571600  0.09469100  0.99928100  1
  C  3006  1  0.59597100  0.06627100  0.96144400  1
  C  3007  1  0.60883500  0.08253600  0.94920000  1
  C  3008  1  0.63063300  0.09225400  0.95754600  1
  C  3009  1  0.64460400  0.10685700  0.94481700  1
  C  3010  1  0.63730800  0.11209800  0.92330500  1
  C  3011  1  0.61532500  0.10251100  0.91515600  1
  C  3012  1  0.60125800  0.08793600  0.92787400  1
  C  3023  1  0.61766900  0.03702200  0.54569400  1
  C  3024  1  0.61795500  0.01459700  0.54570800  1
  C  3026  1  0.60109500  0.04403000  0.52964800  1
  C  3027  1  0.59599900  0.06622400  0.52465600  1
  C  3028  1  0.57883000  0.07321200  0.50853700  1
  C  3030  1  0.55015800  0.07281300  0.48201700  1
  C  3031  1  0.55594300  0.09448200  0.48655600  1
  C  3032  1  0.57359800  0.09472700  0.50288400  1
  C  3033  1  0.53254400  0.06535900  0.46649700  1
  C  3034  1  0.52702500  0.04306200  0.46240200  1
  C  3036  1  0.50860500  0.01331300  0.44840300  1
  C  3037  1  0.50854600  0.03573900  0.44820600  1
  C  3038  1  0.51943000  0.08131200  0.45405600  1
  C  3039  1  0.49521000  0.08796700  0.46006200  1
  C  3040  1  0.48137600  0.10202700  0.44660100  1
  C  3041  1  0.49139900  0.10985600  0.42679800  1
  C  3042  1  0.51573100  0.10335500  0.42102100  1
  C  3043  1  0.52958000  0.08924200  0.43440900  1
  C  3044  1  0.60900400  0.08248800  0.53678300  1
  C  3045  1  0.59824800  0.09172500  0.55560200  1
  C  3046  1  0.63379800  0.08802600  0.53147900  1
  C  3047  1  0.64750600  0.10237000  0.54471200  1
  C  3048  1  0.63683000  0.11156900  0.56364600  1
  C  3049  1  0.61200800  0.10606200  0.56881200  1
  C  3066  1  0.43059200  0.17505500  0.36383400  1
  C  3067  1  0.45626500  0.17440600  0.36879900  1
  C  3068  1  0.46615200  0.16041600  0.38492800  1
  C  3069  1  0.45001300  0.14626900  0.39660900  1
  C  3070  1  0.42413700  0.14645300  0.39158900  1
  C  3071  1  0.41486000  0.16072400  0.37538900  1
  C  3079  1  0.45874400  0.13345200  0.41377500  1
  C  3081  1  0.69732000  0.17860900  0.62461300  1
  C  3082  1  0.67178300  0.17839600  0.61911700  1
  C  3083  1  0.66191600  0.16401500  0.60334200  1
  C  3084  1  0.67793400  0.14907300  0.59254500  1
  C  3085  1  0.70371800  0.14882000  0.59819200  1
  C  3086  1  0.71289200  0.16338100  0.61405200  1
  C  3093  1  0.66904100  0.13590000  0.57577400  1
  C  3095  1  0.68150700  0.14757100  0.89503100  1
  C  3096  1  0.70751700  0.15101000  0.89498200  1
  C  3097  1  0.71956200  0.16294100  0.87834300  1
  C  3098  1  0.70522000  0.17206800  0.86123500  1
  C  3099  1  0.67900700  0.16901100  0.86107400  1
  C  3101  1  0.66752500  0.15689000  0.87794500  1
  C  3108  1  0.67069900  0.13564200  0.91186100  1
  C  3111  1  0.75972500  0.20183400  0.81819000  1
  C  3112  1  0.76614100  0.20497600  0.66291400  1
  C  3117  1  0.38679800  0.20576900  0.32994700  1
  C  3118  1  0.36143500  0.20141000  0.32580800  1
  C  3122  1  0.42187800  0.18949100  0.34798900  1
  C  3126  1  0.70609100  0.19350700  0.63999000  1
  C  3129  1  0.71699500  0.18210700  0.84381200  1
  C  3130  1  0.77362200  0.21421500  0.80323700  1
  C  3131  1  0.74101300  0.21164300  0.83105600  1
  C  3132  1  0.73058800  0.22901100  0.66679800  1
  C  3133  1  0.74123300  0.21004100  0.65760900  1
  C  3134  1  0.77976100  0.21795800  0.67755300  1
  C  3139  1  0.39793100  0.22364700  0.31916300  1
  C  3141  1  0.77640800  0.24473300  0.72533600  1
  C  3142  1  0.77645300  0.24478700  0.76212300  1
  C  3143  1  0.75800900  0.23045800  0.75497100  1
  C  3144  1  0.75818600  0.23022400  0.73256200  1
  C  3145  1  0.76910000  0.23673600  0.80061100  1
  C  3146  1  0.73705400  0.23424100  0.82898700  1
  C  3147  1  0.75061400  0.24657300  0.81372300  1
  C  3148  1  0.76892100  0.23664900  0.68700100  1
  C  3149  1  0.74423200  0.24213200  0.68128100  1
  C  3152  1  0.79982200  0.26439000  0.69579100  1
  C  3153  1  0.78207200  0.24889100  0.70308200  1
  C  3155  1  0.78217300  0.24898300  0.78437000  1
  C  3156  1  0.79996300  0.26459000  0.79141100  1
  C  3162  1  0.32365700  0.26549200  0.31235500  1
  C  3165  1  0.80583600  0.26895100  0.67418400  1
  C  3167  1  0.80661800  0.26897400  0.81291000  1
  C  3168  1  0.30586300  0.28172200  0.31225200  1
  C  3169  1  0.82858400  0.29085300  0.69561300  1
  C  3170  1  0.82361000  0.28517500  0.67407600  1
  C  3171  1  0.82871600  0.29110800  0.79117900  1
  C  3172  1  0.82414600  0.28540200  0.81277800  1
  C  3178  1  0.84569000  0.30698100  0.70269800  1
  C  3179  1  0.84555000  0.30737600  0.78389500  1
  C  3182  1  0.85038800  0.31227700  0.76165400  1
  C  3183  1  0.85051100  0.31204700  0.72490300  1
  C  3184  1  0.85851700  0.31978600  0.79995000  1
  C  3185  1  0.88101100  0.31204900  0.80898200  1
  C  3186  1  0.85897600  0.31896300  0.68648400  1
  C  3187  1  0.88421000  0.31423400  0.68203800  1
  C  3190  1  0.60208000  0.00728200  0.95700900  1
  C  3191  1  0.59729100  0.98499800  0.96184400  1
  C  3192  1  0.58005700  0.97762300  0.97774900  1
  C  3194  1  0.55133200  0.97734400  0.00425900  1
  C  3195  1  0.55709100  0.95580000  0.99913800  1
  C  3196  1  0.57486900  0.95597200  0.98290700  1
  C  3197  1  0.61088000  0.96897000  0.94988500  1
  C  3198  1  0.60007100  0.95834500  0.93184900  1
  C  3199  1  0.63597700  0.96445300  0.95505300  1
  C  3200  1  0.65001600  0.94992600  0.94229200  1
  C  3201  1  0.63938500  0.93952700  0.92397900  1
  C  3202  1  0.61411900  0.94368800  0.91920600  1
  C  3211  1  0.07988050  0.57301200  0.00887800  1
  C  3213  1  0.05117750  0.57331600  0.98236200  1
  C  3214  1  0.05693650  0.59485500  0.98748100  1
  C  3215  1  0.07470150  0.59466700  0.00371200  1
  C  3216  1  0.03387650  0.56629200  0.96637500  1
  C  3217  1  0.02859750  0.54409800  0.96154400  1
  C  3219  1  0.02842750  0.50732200  0.96133900  1
  C  3220  1  0.01197950  0.51464700  0.94533800  1
  C  3221  1  0.01213750  0.53707800  0.94542000  1
  C  3222  1  0.03340050  0.48504000  0.96600200  1
  C  3223  1  0.05030850  0.47762700  0.98213800  1
  C  3225  1  0.07862550  0.47730700  0.00894300  1
  C  3226  1  0.07284350  0.45577000  0.00382400  1
  C  3227  1  0.05546850  0.45596700  0.98727300  1
  C  3228  1  0.02048150  0.46905200  0.95350200  1
  C  3229  1  0.02994650  0.46205000  0.93324600  1
  C  3230  1  0.01624850  0.44756500  0.92015900  1
  C  3231  1  0.99266100  0.43991200  0.92678400  1
  C  3232  1  0.98346000  0.44666500  0.94728000  1
  C  3233  1  0.99711900  0.46112100  0.96041800  1
  C  3234  1  0.02088950  0.58256600  0.95422100  1
  C  3235  1  0.99594500  0.58777900  0.95929700  1
  C  3236  1  0.98224700  0.60215400  0.94608300  1
  C  3237  1  0.99310000  0.61185600  0.92746300  1
  C  3238  1  0.01811250  0.60671300  0.92258300  1
  C  3239  1  0.03185550  0.59227800  0.93573700  1
  C  3256  1  0.86673600  0.32831800  0.73200000  1
  C  3257  1  0.86677000  0.32837600  0.75441300  1
  C  3258  1  0.89490100  0.32507200  0.82338200  1
  C  3259  1  0.88681000  0.34626900  0.82901400  1
  C  3260  1  0.86421100  0.35384000  0.82005700  1
  C  3261  1  0.85022300  0.34082100  0.80573000  1
  C  3262  1  0.84767300  0.33658900  0.67552300  1
  C  3263  1  0.89786900  0.32700000  0.66724500  1
  C  3264  1  0.88672400  0.34489100  0.65647600  1
  C  3265  1  0.86135300  0.34925300  0.66062600  1
  C  3275  1  0.23061700  0.32155400  0.31975900  1
  C  3276  1  0.24121300  0.34055900  0.32887900  1
  C  3277  1  0.26607500  0.34568400  0.32349200  1
  C  3280  1  0.32816000  0.78307700  0.31249100  1
  C  3281  1  0.31042400  0.76682000  0.31258000  1
  C  3282  1  0.40328900  0.82230400  0.32051800  1
  C  3283  1  0.39307300  0.84169700  0.32921700  1
  C  3284  1  0.36862400  0.84745200  0.32302700  1
  C  3285  1  0.23584400  0.72519100  0.31890100  1
  C  3286  1  0.24660000  0.70700700  0.32947700  1
  C  3287  1  0.27197000  0.70244800  0.32554100  1
  C  3296  1  0.76781400  0.82737200  0.73182500  1
  C  3297  1  0.76783300  0.82744600  0.75423300  1
  C  3298  1  0.78420500  0.81131000  0.76144300  1
  C  3300  1  0.78402300  0.81107000  0.72471000  1
  C  3301  1  0.78873100  0.80593700  0.70250300  1
  C  3302  1  0.80581200  0.78979000  0.69538300  1
  C  3304  1  0.83456900  0.76330300  0.69552700  1
  C  3305  1  0.82841500  0.76776600  0.67393000  1
  C  3306  1  0.81065800  0.78402800  0.67384500  1
  C  3307  1  0.85234400  0.74781000  0.70280500  1
  C  3308  1  0.85815400  0.74374100  0.72504400  1
  C  3310  1  0.85820600  0.74381700  0.76183200  1
  C  3311  1  0.87686900  0.72969800  0.75464000  1
  C  3312  1  0.87665100  0.72946300  0.73222700  1
  C  3313  1  0.85243700  0.74793200  0.78409100  1
  C  3314  1  0.83454600  0.76347900  0.79114500  1
  C  3316  1  0.80580100  0.79003000  0.79093500  1
  C  3317  1  0.81018900  0.78418200  0.81251900  1
  C  3318  1  0.82770400  0.76772500  0.81263500  1
  C  3319  1  0.78901000  0.80634900  0.78366900  1
  C  3320  1  0.77594500  0.81870200  0.79971100  1
  C  3321  1  0.75320400  0.81109400  0.80836100  1
  C  3322  1  0.73904000  0.82422500  0.82247600  1
  C  3323  1  0.74713200  0.84538000  0.82820500  1
  C  3324  1  0.76998800  0.85281400  0.81965300  1
  C  3325  1  0.78424400  0.83969100  0.80560500  1
  C  3326  1  0.86549900  0.73567300  0.80034400  1
  C  3327  1  0.86118700  0.71310900  0.80281900  1
  C  3328  1  0.87473300  0.70081300  0.81809200  1
  C  3329  1  0.89284900  0.71076100  0.83145900  1
  C  3330  1  0.89665400  0.73338000  0.82947500  1
  C  3331  1  0.88347200  0.74562000  0.81388500  1
  C  3332  1  0.86546700  0.73557900  0.68668800  1
  C  3333  1  0.88977300  0.74159200  0.68034100  1
  C  3334  1  0.90351700  0.72851600  0.66587300  1
  C  3335  1  0.89331400  0.70913500  0.65717600  1
  C  3336  1  0.86888600  0.70336400  0.66339500  1
  C  3337  1  0.85512300  0.71635400  0.67795300  1
  C  3338  1  0.77521300  0.81778900  0.68634900  1
  C  3339  1  0.78612900  0.83566300  0.67551000  1
  C  3340  1  0.75002200  0.81281000  0.68205100  1
  C  3341  1  0.73600500  0.82560000  0.66753500  1
  C  3342  1  0.74673400  0.84378200  0.65695400  1
  C  3343  1  0.77208700  0.84836100  0.66089800  1
  C  3374  1  0.11772900  0.51355400  0.44076600  1
  C  3375  1  0.11801700  0.53597900  0.44072200  1
  C  3376  1  0.10146200  0.54335300  0.45663000  1
  C  3378  1  0.10111200  0.50658800  0.45680100  1
  C  3379  1  0.09598250  0.48441100  0.46180600  1
  C  3380  1  0.07880850  0.47743600  0.47792700  1
  C  3382  1  0.05014050  0.47785500  0.50446600  1
  C  3383  1  0.05589850  0.45618200  0.49989600  1
  C  3384  1  0.07356050  0.45592300  0.48356300  1
  C  3385  1  0.03251750  0.48532700  0.51998900  1
  C  3386  1  0.02703550  0.50763600  0.52409500  1
  C  3388  1  0.02747350  0.54443600  0.52405700  1
  C  3389  1  0.00870348  0.53742900  0.53814400  1
  C  3390  1  0.00862048  0.51500200  0.53835200  1
  C  3391  1  0.03351750  0.56665100  0.51995700  1
  C  3392  1  0.05143950  0.57354300  0.50438800  1
  C  3394  1  0.08014050  0.57306900  0.47782800  1
  C  3395  1  0.07592750  0.59471300  0.48361900  1
  C  3396  1  0.05844950  0.59499000  0.50008700  1
  C  3397  1  0.09687950  0.56564300  0.46154700  1
  C  3398  1  0.11009700  0.58159100  0.44918800  1
  C  3399  1  0.13263800  0.59044000  0.45699700  1
  C  3400  1  0.14682200  0.60464200  0.44397900  1
  C  3401  1  0.13897300  0.61024200  0.42272400  1
  C  3402  1  0.11633100  0.60146700  0.41507500  1
  C  3403  1  0.10204900  0.58734600  0.42809000  1
  C  3404  1  0.02067850  0.58301000  0.53225300  1
  C  3405  1  0.02507050  0.58536700  0.55480300  1
  C  3406  1  0.01158450  0.60061500  0.56718200  1
  C  3407  1  0.99343700  0.61405600  0.55733600  1
  C  3408  1  0.98959000  0.61222400  0.53472600  1
  C  3409  1  0.00271548  0.59666000  0.52239900  1
  C  3410  1  0.01938950  0.46939000  0.53243400  1
  C  3411  1  0.99512800  0.46283800  0.52649200  1
  C  3412  1  0.98130300  0.44876700  0.53994200  1
  C  3413  1  0.99135800  0.44085100  0.55969700  1
  C  3414  1  0.01571750  0.44726900  0.56542600  1
  C  3415  1  0.02955950  0.46138400  0.55204200  1
  C  3416  1  0.10898400  0.46812900  0.44968700  1
  C  3417  1  0.09825650  0.45895000  0.43084300  1
  C  3418  1  0.13373800  0.46250800  0.45505200  1
  C  3419  1  0.14746800  0.44816700  0.44180800  1
  C  3420  1  0.13682000  0.43901600  0.42285300  1
  C  3421  1  0.11202900  0.44459800  0.41763900  1
  C  3452  1  0.60142400  0.00726200  0.52978100  1
  C  3453  1  0.52742700  0.00626000  0.46241300  1
  C  3454  1  0.53347800  0.98402800  0.46645400  1
  C  3455  1  0.55141900  0.97712200  0.48200200  1
  C  3457  1  0.58012200  0.97757600  0.50854800  1
  C  3458  1  0.57594700  0.95593900  0.50273300  1
  C  3459  1  0.55847600  0.95567400  0.48627200  1
  C  3460  1  0.59685200  0.98498400  0.52482600  1
  C  3461  1  0.61007500  0.96901600  0.53716300  1
  C  3462  1  0.63267600  0.96022600  0.52937300  1
  C  3463  1  0.64688000  0.94602900  0.54238900  1
  C  3464  1  0.63899200  0.94038600  0.56362300  1
  C  3465  1  0.61629200  0.94910100  0.57125200  1
  C  3466  1  0.60198200  0.96320700  0.55823500  1
  C  3467  1  0.52062100  0.96768900  0.45415500  1
  C  3468  1  0.52488300  0.96541400  0.43157100  1
  C  3469  1  0.51138000  0.95018900  0.41920100  1
  C  3470  1  0.49333800  0.93667800  0.42907900  1
  C  3471  1  0.48961300  0.93843300  0.45171400  1
  C  3472  1  0.50275100  0.95397900  0.46403500  1
  C  3487  1  0.68439000  0.90696400  0.89326100  1
  C  3488  1  0.71030400  0.90310500  0.89231500  1
  C  3489  1  0.72083400  0.88712200  0.87851800  1
  C  3490  1  0.70510400  0.87446600  0.86489100  1
  C  3491  1  0.67898200  0.87836100  0.86536500  1
  C  3493  1  0.66906100  0.89445300  0.87942100  1
  C  3501  1  0.67503600  0.92265300  0.90755100  1
  C  3503  1  0.71455700  0.85736600  0.85240900  1
  C  3505  1  0.93052300  0.37562800  0.62261500  1
  C  3506  1  0.95620700  0.37629400  0.61768100  1
  C  3507  1  0.96610200  0.39029500  0.60156800  1
  C  3508  1  0.94996200  0.40444700  0.58987500  1
  C  3509  1  0.92407700  0.40424800  0.59486900  1
  C  3511  1  0.91478900  0.38996300  0.61105100  1
  C  3519  1  0.92180100  0.36117300  0.63843900  1
  C  3521  1  0.95871000  0.41727200  0.57272100  1
  C  3523  1  0.94971800  0.64666400  0.89735900  1
  C  3524  1  0.92382900  0.65075400  0.89669800  1
  C  3525  1  0.91264100  0.66284200  0.87971400  1
  C  3526  1  0.92773100  0.67142700  0.86281500  1
  C  3527  1  0.95383600  0.66771900  0.86325900  1
  C  3529  1  0.96444700  0.65549100  0.88048600  1
  C  3537  1  0.95963300  0.63441700  0.91441800  1
  C  3539  1  0.91677600  0.68149500  0.84498800  1
  C  3541  1  0.19726900  0.37196600  0.36188200  1
  C  3542  1  0.17173600  0.37217300  0.36740100  1
  C  3543  1  0.16186600  0.38653400  0.38320400  1
  C  3544  1  0.17788600  0.40144100  0.39400600  1
  C  3545  1  0.20366400  0.40169900  0.38834300  1
  C  3547  1  0.21284000  0.38716300  0.37245000  1
  C  3555  1  0.20604700  0.35709700  0.34647300  1
  C  3557  1  0.16899100  0.41459900  0.41078600  1
  C  3559  1  0.94833900  0.40642500  0.89636500  1
  C  3560  1  0.92247400  0.40242400  0.89511900  1
  C  3561  1  0.91221900  0.38692200  0.88064600  1
  C  3562  1  0.92818200  0.37492100  0.86661100  1
  C  3563  1  0.95424600  0.37903500  0.86732900  1
  C  3565  1  0.96388700  0.39463800  0.88205400  1
  C  3573  1  0.95747100  0.42127300  0.91163000  1
  C  3575  1  0.91906200  0.35808400  0.85360400  1
  C  3577  1  0.20162600  0.67592600  0.36173400  1
  C  3578  1  0.17569800  0.67485500  0.36547700  1
  C  3579  1  0.16516900  0.66093800  0.38135400  1
  C  3580  1  0.18091600  0.64730000  0.39401300  1
  C  3581  1  0.20705200  0.64789300  0.39023000  1
  C  3583  1  0.21697100  0.66207500  0.37424900  1
  C  3591  1  0.21097300  0.69031600  0.34613100  1
  C  3593  1  0.17144400  0.63468400  0.41100300  1
  C  3595  1  0.70173400  0.87480700  0.62466400  1
  C  3596  1  0.67580900  0.87583800  0.62089500  1
  C  3597  1  0.66526800  0.88973500  0.60500400  1
  C  3598  1  0.68099800  0.90338100  0.59235100  1
  C  3599  1  0.70713100  0.90282100  0.59615200  1
  C  3601  1  0.71706200  0.88866300  0.61215100  1
  C  3609  1  0.71109300  0.86044900  0.64029200  1
  C  3611  1  0.67152200  0.91598300  0.57535400  1
  C  3613  1  0.43635500  0.87136300  0.36447700  1
  C  3614  1  0.46221300  0.87189200  0.36871100  1
  C  3615  1  0.47339300  0.88876100  0.38094900  1
  C  3616  1  0.45832300  0.90567100  0.38957600  1
  C  3617  1  0.43224300  0.90534900  0.38573600  1
  C  3619  1  0.42164100  0.88824200  0.37334900  1
  C  3627  1  0.42645400  0.85440400  0.35209100  1
  C  3629  1  0.46929700  0.92340600  0.39979900  1
  C  3631  1  0.93657500  0.67945400  0.62190400  1
  C  3632  1  0.96243700  0.67885800  0.61770700  1
  C  3633  1  0.97360900  0.66195000  0.60549200  1
  C  3634  1  0.95851500  0.64507500  0.59687900  1
  C  3635  1  0.93242800  0.64546100  0.60068500  1
  C  3637  1  0.92183800  0.66260700  0.61304600  1
  C  3645  1  0.92667100  0.69644600  0.63424800  1
  C  3647  1  0.96945700  0.62732900  0.58664100  1
  N  1  1  0.97971300  0.02505500  0.01601400  1
  N  17  1  0.92255000  0.12434900  0.07306900  1
  N  26  1  0.82809400  0.16781400  0.10585800  1
  N  35  1  0.84098800  0.19093500  0.14426600  1
  N  36  1  0.91234500  0.18327100  0.13314900  1
  N  55  1  0.78296700  0.24765800  0.24310900  1
  N  58  1  0.75548500  0.27244500  0.20739600  1
  N  66  1  0.75560800  0.27266500  0.27846700  1
  N  71  1  0.72844800  0.29765300  0.24274300  1
  N  101  1  0.92260600  0.92605200  0.07308100  1
  N  105  1  0.53378200  0.52502400  0.02070900  1
  N  133  1  0.59315200  0.62489000  0.07559700  1
  N  134  1  0.59171400  0.42563600  0.07668500  1
  N  138  1  0.66971900  0.35010100  0.14059400  1
  N  151  1  0.84677200  0.85099700  0.13973800  1
  N  152  1  0.67608700  0.69161600  0.14556400  1
  N  161  1  0.68839300  0.66707800  0.10796300  1
  N  162  1  0.60447200  0.68452900  0.13494000  1
  N  179  1  0.82817400  0.88469700  0.10717100  1
  N  180  1  0.91054500  0.87420900  0.13998800  1
  N  197  1  0.68731400  0.38502800  0.10803700  1
  N  198  1  0.60618000  0.37229800  0.14238500  1
  N  224  1  0.76238900  0.77353500  0.20762600  1
  N  234  1  0.73494200  0.74877100  0.24332500  1
  N  235  1  0.78928100  0.79882100  0.24299200  1
  N  245  1  0.76214900  0.77385600  0.27870700  1
  N  264  1  0.03399000  0.02559900  0.96586600  1
  N  266  1  0.00662200  0.06090200  0.99101800  1
  N  286  1  0.09195100  0.12493900  0.90981100  1
  N  289  1  0.03359500  0.02555000  0.52066600  1
  N  293  1  0.00602500  0.06073800  0.49562800  1
  N  299  1  0.97942500  0.02475100  0.47050400  1
  N  328  1  0.92102200  0.12271000  0.41284700  1
  N  329  1  0.09060800  0.12469800  0.57738300  1
  N  337  1  0.93370200  0.16085200  0.38966300  1
  N  338  1  0.84945700  0.13223900  0.40275700  1
  N  352  1  0.07796300  0.16479500  0.59807900  1
  N  353  1  0.16349600  0.13460800  0.58922100  1
  N  367  1  0.18750900  0.16556500  0.87845400  1
  N  368  1  0.10638000  0.17831700  0.84412400  1
  N  379  1  0.16983200  0.20053200  0.84587700  1
  N  380  1  0.17108300  0.19670200  0.64394300  1
  N  384  1  0.84035900  0.19282300  0.34404400  1
  N  418  1  0.22848400  0.25299300  0.74369800  1
  N  428  1  0.25559400  0.27797300  0.70796500  1
  N  430  1  0.25549600  0.27822700  0.77904800  1
  N  441  1  0.28293800  0.30299200  0.74332300  1
  N  457  1  0.00725800  0.98975700  0.99099700  1
  N  474  1  0.09337500  0.92571300  0.91105100  1
  N  476  1  0.50708700  0.56089300  0.99563100  1
  N  482  1  0.47950800  0.52561800  0.97058300  1
  N  488  1  0.50636500  0.48974400  0.99553600  1
  N  518  1  0.42235400  0.42641800  0.91338900  1
  N  519  1  0.42258100  0.62467900  0.91349100  1
  N  537  1  0.34028400  0.35785000  0.64238900  1
  N  538  1  0.34082600  0.35982000  0.84216300  1
  N  543  1  0.67104800  0.35388000  0.34255900  1
  N  558  1  0.84708800  0.85549800  0.34218600  1
  N  559  1  0.67607800  0.69398200  0.34321100  1
  N  563  1  0.23510700  0.80202100  0.74310600  1
  N  567  1  0.26233600  0.77695400  0.70771900  1
  N  573  1  0.28945000  0.75189800  0.74342700  1
  N  579  1  0.26257600  0.77721800  0.77879700  1
  N  634  1  0.34692200  0.69974800  0.84671100  1
  N  635  1  0.34735000  0.69532400  0.64422800  1
  N  636  1  0.17620300  0.85678200  0.64319900  1
  N  637  1  0.17625700  0.85907400  0.84097200  1
  N  641  1  0.53361200  0.52508800  0.46576300  1
  N  645  1  0.50601100  0.48992100  0.49085600  1
  N  651  1  0.47943900  0.52592100  0.51596100  1
  N  657  1  0.50674400  0.56106100  0.49068200  1
  N  712  1  0.42283000  0.62924100  0.56845400  1
  N  713  1  0.42098400  0.42799500  0.57364700  1
  N  714  1  0.59061600  0.42589000  0.40911900  1
  N  715  1  0.59330300  0.62314000  0.40915400  1
  N  720  1  0.00669800  0.98959400  0.49572000  1
  N  749  1  0.92271200  0.92150700  0.41796600  1
  N  750  1  0.09334700  0.92750700  0.57719800  1
  N  759  1  0.18862600  0.88347500  0.87863800  1
  N  760  1  0.10470900  0.86617100  0.85166400  1
  N  777  1  0.43366300  0.38986600  0.59686200  1
  N  778  1  0.34939100  0.41846100  0.58369000  1
  N  795  1  0.32824400  0.66610800  0.87925500  1
  N  796  1  0.41070300  0.67646300  0.84653200  1
  N  813  1  0.57791500  0.38577100  0.38848900  1
  N  814  1  0.66342700  0.41589200  0.39732200  1
  N  831  1  0.32793900  0.38302900  0.88055000  1
  N  832  1  0.41221600  0.36747600  0.85327400  1
  N  849  1  0.58081600  0.66094900  0.38489400  1
  N  850  1  0.66480100  0.63418400  0.40242300  1
  N  867  1  0.08092200  0.88969900  0.60144700  1
  N  868  1  0.16485800  0.91654300  0.58396500  1
  N  885  1  0.94122600  0.88909600  0.38432200  1
  N  886  1  0.85884200  0.92207900  0.39451800  1
  N  903  1  0.44144300  0.66154600  0.60212200  1
  N  904  1  0.35901200  0.62876400  0.59190300  1
  N  913  1  0.16580400  0.02505500  0.01601400  1
  N  929  1  0.10864100  0.12434900  0.07306900  1
  N  938  1  0.01418480  0.16781400  0.10585800  1
  N  947  1  0.02707880  0.19093500  0.14426600  1
  N  948  1  0.09843580  0.18327100  0.13314900  1
  N  967  1  0.96905800  0.24765800  0.24310900  1
  N  970  1  0.94157600  0.27244500  0.20739600  1
  N  978  1  0.94169900  0.27266500  0.27846700  1
  N  983  1  0.91453900  0.29765300  0.24274300  1
  N  1013  1  0.10869700  0.92605200  0.07308100  1
  N  1017  1  0.71987300  0.52502400  0.02070900  1
  N  1045  1  0.77924300  0.62489000  0.07559700  1
  N  1046  1  0.77780500  0.42563600  0.07668500  1
  N  1050  1  0.85581000  0.35010100  0.14059400  1
  N  1063  1  0.03286280  0.85099700  0.13973800  1
  N  1064  1  0.86217800  0.69161600  0.14556400  1
  N  1073  1  0.87448400  0.66707800  0.10796300  1
  N  1074  1  0.79056300  0.68452900  0.13494000  1
  N  1091  1  0.01426480  0.88469700  0.10717100  1
  N  1092  1  0.09663580  0.87420900  0.13998800  1
  N  1109  1  0.87340500  0.38502800  0.10803700  1
  N  1110  1  0.79227100  0.37229800  0.14238500  1
  N  1136  1  0.94848000  0.77353500  0.20762600  1
  N  1146  1  0.92103300  0.74877100  0.24332500  1
  N  1147  1  0.97537200  0.79882100  0.24299200  1
  N  1157  1  0.94824000  0.77385600  0.27870700  1
  N  1176  1  0.22008100  0.02559900  0.96586600  1
  N  1178  1  0.19271300  0.06090200  0.99101800  1
  N  1198  1  0.27804200  0.12493900  0.90981100  1
  N  1201  1  0.21968600  0.02555000  0.52066600  1
  N  1205  1  0.19211600  0.06073800  0.49562800  1
  N  1211  1  0.16551600  0.02475100  0.47050400  1
  N  1240  1  0.10711300  0.12271000  0.41284700  1
  N  1241  1  0.27669900  0.12469800  0.57738300  1
  N  1249  1  0.11979300  0.16085200  0.38966300  1
  N  1250  1  0.03554780  0.13223900  0.40275700  1
  N  1264  1  0.26405400  0.16479500  0.59807900  1
  N  1265  1  0.34958700  0.13460800  0.58922100  1
  N  1279  1  0.37360000  0.16556500  0.87845400  1
  N  1280  1  0.29247100  0.17831700  0.84412400  1
  N  1291  1  0.35592300  0.20053200  0.84587700  1
  N  1292  1  0.35717400  0.19670200  0.64394300  1
  N  1296  1  0.02644980  0.19282300  0.34404400  1
  N  1330  1  0.41457500  0.25299300  0.74369800  1
  N  1340  1  0.44168500  0.27797300  0.70796500  1
  N  1342  1  0.44158700  0.27822700  0.77904800  1
  N  1353  1  0.46902900  0.30299200  0.74332300  1
  N  1369  1  0.19334900  0.98975700  0.99099700  1
  N  1386  1  0.27946600  0.92571300  0.91105100  1
  N  1388  1  0.69317800  0.56089300  0.99563100  1
  N  1394  1  0.66559900  0.52561800  0.97058300  1
  N  1400  1  0.69245600  0.48974400  0.99553600  1
  N  1430  1  0.60844500  0.42641800  0.91338900  1
  N  1431  1  0.60867200  0.62467900  0.91349100  1
  N  1449  1  0.52637500  0.35785000  0.64238900  1
  N  1450  1  0.52691700  0.35982000  0.84216300  1
  N  1455  1  0.85713900  0.35388000  0.34255900  1
  N  1470  1  0.03317880  0.85549800  0.34218600  1
  N  1471  1  0.86216900  0.69398200  0.34321100  1
  N  1475  1  0.42119800  0.80202100  0.74310600  1
  N  1479  1  0.44842700  0.77695400  0.70771900  1
  N  1485  1  0.47554100  0.75189800  0.74342700  1
  N  1491  1  0.44866700  0.77721800  0.77879700  1
  N  1546  1  0.53301300  0.69974800  0.84671100  1
  N  1547  1  0.53344100  0.69532400  0.64422800  1
  N  1548  1  0.36229400  0.85678200  0.64319900  1
  N  1549  1  0.36234800  0.85907400  0.84097200  1
  N  1553  1  0.71970300  0.52508800  0.46576300  1
  N  1557  1  0.69210200  0.48992100  0.49085600  1
  N  1563  1  0.66553000  0.52592100  0.51596100  1
  N  1569  1  0.69283500  0.56106100  0.49068200  1
  N  1624  1  0.60892100  0.62924100  0.56845400  1
  N  1625  1  0.60707500  0.42799500  0.57364700  1
  N  1626  1  0.77670700  0.42589000  0.40911900  1
  N  1627  1  0.77939400  0.62314000  0.40915400  1
  N  1632  1  0.19278900  0.98959400  0.49572000  1
  N  1661  1  0.10880300  0.92150700  0.41796600  1
  N  1662  1  0.27943800  0.92750700  0.57719800  1
  N  1671  1  0.37471700  0.88347500  0.87863800  1
  N  1672  1  0.29080000  0.86617100  0.85166400  1
  N  1689  1  0.61975400  0.38986600  0.59686200  1
  N  1690  1  0.53548200  0.41846100  0.58369000  1
  N  1707  1  0.51433500  0.66610800  0.87925500  1
  N  1708  1  0.59679400  0.67646300  0.84653200  1
  N  1725  1  0.76400600  0.38577100  0.38848900  1
  N  1726  1  0.84951800  0.41589200  0.39732200  1
  N  1743  1  0.51403000  0.38302900  0.88055000  1
  N  1744  1  0.59830700  0.36747600  0.85327400  1
  N  1761  1  0.76690700  0.66094900  0.38489400  1
  N  1762  1  0.85089200  0.63418400  0.40242300  1
  N  1779  1  0.26701300  0.88969900  0.60144700  1
  N  1780  1  0.35094900  0.91654300  0.58396500  1
  N  1797  1  0.12731700  0.88909600  0.38432200  1
  N  1798  1  0.04493280  0.92207900  0.39451800  1
  N  1815  1  0.62753400  0.66154600  0.60212200  1
  N  1816  1  0.54510300  0.62876400  0.59190300  1
  N  1825  1  0.35189500  0.02505500  0.01601400  1
  N  1841  1  0.29473200  0.12434900  0.07306900  1
  N  1850  1  0.20027600  0.16781400  0.10585800  1
  N  1859  1  0.21317000  0.19093500  0.14426600  1
  N  1860  1  0.28452700  0.18327100  0.13314900  1
  N  1879  1  0.15514900  0.24765800  0.24310900  1
  N  1882  1  0.12766700  0.27244500  0.20739600  1
  N  1890  1  0.12779000  0.27266500  0.27846700  1
  N  1895  1  0.10063000  0.29765300  0.24274300  1
  N  1925  1  0.29478800  0.92605200  0.07308100  1
  N  1929  1  0.90596400  0.52502400  0.02070900  1
  N  1957  1  0.96533400  0.62489000  0.07559700  1
  N  1958  1  0.96389600  0.42563600  0.07668500  1
  N  1962  1  0.04190070  0.35010100  0.14059400  1
  N  1975  1  0.21895400  0.85099700  0.13973800  1
  N  1976  1  0.04826870  0.69161600  0.14556400  1
  N  1985  1  0.06057470  0.66707800  0.10796300  1
  N  1986  1  0.97665400  0.68452900  0.13494000  1
  N  2003  1  0.20035600  0.88469700  0.10717100  1
  N  2004  1  0.28272700  0.87420900  0.13998800  1
  N  2021  1  0.05949570  0.38502800  0.10803700  1
  N  2022  1  0.97836200  0.37229800  0.14238500  1
  N  2048  1  0.13457100  0.77353500  0.20762600  1
  N  2058  1  0.10712400  0.74877100  0.24332500  1
  N  2059  1  0.16146300  0.79882100  0.24299200  1
  N  2069  1  0.13433100  0.77385600  0.27870700  1
  N  2088  1  0.40617200  0.02559900  0.96586600  1
  N  2090  1  0.37880400  0.06090200  0.99101800  1
  N  2110  1  0.46413300  0.12493900  0.90981100  1
  N  2113  1  0.40577700  0.02555000  0.52066600  1
  N  2117  1  0.37820700  0.06073800  0.49562800  1
  N  2123  1  0.35160700  0.02475100  0.47050400  1
  N  2152  1  0.29320400  0.12271000  0.41284700  1
  N  2153  1  0.46279000  0.12469800  0.57738300  1
  N  2161  1  0.30588400  0.16085200  0.38966300  1
  N  2162  1  0.22163900  0.13223900  0.40275700  1
  N  2176  1  0.45014500  0.16479500  0.59807900  1
  N  2177  1  0.53567800  0.13460800  0.58922100  1
  N  2191  1  0.55969100  0.16556500  0.87845400  1
  N  2192  1  0.47856200  0.17831700  0.84412400  1
  N  2203  1  0.54201400  0.20053200  0.84587700  1
  N  2204  1  0.54326500  0.19670200  0.64394300  1
  N  2208  1  0.21254100  0.19282300  0.34404400  1
  N  2242  1  0.60066600  0.25299300  0.74369800  1
  N  2252  1  0.62777600  0.27797300  0.70796500  1
  N  2254  1  0.62767800  0.27822700  0.77904800  1
  N  2265  1  0.65512000  0.30299200  0.74332300  1
  N  2281  1  0.37944000  0.98975700  0.99099700  1
  N  2298  1  0.46555700  0.92571300  0.91105100  1
  N  2300  1  0.87926900  0.56089300  0.99563100  1
  N  2306  1  0.85169000  0.52561800  0.97058300  1
  N  2312  1  0.87854700  0.48974400  0.99553600  1
  N  2342  1  0.79453600  0.42641800  0.91338900  1
  N  2343  1  0.79476300  0.62467900  0.91349100  1
  N  2361  1  0.71246600  0.35785000  0.64238900  1
  N  2362  1  0.71300800  0.35982000  0.84216300  1
  N  2367  1  0.04322970  0.35388000  0.34255900  1
  N  2382  1  0.21927000  0.85549800  0.34218600  1
  N  2383  1  0.04825970  0.69398200  0.34321100  1
  N  2387  1  0.60728900  0.80202100  0.74310600  1
  N  2391  1  0.63451800  0.77695400  0.70771900  1
  N  2397  1  0.66163200  0.75189800  0.74342700  1
  N  2403  1  0.63475800  0.77721800  0.77879700  1
  N  2458  1  0.71910400  0.69974800  0.84671100  1
  N  2459  1  0.71953200  0.69532400  0.64422800  1
  N  2460  1  0.54838500  0.85678200  0.64319900  1
  N  2461  1  0.54843900  0.85907400  0.84097200  1
  N  2465  1  0.90579400  0.52508800  0.46576300  1
  N  2469  1  0.87819300  0.48992100  0.49085600  1
  N  2475  1  0.85162100  0.52592100  0.51596100  1
  N  2481  1  0.87892600  0.56106100  0.49068200  1
  N  2536  1  0.79501200  0.62924100  0.56845400  1
  N  2537  1  0.79316600  0.42799500  0.57364700  1
  N  2538  1  0.96279800  0.42589000  0.40911900  1
  N  2539  1  0.96548500  0.62314000  0.40915400  1
  N  2544  1  0.37888000  0.98959400  0.49572000  1
  N  2573  1  0.29489400  0.92150700  0.41796600  1
  N  2574  1  0.46552900  0.92750700  0.57719800  1
  N  2583  1  0.56080800  0.88347500  0.87863800  1
  N  2584  1  0.47689100  0.86617100  0.85166400  1
  N  2601  1  0.80584500  0.38986600  0.59686200  1
  N  2602  1  0.72157300  0.41846100  0.58369000  1
  N  2619  1  0.70042600  0.66610800  0.87925500  1
  N  2620  1  0.78288500  0.67646300  0.84653200  1
  N  2637  1  0.95009700  0.38577100  0.38848900  1
  N  2638  1  0.03560870  0.41589200  0.39732200  1
  N  2655  1  0.70012100  0.38302900  0.88055000  1
  N  2656  1  0.78439800  0.36747600  0.85327400  1
  N  2673  1  0.95299800  0.66094900  0.38489400  1
  N  2674  1  0.03698270  0.63418400  0.40242300  1
  N  2691  1  0.45310400  0.88969900  0.60144700  1
  N  2692  1  0.53704000  0.91654300  0.58396500  1
  N  2709  1  0.31340800  0.88909600  0.38432200  1
  N  2710  1  0.23102400  0.92207900  0.39451800  1
  N  2727  1  0.81362500  0.66154600  0.60212200  1
  N  2728  1  0.73119400  0.62876400  0.59190300  1
  N  2737  1  0.53798500  0.02505500  0.01601400  1
  N  2753  1  0.48082200  0.12434900  0.07306900  1
  N  2762  1  0.38636600  0.16781400  0.10585800  1
  N  2771  1  0.39926000  0.19093500  0.14426600  1
  N  2772  1  0.47061700  0.18327100  0.13314900  1
  N  2791  1  0.34123900  0.24765800  0.24310900  1
  N  2794  1  0.31375700  0.27244500  0.20739600  1
  N  2802  1  0.31388000  0.27266500  0.27846700  1
  N  2807  1  0.28672000  0.29765300  0.24274300  1
  N  2837  1  0.48087800  0.92605200  0.07308100  1
  N  2841  1  0.09205450  0.52502400  0.02070900  1
  N  2869  1  0.15142400  0.62489000  0.07559700  1
  N  2870  1  0.14998600  0.42563600  0.07668500  1
  N  2874  1  0.22799100  0.35010100  0.14059400  1
  N  2887  1  0.40504400  0.85099700  0.13973800  1
  N  2888  1  0.23435900  0.69161600  0.14556400  1
  N  2897  1  0.24666500  0.66707800  0.10796300  1
  N  2898  1  0.16274400  0.68452900  0.13494000  1
  N  2915  1  0.38644600  0.88469700  0.10717100  1
  N  2916  1  0.46881700  0.87420900  0.13998800  1
  N  2933  1  0.24558600  0.38502800  0.10803700  1
  N  2934  1  0.16445200  0.37229800  0.14238500  1
  N  2960  1  0.32066100  0.77353500  0.20762600  1
  N  2970  1  0.29321400  0.74877100  0.24332500  1
  N  2971  1  0.34755300  0.79882100  0.24299200  1
  N  2981  1  0.32042100  0.77385600  0.27870700  1
  N  3000  1  0.59226200  0.02559900  0.96586600  1
  N  3002  1  0.56489400  0.06090200  0.99101800  1
  N  3022  1  0.65022300  0.12493900  0.90981100  1
  N  3025  1  0.59186700  0.02555000  0.52066600  1
  N  3029  1  0.56429700  0.06073800  0.49562800  1
  N  3035  1  0.53769700  0.02475100  0.47050400  1
  N  3064  1  0.47929400  0.12271000  0.41284700  1
  N  3065  1  0.64888000  0.12469800  0.57738300  1
  N  3073  1  0.49197400  0.16085200  0.38966300  1
  N  3074  1  0.40772900  0.13223900  0.40275700  1
  N  3088  1  0.63623500  0.16479500  0.59807900  1
  N  3089  1  0.72176800  0.13460800  0.58922100  1
  N  3103  1  0.74578100  0.16556500  0.87845400  1
  N  3104  1  0.66465200  0.17831700  0.84412400  1
  N  3115  1  0.72810400  0.20053200  0.84587700  1
  N  3116  1  0.72935500  0.19670200  0.64394300  1
  N  3120  1  0.39863100  0.19282300  0.34404400  1
  N  3154  1  0.78675600  0.25299300  0.74369800  1
  N  3164  1  0.81386600  0.27797300  0.70796500  1
  N  3166  1  0.81376800  0.27822700  0.77904800  1
  N  3177  1  0.84121000  0.30299200  0.74332300  1
  N  3193  1  0.56553000  0.98975700  0.99099700  1
  N  3210  1  0.65164700  0.92571300  0.91105100  1
  N  3212  1  0.06535950  0.56089300  0.99563100  1
  N  3218  1  0.03778050  0.52561800  0.97058300  1
  N  3224  1  0.06463750  0.48974400  0.99553600  1
  N  3254  1  0.98062600  0.42641800  0.91338900  1
  N  3255  1  0.98085300  0.62467900  0.91349100  1
  N  3273  1  0.89855600  0.35785000  0.64238900  1
  N  3274  1  0.89909800  0.35982000  0.84216300  1
  N  3279  1  0.22932000  0.35388000  0.34255900  1
  N  3294  1  0.40536000  0.85549800  0.34218600  1
  N  3295  1  0.23435000  0.69398200  0.34321100  1
  N  3299  1  0.79337900  0.80202100  0.74310600  1
  N  3303  1  0.82060800  0.77695400  0.70771900  1
  N  3309  1  0.84772200  0.75189800  0.74342700  1
  N  3315  1  0.82084800  0.77721800  0.77879700  1
  N  3370  1  0.90519400  0.69974800  0.84671100  1
  N  3371  1  0.90562200  0.69532400  0.64422800  1
  N  3372  1  0.73447500  0.85678200  0.64319900  1
  N  3373  1  0.73452900  0.85907400  0.84097200  1
  N  3377  1  0.09188450  0.52508800  0.46576300  1
  N  3381  1  0.06428350  0.48992100  0.49085600  1
  N  3387  1  0.03771150  0.52592100  0.51596100  1
  N  3393  1  0.06501650  0.56106100  0.49068200  1
  N  3448  1  0.98110200  0.62924100  0.56845400  1
  N  3449  1  0.97925600  0.42799500  0.57364700  1
  N  3450  1  0.14888800  0.42589000  0.40911900  1
  N  3451  1  0.15157500  0.62314000  0.40915400  1
  N  3456  1  0.56497000  0.98959400  0.49572000  1
  N  3485  1  0.48098400  0.92150700  0.41796600  1
  N  3486  1  0.65161900  0.92750700  0.57719800  1
  N  3495  1  0.74689800  0.88347500  0.87863800  1
  N  3496  1  0.66298100  0.86617100  0.85166400  1
  N  3513  1  0.99193500  0.38986600  0.59686200  1
  N  3514  1  0.90766300  0.41846100  0.58369000  1
  N  3531  1  0.88651600  0.66610800  0.87925500  1
  N  3532  1  0.96897500  0.67646300  0.84653200  1
  N  3549  1  0.13618700  0.38577100  0.38848900  1
  N  3550  1  0.22169900  0.41589200  0.39732200  1
  N  3567  1  0.88621100  0.38302900  0.88055000  1
  N  3568  1  0.97048800  0.36747600  0.85327400  1
  N  3585  1  0.13908800  0.66094900  0.38489400  1
  N  3586  1  0.22307300  0.63418400  0.40242300  1
  N  3603  1  0.63919400  0.88969900  0.60144700  1
  N  3604  1  0.72313000  0.91654300  0.58396500  1
  N  3621  1  0.49949800  0.88909600  0.38432200  1
  N  3622  1  0.41711400  0.92207900  0.39451800  1
  N  3639  1  0.99971500  0.66154600  0.60212200  1
  N  3640  1  0.91728400  0.62876400  0.59190300  1
  O  27  1  0.81608900  0.15102100  0.11092800  1
  O  28  1  0.92392900  0.17067000  0.14566100  1
  O  29  1  0.82050700  0.17455300  0.08775300  1
  O  37  1  0.92783100  0.19445200  0.12269600  1
  O  163  1  0.70018600  0.65035800  0.11366100  1
  O  164  1  0.59280400  0.67252500  0.14796300  1
  O  165  1  0.69601200  0.67301200  0.08958800  1
  O  166  1  0.58906500  0.69547500  0.12414500  1
  O  181  1  0.81662300  0.90242900  0.10840600  1
  O  182  1  0.92633500  0.86109100  0.13254000  1
  O  183  1  0.82081600  0.87460200  0.09062200  1
  O  184  1  0.92173500  0.88887900  0.15029000  1
  O  199  1  0.69456800  0.37524200  0.09126000  1
  O  200  1  0.59067300  0.35884000  0.13513500  1
  O  201  1  0.69830800  0.40302100  0.10917400  1
  O  202  1  0.59474900  0.38658800  0.15303600  1
  O  339  1  0.94654300  0.15567700  0.37338100  1
  O  340  1  0.83878800  0.11932400  0.38996600  1
  O  341  1  0.94059100  0.17920700  0.39629600  1
  O  342  1  0.83319800  0.14256000  0.41321500  1
  O  354  1  0.06459900  0.16050700  0.61429500  1
  O  355  1  0.15798100  0.11495100  0.59201100  1
  O  356  1  0.16726600  0.13814600  0.56939400  1
  O  369  1  0.19473900  0.17534400  0.89523400  1
  O  370  1  0.19852700  0.14757000  0.87731000  1
  O  371  1  0.09498200  0.16403000  0.83346800  1
  O  389  1  0.07172500  0.18302400  0.59062500  1
  O  392  1  0.09084500  0.19177100  0.85138100  1
  O  761  1  0.20042200  0.90018200  0.87294600  1
  O  762  1  0.09305500  0.87820100  0.83865100  1
  O  763  1  0.19623700  0.87751700  0.89700500  1
  O  764  1  0.08928700  0.85524300  0.86245300  1
  O  779  1  0.44645800  0.39503400  0.61315900  1
  O  780  1  0.33866500  0.43136500  0.59647600  1
  O  781  1  0.44060000  0.37151500  0.59022500  1
  O  782  1  0.33317900  0.40814000  0.57320900  1
  O  797  1  0.31669300  0.64839200  0.87802300  1
  O  798  1  0.42646800  0.68957400  0.85398800  1
  O  799  1  0.32084900  0.67623300  0.89578200  1
  O  800  1  0.42192600  0.66177100  0.83626300  1
  O  815  1  0.56454400  0.39010100  0.37229300  1
  O  816  1  0.65789300  0.43555500  0.39455000  1
  O  817  1  0.57168500  0.36753600  0.39591800  1
  O  818  1  0.66718300  0.41233800  0.41714500  1
  O  833  1  0.31593800  0.39983700  0.87548700  1
  O  834  1  0.42381900  0.38006600  0.84077200  1
  O  835  1  0.32034100  0.37629200  0.89865200  1
  O  836  1  0.42768600  0.35626900  0.86372800  1
  O  851  1  0.56913300  0.65528600  0.36813100  1
  O  852  1  0.67659000  0.62125800  0.39039500  1
  O  853  1  0.57306500  0.67927300  0.39088900  1
  O  854  1  0.68010100  0.64498300  0.41345200  1
  O  869  1  0.06919500  0.89536100  0.61820000  1
  O  870  1  0.17658400  0.92948800  0.59599500  1
  O  871  1  0.07323400  0.87136400  0.59545700  1
  O  872  1  0.18021600  0.90575500  0.57295700  1
  O  887  1  0.95289900  0.89040500  0.36667300  1
  O  888  1  0.84295100  0.91458300  0.40750000  1
  O  889  1  0.94847600  0.87246100  0.39436800  1
  O  890  1  0.84776900  0.93250300  0.37985500  1
  O  905  1  0.45309800  0.66022800  0.61977400  1
  O  906  1  0.34316100  0.63629600  0.57890100  1
  O  907  1  0.44873100  0.67815300  0.59206000  1
  O  908  1  0.34789000  0.61838200  0.60656400  1
  O  939  1  0.00217983  0.15102100  0.11092800  1
  O  940  1  0.11002000  0.17067000  0.14566100  1
  O  941  1  0.00659783  0.17455300  0.08775300  1
  O  949  1  0.11392200  0.19445200  0.12269600  1
  O  1075  1  0.88627700  0.65035800  0.11366100  1
  O  1076  1  0.77889500  0.67252500  0.14796300  1
  O  1077  1  0.88210300  0.67301200  0.08958800  1
  O  1078  1  0.77515600  0.69547500  0.12414500  1
  O  1093  1  0.00271383  0.90242900  0.10840600  1
  O  1094  1  0.11242600  0.86109100  0.13254000  1
  O  1095  1  0.00690683  0.87460200  0.09062200  1
  O  1096  1  0.10782600  0.88887900  0.15029000  1
  O  1111  1  0.88065900  0.37524200  0.09126000  1
  O  1112  1  0.77676400  0.35884000  0.13513500  1
  O  1113  1  0.88439900  0.40302100  0.10917400  1
  O  1114  1  0.78084000  0.38658800  0.15303600  1
  O  1251  1  0.13263400  0.15567700  0.37338100  1
  O  1252  1  0.02487880  0.11932400  0.38996600  1
  O  1253  1  0.12668200  0.17920700  0.39629600  1
  O  1254  1  0.01928880  0.14256000  0.41321500  1
  O  1266  1  0.25069000  0.16050700  0.61429500  1
  O  1267  1  0.34407200  0.11495100  0.59201100  1
  O  1268  1  0.35335700  0.13814600  0.56939400  1
  O  1281  1  0.38083000  0.17534400  0.89523400  1
  O  1282  1  0.38461800  0.14757000  0.87731000  1
  O  1283  1  0.28107300  0.16403000  0.83346800  1
  O  1301  1  0.25781600  0.18302400  0.59062500  1
  O  1304  1  0.27693600  0.19177100  0.85138100  1
  O  1673  1  0.38651300  0.90018200  0.87294600  1
  O  1674  1  0.27914600  0.87820100  0.83865100  1
  O  1675  1  0.38232800  0.87751700  0.89700500  1
  O  1676  1  0.27537800  0.85524300  0.86245300  1
  O  1691  1  0.63254900  0.39503400  0.61315900  1
  O  1692  1  0.52475600  0.43136500  0.59647600  1
  O  1693  1  0.62669100  0.37151500  0.59022500  1
  O  1694  1  0.51927000  0.40814000  0.57320900  1
  O  1709  1  0.50278400  0.64839200  0.87802300  1
  O  1710  1  0.61255900  0.68957400  0.85398800  1
  O  1711  1  0.50694000  0.67623300  0.89578200  1
  O  1712  1  0.60801700  0.66177100  0.83626300  1
  O  1727  1  0.75063500  0.39010100  0.37229300  1
  O  1728  1  0.84398400  0.43555500  0.39455000  1
  O  1729  1  0.75777600  0.36753600  0.39591800  1
  O  1730  1  0.85327400  0.41233800  0.41714500  1
  O  1745  1  0.50202900  0.39983700  0.87548700  1
  O  1746  1  0.60991000  0.38006600  0.84077200  1
  O  1747  1  0.50643200  0.37629200  0.89865200  1
  O  1748  1  0.61377700  0.35626900  0.86372800  1
  O  1763  1  0.75522400  0.65528600  0.36813100  1
  O  1764  1  0.86268100  0.62125800  0.39039500  1
  O  1765  1  0.75915600  0.67927300  0.39088900  1
  O  1766  1  0.86619200  0.64498300  0.41345200  1
  O  1781  1  0.25528600  0.89536100  0.61820000  1
  O  1782  1  0.36267500  0.92948800  0.59599500  1
  O  1783  1  0.25932500  0.87136400  0.59545700  1
  O  1784  1  0.36630700  0.90575500  0.57295700  1
  O  1799  1  0.13899000  0.89040500  0.36667300  1
  O  1800  1  0.02904180  0.91458300  0.40750000  1
  O  1801  1  0.13456700  0.87246100  0.39436800  1
  O  1802  1  0.03385980  0.93250300  0.37985500  1
  O  1817  1  0.63918900  0.66022800  0.61977400  1
  O  1818  1  0.52925200  0.63629600  0.57890100  1
  O  1819  1  0.63482200  0.67815300  0.59206000  1
  O  1820  1  0.53398100  0.61838200  0.60656400  1
  O  1851  1  0.18827100  0.15102100  0.11092800  1
  O  1852  1  0.29611100  0.17067000  0.14566100  1
  O  1853  1  0.19268900  0.17455300  0.08775300  1
  O  1861  1  0.30001300  0.19445200  0.12269600  1
  O  1987  1  0.07236770  0.65035800  0.11366100  1
  O  1988  1  0.96498600  0.67252500  0.14796300  1
  O  1989  1  0.06819370  0.67301200  0.08958800  1
  O  1990  1  0.96124700  0.69547500  0.12414500  1
  O  2005  1  0.18880500  0.90242900  0.10840600  1
  O  2006  1  0.29851700  0.86109100  0.13254000  1
  O  2007  1  0.19299800  0.87460200  0.09062200  1
  O  2008  1  0.29391700  0.88887900  0.15029000  1
  O  2023  1  0.06674970  0.37524200  0.09126000  1
  O  2024  1  0.96285500  0.35884000  0.13513500  1
  O  2025  1  0.07048970  0.40302100  0.10917400  1
  O  2026  1  0.96693100  0.38658800  0.15303600  1
  O  2163  1  0.31872500  0.15567700  0.37338100  1
  O  2164  1  0.21097000  0.11932400  0.38996600  1
  O  2165  1  0.31277300  0.17920700  0.39629600  1
  O  2166  1  0.20538000  0.14256000  0.41321500  1
  O  2178  1  0.43678100  0.16050700  0.61429500  1
  O  2179  1  0.53016300  0.11495100  0.59201100  1
  O  2180  1  0.53944800  0.13814600  0.56939400  1
  O  2193  1  0.56692100  0.17534400  0.89523400  1
  O  2194  1  0.57070900  0.14757000  0.87731000  1
  O  2195  1  0.46716400  0.16403000  0.83346800  1
  O  2213  1  0.44390700  0.18302400  0.59062500  1
  O  2216  1  0.46302700  0.19177100  0.85138100  1
  O  2585  1  0.57260400  0.90018200  0.87294600  1
  O  2586  1  0.46523700  0.87820100  0.83865100  1
  O  2587  1  0.56841900  0.87751700  0.89700500  1
  O  2588  1  0.46146900  0.85524300  0.86245300  1
  O  2603  1  0.81864000  0.39503400  0.61315900  1
  O  2604  1  0.71084700  0.43136500  0.59647600  1
  O  2605  1  0.81278200  0.37151500  0.59022500  1
  O  2606  1  0.70536100  0.40814000  0.57320900  1
  O  2621  1  0.68887500  0.64839200  0.87802300  1
  O  2622  1  0.79865000  0.68957400  0.85398800  1
  O  2623  1  0.69303100  0.67623300  0.89578200  1
  O  2624  1  0.79410800  0.66177100  0.83626300  1
  O  2639  1  0.93672600  0.39010100  0.37229300  1
  O  2640  1  0.03007470  0.43555500  0.39455000  1
  O  2641  1  0.94386700  0.36753600  0.39591800  1
  O  2642  1  0.03936470  0.41233800  0.41714500  1
  O  2657  1  0.68812000  0.39983700  0.87548700  1
  O  2658  1  0.79600100  0.38006600  0.84077200  1
  O  2659  1  0.69252300  0.37629200  0.89865200  1
  O  2660  1  0.79986800  0.35626900  0.86372800  1
  O  2675  1  0.94131500  0.65528600  0.36813100  1
  O  2676  1  0.04877170  0.62125800  0.39039500  1
  O  2677  1  0.94524700  0.67927300  0.39088900  1
  O  2678  1  0.05228270  0.64498300  0.41345200  1
  O  2693  1  0.44137700  0.89536100  0.61820000  1
  O  2694  1  0.54876600  0.92948800  0.59599500  1
  O  2695  1  0.44541600  0.87136400  0.59545700  1
  O  2696  1  0.55239800  0.90575500  0.57295700  1
  O  2711  1  0.32508100  0.89040500  0.36667300  1
  O  2712  1  0.21513300  0.91458300  0.40750000  1
  O  2713  1  0.32065800  0.87246100  0.39436800  1
  O  2714  1  0.21995100  0.93250300  0.37985500  1
  O  2729  1  0.82528000  0.66022800  0.61977400  1
  O  2730  1  0.71534300  0.63629600  0.57890100  1
  O  2731  1  0.82091300  0.67815300  0.59206000  1
  O  2732  1  0.72007200  0.61838200  0.60656400  1
  O  2763  1  0.37436100  0.15102100  0.11092800  1
  O  2764  1  0.48220100  0.17067000  0.14566100  1
  O  2765  1  0.37877900  0.17455300  0.08775300  1
  O  2773  1  0.48610300  0.19445200  0.12269600  1
  O  2899  1  0.25845800  0.65035800  0.11366100  1
  O  2900  1  0.15107600  0.67252500  0.14796300  1
  O  2901  1  0.25428400  0.67301200  0.08958800  1
  O  2902  1  0.14733700  0.69547500  0.12414500  1
  O  2917  1  0.37489500  0.90242900  0.10840600  1
  O  2918  1  0.48460700  0.86109100  0.13254000  1
  O  2919  1  0.37908800  0.87460200  0.09062200  1
  O  2920  1  0.48000700  0.88887900  0.15029000  1
  O  2935  1  0.25284000  0.37524200  0.09126000  1
  O  2936  1  0.14894500  0.35884000  0.13513500  1
  O  2937  1  0.25658000  0.40302100  0.10917400  1
  O  2938  1  0.15302100  0.38658800  0.15303600  1
  O  3075  1  0.50481500  0.15567700  0.37338100  1
  O  3076  1  0.39706000  0.11932400  0.38996600  1
  O  3077  1  0.49886300  0.17920700  0.39629600  1
  O  3078  1  0.39147000  0.14256000  0.41321500  1
  O  3090  1  0.62287100  0.16050700  0.61429500  1
  O  3091  1  0.71625300  0.11495100  0.59201100  1
  O  3092  1  0.72553800  0.13814600  0.56939400  1
  O  3105  1  0.75301100  0.17534400  0.89523400  1
  O  3106  1  0.75679900  0.14757000  0.87731000  1
  O  3107  1  0.65325400  0.16403000  0.83346800  1
  O  3125  1  0.62999700  0.18302400  0.59062500  1
  O  3128  1  0.64911700  0.19177100  0.85138100  1
  O  3497  1  0.75869400  0.90018200  0.87294600  1
  O  3498  1  0.65132700  0.87820100  0.83865100  1
  O  3499  1  0.75450900  0.87751700  0.89700500  1
  O  3500  1  0.64755900  0.85524300  0.86245300  1
  O  3515  1  0.00473048  0.39503400  0.61315900  1
  O  3516  1  0.89693700  0.43136500  0.59647600  1
  O  3517  1  0.99887200  0.37151500  0.59022500  1
  O  3518  1  0.89145100  0.40814000  0.57320900  1
  O  3533  1  0.87496500  0.64839200  0.87802300  1
  O  3534  1  0.98474000  0.68957400  0.85398800  1
  O  3535  1  0.87912100  0.67623300  0.89578200  1
  O  3536  1  0.98019800  0.66177100  0.83626300  1
  O  3551  1  0.12281600  0.39010100  0.37229300  1
  O  3552  1  0.21616500  0.43555500  0.39455000  1
  O  3553  1  0.12995700  0.36753600  0.39591800  1
  O  3554  1  0.22545500  0.41233800  0.41714500  1
  O  3569  1  0.87421000  0.39983700  0.87548700  1
  O  3570  1  0.98209100  0.38006600  0.84077200  1
  O  3571  1  0.87861300  0.37629200  0.89865200  1
  O  3572  1  0.98595800  0.35626900  0.86372800  1
  O  3587  1  0.12740500  0.65528600  0.36813100  1
  O  3588  1  0.23486200  0.62125800  0.39039500  1
  O  3589  1  0.13133700  0.67927300  0.39088900  1
  O  3590  1  0.23837300  0.64498300  0.41345200  1
  O  3605  1  0.62746700  0.89536100  0.61820000  1
  O  3606  1  0.73485600  0.92948800  0.59599500  1
  O  3607  1  0.63150600  0.87136400  0.59545700  1
  O  3608  1  0.73848800  0.90575500  0.57295700  1
  O  3623  1  0.51117100  0.89040500  0.36667300  1
  O  3624  1  0.40122300  0.91458300  0.40750000  1
  O  3625  1  0.50674800  0.87246100  0.39436800  1
  O  3626  1  0.40604100  0.93250300  0.37985500  1
  O  3641  1  0.01137050  0.66022800  0.61977400  1
  O  3642  1  0.90143300  0.63629600  0.57890100  1
  O  3643  1  0.00700348  0.67815300  0.59206000  1
  O  3644  1  0.90616200  0.61838200  0.60656400  1
