# generated using pymatgen
data_H9C14(NO)2
_symmetry_space_group_name_H-M   'P 1'
_cell_length_a   62.36580000
_cell_length_b   64.31120000
_cell_length_c   64.31140000
_cell_angle_alpha   89.88460000
_cell_angle_beta   90.00000000
_cell_angle_gamma   90.00000000
_symmetry_Int_Tables_number   1
_chemical_formula_structural   H9C14(NO)2
_chemical_formula_sum   'H576 C896 N128 O128'
_cell_volume   257940.88995070
_cell_formula_units_Z   64
loop_
 _symmetry_equiv_pos_site_id
 _symmetry_equiv_pos_as_xyz
  1  'x, y, z'
loop_
 _atom_site_type_symbol
 _atom_site_label
 _atom_site_symmetry_multiplicity
 _atom_site_fract_x
 _atom_site_fract_y
 _atom_site_fract_z
 _atom_site_occupancy
  H  7  1  0.89300900  0.58917500  0.12162900  1
  H  8  1  0.88654300  0.52483000  0.11570000  1
  H  15  1  0.94498700  0.64801900  0.06890800  1
  H  16  1  0.95079400  0.58504800  0.08273400  1
  H  19  1  0.94213400  0.55077300  0.07176200  1
  H  20  1  0.88500700  0.62250200  0.10876800  1
  H  25  1  0.97766600  0.62642500  0.05901000  1
  H  26  1  0.91842400  0.51759500  0.07181500  1
  H  27  1  0.86740200  0.54738000  0.14424500  1
  H  28  1  0.89506200  0.65623800  0.09610800  1
  H  35  1  0.39073700  0.33820100  0.38196200  1
  H  36  1  0.38403800  0.40256200  0.38771800  1
  H  43  1  0.44319500  0.28017300  0.43535900  1
  H  44  1  0.44883600  0.34282900  0.42022900  1
  H  47  1  0.43998800  0.37699400  0.43144600  1
  H  48  1  0.38305600  0.30482800  0.39517600  1
  H  53  1  0.47628200  0.30217300  0.44425200  1
  H  54  1  0.41583200  0.41006900  0.43144600  1
  H  55  1  0.36472400  0.37977900  0.35941000  1
  H  56  1  0.39135300  0.27174000  0.41090600  1
  H  63  1  0.14190600  0.09441300  0.87737900  1
  H  64  1  0.13529200  0.10022900  0.81300300  1
  H  71  1  0.19347500  0.14820800  0.93553600  1
  H  72  1  0.19953600  0.13334100  0.87291100  1
  H  75  1  0.19074400  0.14442800  0.83863800  1
  H  76  1  0.13396500  0.10739800  0.91076700  1
  H  81  1  0.22650600  0.15740500  0.91385600  1
  H  82  1  0.16693800  0.14426800  0.80550800  1
  H  83  1  0.11619800  0.07172800  0.83570000  1
  H  84  1  0.14152200  0.12381100  0.94372700  1
  H  91  1  0.64171400  0.83417500  0.62727400  1
  H  92  1  0.63525700  0.82868700  0.69170100  1
  H  99  1  0.69328400  0.78002200  0.56940100  1
  H  100  1  0.69942600  0.79531200  0.63190700  1
  H  103  1  0.69064000  0.78434200  0.66620600  1
  H  104  1  0.63376100  0.82094500  0.59395800  1
  H  109  1  0.72659900  0.77120000  0.59146600  1
  H  110  1  0.66666667  0.78469300  0.69938100  1
  H  111  1  0.61602400  0.85699400  0.66891100  1
  H  112  1  0.64121700  0.80415200  0.56113000  1
  H  119  1  0.47894700  0.58850700  0.38209700  1
  H  120  1  0.48555800  0.52407900  0.38794900  1
  H  127  1  0.42735600  0.64654300  0.43595000  1
  H  128  1  0.42145700  0.58388400  0.42115400  1
  H  131  1  0.43062600  0.54966300  0.43264700  1
  H  132  1  0.48701600  0.62183200  0.39529500  1
  H  137  1  0.39410300  0.62476600  0.44450900  1
  H  138  1  0.45638500  0.51650300  0.43251800  1
  H  139  1  0.50442400  0.54701400  0.35914700  1
  H  140  1  0.47941200  0.65477700  0.41177800  1
  H  147  1  0.97898900  0.33824700  0.12175600  1
  H  148  1  0.98594300  0.40260700  0.11568500  1
  H  155  1  0.92762600  0.28009800  0.06780400  1
  H  156  1  0.92194500  0.34289700  0.08211100  1
  H  159  1  0.93131900  0.37706400  0.07061800  1
  H  160  1  0.98694200  0.30477000  0.10895400  1
  H  165  1  0.89462100  0.30202300  0.05847500  1
  H  166  1  0.95717300  0.41016700  0.07085800  1
  H  167  1  0.00465100  0.37997200  0.14449800  1
  H  168  1  0.97924600  0.27172600  0.09279100  1
  H  175  1  0.22797000  0.09499200  0.62634200  1
  H  176  1  0.23455300  0.10095800  0.69070400  1
  H  183  1  0.17651800  0.14812400  0.56744600  1
  H  184  1  0.17081700  0.13480400  0.63053300  1
  H  187  1  0.17988700  0.14587500  0.66482300  1
  H  188  1  0.23603500  0.10762900  0.59294600  1
  H  193  1  0.14390800  0.15822600  0.58902800  1
  H  194  1  0.20533700  0.14563600  0.69801400  1
  H  195  1  0.25320000  0.07195500  0.66793300  1
  H  196  1  0.22627800  0.12055500  0.55923400  1
  H  203  1  0.72930900  0.83388700  0.87785900  1
  H  204  1  0.73624500  0.82825700  0.81346600  1
  H  211  1  0.67776900  0.77942500  0.93568100  1
  H  212  1  0.67207200  0.79453500  0.87301200  1
  H  215  1  0.68147200  0.78317100  0.83885600  1
  H  216  1  0.73719600  0.82070400  0.91128200  1
  H  221  1  0.64471600  0.77043800  0.91367800  1
  H  222  1  0.70754200  0.78356500  0.80577200  1
  H  223  1  0.75506000  0.85687000  0.83626100  1
  H  224  1  0.72955400  0.80402600  0.94418400  1
  H  231  1  0.97887700  0.33895700  0.88289700  1
  H  232  1  0.98530800  0.40333300  0.88872500  1
  H  239  1  0.92678400  0.28059700  0.93626300  1
  H  240  1  0.92086600  0.34326100  0.92125700  1
  H  243  1  0.92956500  0.37745600  0.93251300  1
  H  244  1  0.98668900  0.30549000  0.89597400  1
  H  249  1  0.89368100  0.30228200  0.94520000  1
  H  250  1  0.95341300  0.41059900  0.93257600  1
  H  251  1  0.00440300  0.38053300  0.86009400  1
  H  252  1  0.97905800  0.27249400  0.91252000  1
  H  259  1  0.47815800  0.58948000  0.62094200  1
  H  260  1  0.48468400  0.52516000  0.61488000  1
  H  267  1  0.42609900  0.64840100  0.56829200  1
  H  268  1  0.42045800  0.58536600  0.58186300  1
  H  271  1  0.42916300  0.55112900  0.57090700  1
  H  272  1  0.48596200  0.62293000  0.60836900  1
  H  277  1  0.39345800  0.62653000  0.55798900  1
  H  278  1  0.45295200  0.51796700  0.57092900  1
  H  279  1  0.50362300  0.54788200  0.64366400  1
  H  280  1  0.47595500  0.65664900  0.59571300  1
  H  287  1  0.72920100  0.83228100  0.12739600  1
  H  288  1  0.73576300  0.82660100  0.19179400  1
  H  295  1  0.67785600  0.77819500  0.06933800  1
  H  296  1  0.67164100  0.79323800  0.13190100  1
  H  299  1  0.68044400  0.78222700  0.16619300  1
  H  300  1  0.73724000  0.81919300  0.09407600  1
  H  305  1  0.64476700  0.76921700  0.09095000  1
  H  306  1  0.70433500  0.78254300  0.19938100  1
  H  307  1  0.75488400  0.85506800  0.16904100  1
  H  308  1  0.72988300  0.80248400  0.06121400  1
  H  315  1  0.22949100  0.09420600  0.37805900  1
  H  316  1  0.23469000  0.09996600  0.31356000  1
  H  323  1  0.17968700  0.14674900  0.43807500  1
  H  324  1  0.17150100  0.13286400  0.37529100  1
  H  327  1  0.17898000  0.14323500  0.34036700  1
  H  328  1  0.23928400  0.10809000  0.41098500  1
  H  333  1  0.14581900  0.15631500  0.41743000  1
  H  334  1  0.20219300  0.14362100  0.30668500  1
  H  335  1  0.25450800  0.07162900  0.33595200  1
  H  336  1  0.22460900  0.11663900  0.44610500  1
  H  343  1  0.39177900  0.33870200  0.62062800  1
  H  344  1  0.38493700  0.40307200  0.61453400  1
  H  351  1  0.44321400  0.28046300  0.56684200  1
  H  352  1  0.44895000  0.34325800  0.58116400  1
  H  355  1  0.43967700  0.37744200  0.56966000  1
  H  356  1  0.38381800  0.30522300  0.60782400  1
  H  361  1  0.47614000  0.30217200  0.55761800  1
  H  362  1  0.41395800  0.41056400  0.56978100  1
  H  363  1  0.36618800  0.38048700  0.64335000  1
  H  364  1  0.39141500  0.27219900  0.59153400  1
  H  371  1  0.89213700  0.58981600  0.88307600  1
  H  372  1  0.88542200  0.52544900  0.88921000  1
  H  379  1  0.94420700  0.64845600  0.93563400  1
  H  380  1  0.94952900  0.58535200  0.92243200  1
  H  383  1  0.94037800  0.55111800  0.93378700  1
  H  384  1  0.88418400  0.62320500  0.89578700  1
  H  389  1  0.97700100  0.62647800  0.94556600  1
  H  390  1  0.91468900  0.51797300  0.93379600  1
  H  391  1  0.86658900  0.54805900  0.86040500  1
  H  392  1  0.89446500  0.65694100  0.90827200  1
  H  399  1  0.64117400  0.83213900  0.37756000  1
  H  400  1  0.63434000  0.82624600  0.31318700  1
  H  407  1  0.69238500  0.77777200  0.43573600  1
  H  408  1  0.69829700  0.79260800  0.37302200  1
  H  411  1  0.68896500  0.78114800  0.33887800  1
  H  412  1  0.63320500  0.81918500  0.41107700  1
  H  417  1  0.72540500  0.76865400  0.41406300  1
  H  418  1  0.66310100  0.78147500  0.30574100  1
  H  419  1  0.61571900  0.85524100  0.33610000  1
  H  420  1  0.64037200  0.80203600  0.44393400  1
  H  427  1  0.14151100  0.09420900  0.12744200  1
  H  428  1  0.13467100  0.10005000  0.19181000  1
  H  435  1  0.19285900  0.14828600  0.06918300  1
  H  436  1  0.19859600  0.13382600  0.13199300  1
  H  439  1  0.18928500  0.14517400  0.16617000  1
  H  440  1  0.13354900  0.10710400  0.09393300  1
  H  445  1  0.22597500  0.15741300  0.09116400  1
  H  446  1  0.16350300  0.14482700  0.19930200  1
  H  447  1  0.11598900  0.07123400  0.16910400  1
  H  448  1  0.14109400  0.12358500  0.06090200  1
  H  455  1  0.39086500  0.08881100  0.62239700  1
  H  456  1  0.38419200  0.02443600  0.61688700  1
  H  463  1  0.44328000  0.14672400  0.56878900  1
  H  464  1  0.44902700  0.08413300  0.58410500  1
  H  467  1  0.44032300  0.04982200  0.57327000  1
  H  468  1  0.38327100  0.12221900  0.60919700  1
  H  473  1  0.47629200  0.12480100  0.56003500  1
  H  474  1  0.41630100  0.01677600  0.57331300  1
  H  475  1  0.36481200  0.04745900  0.64509700  1
  H  476  1  0.39124800  0.15517400  0.59288100  1
  H  483  1  0.89170600  0.83807800  0.88293300  1
  H  484  1  0.88664500  0.90255300  0.88865900  1
  H  491  1  0.94069900  0.77756400  0.93579500  1
  H  492  1  0.94939400  0.84039300  0.92218900  1
  H  495  1  0.94212900  0.87543600  0.93213200  1
  H  496  1  0.88158200  0.80519400  0.89672200  1
  H  501  1  0.97458600  0.79800100  0.94576800  1
  H  502  1  0.91913600  0.90921100  0.93235700  1
  H  503  1  0.86672100  0.88036700  0.86040900  1
  H  504  1  0.89609900  0.76997400  0.90518800  1
  H  511  1  0.64187000  0.59296100  0.37725700  1
  H  512  1  0.63547400  0.59859800  0.31283100  1
  H  519  1  0.69375700  0.64673900  0.43520400  1
  H  520  1  0.69990300  0.63130800  0.37272600  1
  H  523  1  0.69124500  0.64242400  0.33842700  1
  H  524  1  0.63390400  0.60630600  0.41054100  1
  H  529  1  0.72699800  0.65547800  0.41344200  1
  H  530  1  0.66732000  0.64238500  0.30526000  1
  H  531  1  0.61610600  0.57033200  0.33558800  1
  H  532  1  0.64141600  0.62312100  0.44336800  1
  H  539  1  0.14189900  0.33350700  0.12724400  1
  H  540  1  0.13515900  0.32747400  0.19158500  1
  H  547  1  0.19379100  0.28012400  0.06900200  1
  H  548  1  0.19966900  0.29472500  0.13170300  1
  H  551  1  0.19088000  0.28360900  0.16596100  1
  H  552  1  0.13401700  0.32055900  0.09384600  1
  H  557  1  0.22698400  0.27098800  0.09108100  1
  H  558  1  0.16692700  0.28355600  0.19905000  1
  H  559  1  0.11598200  0.35593700  0.16890700  1
  H  560  1  0.14186800  0.30455400  0.06079200  1
  H  567  1  0.97917000  0.08893800  0.88293200  1
  H  568  1  0.98616500  0.02456000  0.88881200  1
  H  575  1  0.92756800  0.14679000  0.93703200  1
  H  576  1  0.92188400  0.08411200  0.92221000  1
  H  579  1  0.93120300  0.04989400  0.93362100  1
  H  580  1  0.98705300  0.12239300  0.89596400  1
  H  585  1  0.89463700  0.12505800  0.94597700  1
  H  586  1  0.95703500  0.01686200  0.93346800  1
  H  587  1  0.00499500  0.04732900  0.86015500  1
  H  588  1  0.97957100  0.15524700  0.91281800  1
  H  595  1  0.47916200  0.83791600  0.62272300  1
  H  596  1  0.48441500  0.90244500  0.61689300  1
  H  603  1  0.42973400  0.77800600  0.56953300  1
  H  604  1  0.42161300  0.84080000  0.58338800  1
  H  607  1  0.42946000  0.87571700  0.57282400  1
  H  608  1  0.48888000  0.80483600  0.60906100  1
  H  613  1  0.39608600  0.79878000  0.55956300  1
  H  614  1  0.45439800  0.90939900  0.57253500  1
  H  615  1  0.50415300  0.88004200  0.64533400  1
  H  616  1  0.47417500  0.76973500  0.60022800  1
  H  623  1  0.72993700  0.59331000  0.12671700  1
  H  624  1  0.73680500  0.59922800  0.19108800  1
  H  631  1  0.67761100  0.64696100  0.06876300  1
  H  632  1  0.67211600  0.63190800  0.13146000  1
  H  635  1  0.68132600  0.64342100  0.16559700  1
  H  636  1  0.73762000  0.60649100  0.09327600  1
  H  641  1  0.64465500  0.65590400  0.09068100  1
  H  642  1  0.70730200  0.64354100  0.19862100  1
  H  643  1  0.75584600  0.57060900  0.16816800  1
  H  644  1  0.72951400  0.62261000  0.06025700  1
  H  651  1  0.22760200  0.33288700  0.37830300  1
  H  652  1  0.23424900  0.32672000  0.31397200  1
  H  659  1  0.17609300  0.28011200  0.43740200  1
  H  660  1  0.17042500  0.29302600  0.37422600  1
  H  663  1  0.17944300  0.28200700  0.33991200  1
  H  664  1  0.23571900  0.32032300  0.41172100  1
  H  669  1  0.14326800  0.26984200  0.41544100  1
  H  670  1  0.20497600  0.28212600  0.30670600  1
  H  671  1  0.25307200  0.35560400  0.33659800  1
  H  672  1  0.22552900  0.30800300  0.44556700  1
  H  679  1  0.47875300  0.83827400  0.38341800  1
  H  680  1  0.48535300  0.90262300  0.38924200  1
  H  687  1  0.42754600  0.77974600  0.43720000  1
  H  688  1  0.42119600  0.84243900  0.42253300  1
  H  691  1  0.42987400  0.87677200  0.43339800  1
  H  692  1  0.48701900  0.80499200  0.39653200  1
  H  697  1  0.39424000  0.80139000  0.44609400  1
  H  698  1  0.45371500  0.90997900  0.43319800  1
  H  699  1  0.50449800  0.88000200  0.36076600  1
  H  700  1  0.47962900  0.77196600  0.41295500  1
  H  707  1  0.97889800  0.08817600  0.12221000  1
  H  708  1  0.98555000  0.02383000  0.11642300  1
  H  715  1  0.92729900  0.14660200  0.06858800  1
  H  716  1  0.92125400  0.08387400  0.08323600  1
  H  719  1  0.92997200  0.04956900  0.07234700  1
  H  720  1  0.98692600  0.12154700  0.10918700  1
  H  725  1  0.89404000  0.12460200  0.05947400  1
  H  726  1  0.95387100  0.01642300  0.07247900  1
  H  727  1  0.00477800  0.04642100  0.14477500  1
  H  728  1  0.97915300  0.15465900  0.09317100  1
  H  735  1  0.22975400  0.33333333  0.62654700  1
  H  736  1  0.23506300  0.32759700  0.69104200  1
  H  743  1  0.17958300  0.28091700  0.56670700  1
  H  744  1  0.17147600  0.29514000  0.62942500  1
  H  747  1  0.17891100  0.28479200  0.66437300  1
  H  748  1  0.23946300  0.31933800  0.59370900  1
  H  753  1  0.14577500  0.27167600  0.58727400  1
  H  754  1  0.20227400  0.28418700  0.69799000  1
  H  755  1  0.25507900  0.35575500  0.66859900  1
  H  756  1  0.22540600  0.31042100  0.55875800  1
  H  763  1  0.72940200  0.59448400  0.87707300  1
  H  764  1  0.73592300  0.60035500  0.81269700  1
  H  771  1  0.67763800  0.64796000  0.93533000  1
  H  772  1  0.67155000  0.63324100  0.87268400  1
  H  775  1  0.68019200  0.64418600  0.83835800  1
  H  776  1  0.73735300  0.60748900  0.91038300  1
  H  781  1  0.64436000  0.65692900  0.91332100  1
  H  782  1  0.70412800  0.64411400  0.80515600  1
  H  783  1  0.75545800  0.57220000  0.83527700  1
  H  784  1  0.72951100  0.62338100  0.94343300  1
  H  791  1  0.89128100  0.83738100  0.12158700  1
  H  792  1  0.88578600  0.90188100  0.11562500  1
  H  799  1  0.94084200  0.77741800  0.06879600  1
  H  800  1  0.94886000  0.84028700  0.08241100  1
  H  803  1  0.94096700  0.87521000  0.07177700  1
  H  804  1  0.88138100  0.80446600  0.10776800  1
  H  809  1  0.97458600  0.79798400  0.05916200  1
  H  810  1  0.91598300  0.90884700  0.07131300  1
  H  811  1  0.86605100  0.87970400  0.14399200  1
  H  812  1  0.89526900  0.76941500  0.09869700  1
  H  819  1  0.39163300  0.08861900  0.38318500  1
  H  820  1  0.38458800  0.02427000  0.38931300  1
  H  827  1  0.44274800  0.14680100  0.43723200  1
  H  828  1  0.44861500  0.08402000  0.42289900  1
  H  831  1  0.43926800  0.04981100  0.43431600  1
  H  832  1  0.38342800  0.12195400  0.39613900  1
  H  837  1  0.47584900  0.12489300  0.44656100  1
  H  838  1  0.41328500  0.01668500  0.43410400  1
  H  839  1  0.36570700  0.04671100  0.36068800  1
  H  840  1  0.39115400  0.15502200  0.41212700  1
  H  847  1  0.14144900  0.33348200  0.87721300  1
  H  848  1  0.13457300  0.32755600  0.81285300  1
  H  855  1  0.19317800  0.27969100  0.93542200  1
  H  856  1  0.19886900  0.29436600  0.87265400  1
  H  859  1  0.18966800  0.28297000  0.83846100  1
  H  860  1  0.13352200  0.32044700  0.91067500  1
  H  865  1  0.22619500  0.27062800  0.91365200  1
  H  866  1  0.16391700  0.28302000  0.80539000  1
  H  867  1  0.11556600  0.35612200  0.83544400  1
  H  868  1  0.14123400  0.30405600  0.94370700  1
  H  875  1  0.64087400  0.59461400  0.62698800  1
  H  876  1  0.63384100  0.60063200  0.69132400  1
  H  883  1  0.69255600  0.64864200  0.56887900  1
  H  884  1  0.69820700  0.63393700  0.63164100  1
  H  887  1  0.68889400  0.64529900  0.66579500  1
  H  888  1  0.63309700  0.60752500  0.59344000  1
  H  893  1  0.72570900  0.65765200  0.59103000  1
  H  894  1  0.66277600  0.64515600  0.69888300  1
  H  895  1  0.61477300  0.57214900  0.66876000  1
  H  896  1  0.64057300  0.62437100  0.56053700  1
  H  902  1  0.98236100  0.63245200  0.98370900  1
  H  903  1  0.98274100  0.63238500  0.02079900  1
  H  905  1  0.95418200  0.57306000  0.02114100  1
  H  907  1  0.96199600  0.56085300  0.97423300  1
  H  915  1  0.48135400  0.29624600  0.51954300  1
  H  916  1  0.48135200  0.29612500  0.48248600  1
  H  918  1  0.45284300  0.35541800  0.48205600  1
  H  920  1  0.46103300  0.36787900  0.52890700  1
  H  928  1  0.23129400  0.23255900  0.91972000  1
  H  929  1  0.23145100  0.19551100  0.91983800  1
  H  931  1  0.20304600  0.19527000  0.86046100  1
  H  933  1  0.21115000  0.24210300  0.84802800  1
  H  941  1  0.73118000  0.69585000  0.58516400  1
  H  942  1  0.73158600  0.73290800  0.58525100  1
  H  944  1  0.70250100  0.73300600  0.64430100  1
  H  946  1  0.71006600  0.68598600  0.65654400  1
  H  954  1  0.38877100  0.63203100  0.51963000  1
  H  955  1  0.38903900  0.63153300  0.48261500  1
  H  957  1  0.41690000  0.57194300  0.48360700  1
  H  959  1  0.40819000  0.56032200  0.53057200  1
  H  967  1  0.88879400  0.29623700  0.98334700  1
  H  968  1  0.88924400  0.29601400  0.02040300  1
  H  970  1  0.91771200  0.35537100  0.02036600  1
  H  972  1  0.90883700  0.36792600  0.97366400  1
  H  980  1  0.13988800  0.23354900  0.58195600  1
  H  981  1  0.13952700  0.19644700  0.58228500  1
  H  983  1  0.16676600  0.19652500  0.64214800  1
  H  985  1  0.15869200  0.24351800  0.65390700  1
  H  993  1  0.63965100  0.69524500  0.91957100  1
  H  994  1  0.63968000  0.73228400  0.91972600  1
  H  996  1  0.66800000  0.73272300  0.86032200  1
  H  998  1  0.65971900  0.68582300  0.84791900  1
  H  1006  1  0.63957500  0.69404700  0.08482300  1
  H  1007  1  0.63957100  0.73113700  0.08489800  1
  H  1009  1  0.66834900  0.73095900  0.14412700  1
  H  1011  1  0.66007700  0.68411200  0.15636900  1
  H  1019  1  0.13932100  0.23144700  0.42242800  1
  H  1020  1  0.13974900  0.19439300  0.42283100  1
  H  1022  1  0.16681400  0.19405800  0.36290300  1
  H  1024  1  0.15789700  0.24095100  0.35039200  1
  H  1032  1  0.73156300  0.69363900  0.41959700  1
  H  1033  1  0.73101800  0.73068300  0.41984800  1
  H  1035  1  0.70239800  0.73086600  0.36056500  1
  H  1037  1  0.71131500  0.68423800  0.34796600  1
  H  1045  1  0.23177100  0.23264400  0.08501000  1
  H  1046  1  0.23148100  0.19558800  0.08499000  1
  H  1048  1  0.20290800  0.19559300  0.14427800  1
  H  1050  1  0.21143300  0.24246400  0.15653900  1
  H  1058  1  0.48078600  0.13098800  0.48468000  1
  H  1059  1  0.48104400  0.13097300  0.52170000  1
  H  1061  1  0.45287000  0.07151700  0.52208900  1
  H  1063  1  0.46080100  0.05932100  0.47508900  1
  H  1071  1  0.97951200  0.79182000  0.02104900  1
  H  1072  1  0.97949300  0.79173700  0.98398400  1
  H  1074  1  0.95366800  0.85221600  0.98369400  1
  H  1076  1  0.96249900  0.86420400  0.03055000  1
  H  1084  1  0.88920300  0.13087200  0.02113500  1
  H  1085  1  0.88923600  0.13094000  0.98405000  1
  H  1087  1  0.91777500  0.07165200  0.98402100  1
  H  1089  1  0.90955800  0.05930200  0.03097000  1
  H  1097  1  0.39028500  0.79424100  0.48434400  1
  H  1098  1  0.39049800  0.79352700  0.52138900  1
  H  1100  1  0.41740200  0.85354300  0.52235300  1
  H  1102  1  0.40864900  0.86639200  0.47553500  1
  H  1110  1  0.93372700  0.44233400  0.12802800  1
  H  1111  1  0.92023300  0.47710900  0.12865100  1
  H  1113  1  0.93755100  0.48485300  0.06581600  1
  H  1115  1  0.94193200  0.44432900  0.05117200  1
  H  1123  1  0.43221300  0.48501900  0.37531300  1
  H  1124  1  0.41820700  0.45042900  0.37462800  1
  H  1126  1  0.43617700  0.44206400  0.43721600  1
  H  1128  1  0.44137700  0.48231500  0.45213200  1
  H  1136  1  0.18228600  0.08832900  0.73030900  1
  H  1137  1  0.16881200  0.08756800  0.76509400  1
  H  1139  1  0.18620800  0.15035100  0.77284000  1
  H  1141  1  0.19062700  0.16521400  0.73239500  1
  H  1149  1  0.68313500  0.84078800  0.77412100  1
  H  1150  1  0.66923900  0.84151400  0.73948800  1
  H  1152  1  0.68707100  0.77888600  0.73141400  1
  H  1154  1  0.69207700  0.76399600  0.77181700  1
  H  1162  1  0.93797800  0.48594300  0.87654600  1
  H  1163  1  0.95155700  0.45119900  0.87584000  1
  H  1165  1  0.93406400  0.44320400  0.93859600  1
  H  1167  1  0.92950200  0.48360200  0.95341200  1
  H  1175  1  0.43714100  0.44272000  0.62704900  1
  H  1176  1  0.45071900  0.47746000  0.62773900  1
  H  1178  1  0.43378900  0.48523000  0.56480900  1
  H  1180  1  0.42939300  0.44469500  0.55015300  1
  H  1188  1  0.68737600  0.83870600  0.27399300  1
  H  1189  1  0.70143100  0.83941000  0.23942400  1
  H  1191  1  0.68406900  0.77664200  0.23146800  1
  H  1193  1  0.67898300  0.76186700  0.27193700  1
  H  1201  1  0.18750500  0.08771400  0.23131900  1
  H  1202  1  0.20115000  0.08704400  0.26604100  1
  H  1204  1  0.18295100  0.14958400  0.27401600  1
  H  1206  1  0.17817300  0.16447300  0.23362100  1
  H  1214  1  0.43188800  0.94179400  0.62976000  1
  H  1215  1  0.41826500  0.97652900  0.63031000  1
  H  1217  1  0.43555200  0.98418300  0.56745800  1
  H  1219  1  0.44015700  0.94385400  0.55279000  1
  H  1227  1  0.93354600  0.98481100  0.87634800  1
  H  1228  1  0.92001900  0.95004600  0.87573400  1
  H  1230  1  0.93811600  0.94202300  0.93832700  1
  H  1232  1  0.94274000  0.98236400  0.95315100  1
  H  1240  1  0.68344900  0.58628100  0.23043600  1
  H  1241  1  0.66953900  0.58558300  0.26506500  1
  H  1243  1  0.68739000  0.64821200  0.27310200  1
  H  1245  1  0.69243600  0.66311600  0.23278400  1
  H  1253  1  0.18210200  0.33946900  0.27431800  1
  H  1254  1  0.16874800  0.34025100  0.23949000  1
  H  1256  1  0.18598200  0.27741600  0.23182700  1
  H  1258  1  0.19021300  0.26257100  0.27232400  1
  H  1266  1  0.43754000  0.98497800  0.37698000  1
  H  1267  1  0.45139800  0.95033700  0.37634600  1
  H  1269  1  0.43373600  0.94225000  0.43905100  1
  H  1271  1  0.42882300  0.98269800  0.45378600  1
  H  1279  1  0.93803600  0.94126600  0.12867900  1
  H  1280  1  0.95159100  0.97602100  0.12935800  1
  H  1282  1  0.93474700  0.98371800  0.06639800  1
  H  1284  1  0.93031700  0.94336700  0.05166300  1
  H  1292  1  0.18749100  0.34018900  0.77326700  1
  H  1293  1  0.20119100  0.34083600  0.73856200  1
  H  1295  1  0.18318500  0.27823200  0.73067900  1
  H  1297  1  0.17837200  0.26337600  0.77104200  1
  H  1305  1  0.68728700  0.58795100  0.73052300  1
  H  1306  1  0.70138700  0.58725900  0.76507700  1
  H  1308  1  0.68376600  0.64994500  0.77312800  1
  H  1310  1  0.67858100  0.66474800  0.73269500  1
  H  1318  1  0.83007300  0.55021000  0.15686300  1
  H  1319  1  0.79345000  0.55823700  0.16526000  1
  H  1321  1  0.79299900  0.60476500  0.11892600  1
  H  1323  1  0.83949100  0.61124900  0.11321400  1
  H  1331  1  0.32714900  0.37680900  0.34733100  1
  H  1332  1  0.29049900  0.36849200  0.33932100  1
  H  1334  1  0.29109400  0.32169600  0.38538400  1
  H  1336  1  0.33769700  0.31559100  0.39051200  1
  H  1344  1  0.07888900  0.05901200  0.83887600  1
  H  1345  1  0.04233000  0.05057900  0.84718400  1
  H  1347  1  0.04223200  0.09679400  0.89365200  1
  H  1349  1  0.08868500  0.10251300  0.89984300  1
  H  1357  1  0.57850700  0.86929700  0.66603200  1
  H  1358  1  0.54178300  0.87733000  0.65798000  1
  H  1360  1  0.54187100  0.83109800  0.61153300  1
  H  1362  1  0.58842100  0.82586800  0.60506000  1
  H  1370  1  0.54203100  0.54962400  0.34689500  1
  H  1371  1  0.57867500  0.55771700  0.33860400  1
  H  1373  1  0.57873100  0.60449600  0.38450300  1
  H  1375  1  0.53219100  0.61087700  0.38996200  1
  H  1383  1  0.04202800  0.37692300  0.15723800  1
  H  1384  1  0.07863600  0.36877500  0.16563100  1
  H  1386  1  0.07873500  0.32196300  0.11976400  1
  H  1388  1  0.03222900  0.31563800  0.11419600  1
  H  1396  1  0.29063500  0.05923700  0.66536200  1
  H  1397  1  0.32719700  0.05055300  0.65735400  1
  H  1399  1  0.32799900  0.09677500  0.61071700  1
  H  1401  1  0.28151500  0.10282700  0.60423800  1
  H  1409  1  0.79265900  0.86918700  0.83915800  1
  H  1410  1  0.82931600  0.87732500  0.84737000  1
  H  1412  1  0.82885700  0.83162300  0.89452300  1
  H  1414  1  0.78229600  0.82641400  0.90074500  1
  H  1422  1  0.04175400  0.37752000  0.84741900  1
  H  1423  1  0.07825900  0.36916500  0.83884200  1
  H  1425  1  0.07856500  0.32275800  0.88530100  1
  H  1427  1  0.03207200  0.31665600  0.89129300  1
  H  1435  1  0.54069900  0.55136100  0.65698200  1
  H  1436  1  0.57720500  0.55962000  0.66565200  1
  H  1438  1  0.57846000  0.60459200  0.61782200  1
  H  1440  1  0.53203200  0.61090400  0.61123100  1
  H  1448  1  0.79210800  0.86809000  0.16550200  1
  H  1449  1  0.82866100  0.87649800  0.15710600  1
  H  1451  1  0.82891600  0.82964500  0.11128600  1
  H  1453  1  0.78252200  0.82371300  0.10511000  1
  H  1461  1  0.29161800  0.05823900  0.33967500  1
  H  1462  1  0.32819100  0.04977700  0.34794100  1
  H  1464  1  0.32920800  0.09765200  0.39268000  1
  H  1466  1  0.28342800  0.10402300  0.39943700  1
  H  1474  1  0.32905700  0.37692900  0.65668500  1
  H  1475  1  0.29255600  0.36857700  0.66534500  1
  H  1477  1  0.29206100  0.32241900  0.61882600  1
  H  1479  1  0.33847100  0.31625200  0.61268900  1
  H  1487  1  0.82944100  0.55137800  0.84720600  1
  H  1488  1  0.79287400  0.55950400  0.83862300  1
  H  1490  1  0.79209700  0.60549300  0.88530500  1
  H  1492  1  0.83856900  0.61189000  0.89139400  1
  H  1500  1  0.57853900  0.86854900  0.33974300  1
  H  1501  1  0.54208000  0.87719100  0.34824900  1
  H  1503  1  0.54123100  0.82944000  0.39332000  1
  H  1505  1  0.58758500  0.82290300  0.39939900  1
  H  1513  1  0.07862800  0.05838000  0.16601400  1
  H  1514  1  0.04209700  0.04982000  0.15774000  1
  H  1516  1  0.04185300  0.09597900  0.11103200  1
  H  1518  1  0.08831400  0.10186400  0.10483600  1
  H  1526  1  0.89075600  0.73216300  0.10384400  1
  H  1527  1  0.89363500  0.69492700  0.10516800  1
  H  1529  1  0.92502400  0.69525900  0.04719100  1
  H  1531  1  0.91276700  0.73742300  0.03156000  1
  H  1539  1  0.38696200  0.19452800  0.40345000  1
  H  1540  1  0.38691100  0.23203900  0.40305600  1
  H  1542  1  0.43468200  0.23238800  0.44935500  1
  H  1544  1  0.43046500  0.18821500  0.46542700  1
  H  1552  1  0.13673600  0.11528000  0.02108600  1
  H  1553  1  0.13686200  0.11520700  0.98355500  1
  H  1555  1  0.18616000  0.15997700  0.98366100  1
  H  1557  1  0.18217500  0.17585600  0.02776900  1
  H  1565  1  0.63604500  0.81123000  0.48358500  1
  H  1566  1  0.63609100  0.81176800  0.52112000  1
  H  1568  1  0.68649100  0.76816000  0.52164200  1
  H  1570  1  0.68302100  0.75166000  0.47774500  1
  H  1578  1  0.48416800  0.73224100  0.40420300  1
  H  1579  1  0.48425100  0.69471400  0.40388400  1
  H  1581  1  0.43467400  0.69426300  0.44837300  1
  H  1583  1  0.43826300  0.73834500  0.46452200  1
  H  1591  1  0.98361000  0.19443200  0.10137200  1
  H  1592  1  0.98369500  0.23196000  0.10131600  1
  H  1594  1  0.93508800  0.23196000  0.05583700  1
  H  1596  1  0.93905200  0.18775000  0.04018400  1
  H  1604  1  0.23042300  0.11233100  0.48328300  1
  H  1605  1  0.22775800  0.11126700  0.52054400  1
  H  1607  1  0.19556600  0.16882000  0.51990700  1
  H  1609  1  0.20734300  0.18426500  0.47755900  1
  H  1617  1  0.73420100  0.81149100  0.02152800  1
  H  1618  1  0.73429600  0.81184600  0.98400100  1
  H  1620  1  0.68485000  0.76721800  0.98367400  1
  H  1622  1  0.68850400  0.75102400  0.02777600  1
  H  1630  1  0.98404500  0.19506800  0.90432100  1
  H  1631  1  0.98395200  0.23260800  0.90414800  1
  H  1633  1  0.93362800  0.23247600  0.94783800  1
  H  1635  1  0.93724700  0.18838700  0.96393400  1
  H  1643  1  0.48008100  0.73249100  0.60435400  1
  H  1644  1  0.47728800  0.69523500  0.60527300  1
  H  1646  1  0.44530800  0.69617700  0.54761400  1
  H  1648  1  0.45733000  0.73861600  0.53240400  1
  H  1656  1  0.38695300  0.19501900  0.60089300  1
  H  1657  1  0.38697500  0.23254300  0.60055600  1
  H  1659  1  0.43591900  0.23207800  0.55542500  1
  H  1661  1  0.43193900  0.18775500  0.54006900  1
  H  1669  1  0.89049200  0.73287000  0.90053200  1
  H  1670  1  0.89318100  0.69563100  0.89928400  1
  H  1672  1  0.92425700  0.69566800  0.95741400  1
  H  1674  1  0.91218200  0.73783100  0.97292500  1
  H  1682  1  0.63614100  0.61563600  0.52085500  1
  H  1683  1  0.63630900  0.61518800  0.48332600  1
  H  1685  1  0.68687400  0.65861600  0.48305800  1
  H  1687  1  0.68330800  0.67502500  0.52699700  1
  H  1695  1  0.13697700  0.31259900  0.98344700  1
  H  1696  1  0.13707700  0.31275800  0.02097600  1
  H  1698  1  0.18621800  0.26782200  0.02100900  1
  H  1700  1  0.18221900  0.25187900  0.97689800  1
  H  1708  1  0.73383200  0.61477900  0.98303700  1
  H  1709  1  0.73392500  0.61450800  0.02055800  1
  H  1711  1  0.68563100  0.66029500  0.02079600  1
  H  1713  1  0.68962200  0.67626100  0.97656800  1
  H  1721  1  0.22967700  0.31563500  0.52149900  1
  H  1722  1  0.22701900  0.31684100  0.48425000  1
  H  1724  1  0.19620900  0.25857300  0.48454300  1
  H  1726  1  0.20833100  0.24316700  0.52683100  1
  C  1  1  0.91135100  0.57696900  0.09670500  1
  C  2  1  0.89690900  0.57595700  0.11371100  1
  C  3  1  0.88687300  0.55729700  0.12000000  1
  C  4  1  0.89365200  0.53846100  0.11105100  1
  C  5  1  0.90911800  0.53814800  0.09499800  1
  C  6  1  0.91688500  0.55753200  0.08717900  1
  C  9  1  0.92000300  0.59705300  0.09020100  1
  C  10  1  0.90832400  0.61630000  0.09067800  1
  C  11  1  0.91766200  0.63555300  0.08413000  1
  C  12  1  0.93844800  0.63485200  0.07531600  1
  C  13  1  0.95015600  0.61621700  0.07393400  1
  C  14  1  0.94142900  0.59807100  0.08285600  1
  C  21  1  0.96691200  0.61505900  0.05983600  1
  C  22  1  0.91589400  0.51903300  0.08699100  1
  C  23  1  0.86901400  0.55763500  0.13278000  1
  C  24  1  0.90710200  0.65482800  0.08611300  1
  C  29  1  0.40920500  0.35059900  0.40669900  1
  C  30  1  0.39464900  0.35147900  0.38978000  1
  C  31  1  0.38446700  0.37007500  0.38351200  1
  C  32  1  0.39122300  0.38896900  0.39236300  1
  C  33  1  0.40678400  0.38937900  0.40832400  1
  C  34  1  0.41469100  0.37007000  0.41616100  1
  C  37  1  0.41800700  0.33061600  0.41325300  1
  C  38  1  0.40636100  0.31134800  0.41313700  1
  C  39  1  0.41578700  0.29220600  0.41988900  1
  C  40  1  0.43663500  0.29314700  0.42858900  1
  C  41  1  0.44836000  0.31179200  0.42950100  1
  C  42  1  0.43951000  0.32977400  0.42039500  1
  C  49  1  0.46514000  0.31319800  0.44351000  1
  C  50  1  0.41355900  0.40850300  0.41624400  1
  C  51  1  0.36647000  0.36959600  0.37092000  1
  C  52  1  0.40512000  0.27289500  0.41855500  1
  C  57  1  0.16011000  0.11938500  0.86498900  1
  C  58  1  0.14575300  0.10231400  0.86410100  1
  C  59  1  0.13570300  0.09596500  0.84549400  1
  C  60  1  0.14241300  0.10491500  0.82659400  1
  C  61  1  0.15780500  0.12103500  0.82616700  1
  C  62  1  0.16556700  0.12891300  0.84549600  1
  C  65  1  0.16873800  0.12599400  0.88501100  1
  C  66  1  0.15703800  0.12566400  0.90425400  1
  C  67  1  0.16632000  0.13242500  0.92343900  1
  C  68  1  0.18704500  0.14140500  0.92254600  1
  C  69  1  0.19882900  0.14250400  0.90394000  1
  C  70  1  0.19016000  0.13334900  0.88593200  1
  C  77  1  0.21562200  0.15652800  0.90261400  1
  C  78  1  0.16449900  0.12907700  0.80700800  1
  C  79  1  0.11787100  0.08314800  0.84595000  1
  C  80  1  0.15561500  0.13090800  0.94273900  1
  C  85  1  0.65998700  0.80929700  0.63976700  1
  C  86  1  0.64561200  0.82636300  0.64059100  1
  C  87  1  0.63558000  0.83278600  0.65918400  1
  C  88  1  0.64233500  0.82392900  0.67811200  1
  C  89  1  0.65773900  0.80782600  0.67857500  1
  C  90  1  0.66546900  0.79985100  0.65928500  1
  C  93  1  0.66861500  0.80259100  0.61978700  1
  C  94  1  0.65687700  0.80276700  0.60056800  1
  C  95  1  0.66613000  0.79586300  0.58142600  1
  C  96  1  0.68688800  0.78695400  0.58234000  1
  C  97  1  0.69870600  0.78600300  0.60092800  1
  C  98  1  0.69003400  0.79521600  0.61889800  1
  C  105  1  0.71528700  0.77178000  0.60234400  1
  C  106  1  0.66452300  0.79990500  0.69773300  1
  C  107  1  0.61770600  0.84554800  0.65869200  1
  C  108  1  0.65534200  0.79712100  0.56215800  1
  C  113  1  0.46088800  0.57611200  0.40717000  1
  C  114  1  0.47512600  0.57522000  0.39000100  1
  C  115  1  0.48510600  0.55659300  0.38359000  1
  C  116  1  0.47848100  0.53770000  0.39262200  1
  C  117  1  0.46331200  0.53736900  0.40892300  1
  C  118  1  0.45557100  0.55666800  0.41683200  1
  C  121  1  0.45221900  0.59607900  0.41380700  1
  C  122  1  0.46392600  0.61530600  0.41353400  1
  C  123  1  0.45462400  0.63445800  0.42033500  1
  C  124  1  0.43383600  0.63355900  0.42918000  1
  C  125  1  0.42204300  0.61495600  0.43020800  1
  C  126  1  0.43078800  0.59693900  0.42114800  1
  C  133  1  0.40518100  0.61366100  0.44415700  1
  C  134  1  0.45694100  0.51828900  0.41720700  1
  C  135  1  0.50295100  0.55703300  0.37079900  1
  C  136  1  0.46536400  0.65373600  0.41895100  1
  C  141  1  0.96123900  0.35058800  0.09645400  1
  C  142  1  0.97530300  0.35151000  0.11375400  1
  C  143  1  0.98532600  0.37012000  0.12016100  1
  C  144  1  0.97886100  0.38899800  0.11098700  1
  C  145  1  0.96382100  0.38933600  0.09457500  1
  C  146  1  0.95608900  0.37002300  0.08667500  1
  C  149  1  0.95255300  0.33060200  0.08984700  1
  C  150  1  0.96411700  0.31129500  0.09040200  1
  C  151  1  0.95477100  0.29213800  0.08364900  1
  C  152  1  0.93410600  0.29309900  0.07454300  1
  C  153  1  0.92246100  0.31177400  0.07322900  1
  C  154  1  0.93121500  0.32980200  0.08226000  1
  C  161  1  0.90573900  0.31307200  0.05914000  1
  C  162  1  0.95759100  0.40842600  0.08617800  1
  C  163  1  0.00302700  0.36963800  0.13314900  1
  C  164  1  0.96534700  0.27279000  0.08535400  1
  C  169  1  0.21004000  0.12022200  0.63850700  1
  C  170  1  0.22419500  0.10298500  0.63954900  1
  C  171  1  0.23412400  0.09656200  0.65822300  1
  C  172  1  0.22751100  0.10565100  0.67705300  1
  C  173  1  0.21240000  0.12200200  0.67728900  1
  C  174  1  0.20474100  0.12991900  0.65791400  1
  C  177  1  0.20143100  0.12681200  0.61843600  1
  C  178  1  0.21302600  0.12608300  0.59915000  1
  C  179  1  0.20371100  0.13266600  0.57989600  1
  C  180  1  0.18304000  0.14173000  0.58062700  1
  C  181  1  0.17142400  0.14336700  0.59929400  1
  C  182  1  0.18012300  0.13448400  0.61747200  1
  C  189  1  0.15471700  0.15752300  0.60035700  1
  C  190  1  0.20605400  0.13032400  0.69635500  1
  C  191  1  0.25187400  0.08364200  0.65788900  1
  C  192  1  0.21418300  0.13049400  0.56059000  1
  C  197  1  0.71144500  0.80875900  0.86541700  1
  C  198  1  0.72558700  0.82601000  0.86456300  1
  C  199  1  0.73564300  0.83251100  0.84597400  1
  C  200  1  0.72914500  0.82349700  0.82706600  1
  C  201  1  0.71405700  0.80713100  0.82668800  1
  C  202  1  0.70628000  0.79912000  0.84596100  1
  C  205  1  0.70271900  0.80201200  0.88535400  1
  C  206  1  0.71430900  0.80229700  0.90464700  1
  C  207  1  0.70495400  0.79534000  0.92374900  1
  C  208  1  0.68425100  0.78632200  0.92273600  1
  C  209  1  0.67257600  0.78528300  0.90406700  1
  C  210  1  0.68134500  0.79450800  0.88610700  1
  C  217  1  0.65586000  0.77120400  0.90265700  1
  C  218  1  0.70779500  0.79887000  0.80759900  1
  C  219  1  0.75342600  0.84539100  0.84649700  1
  C  220  1  0.71557900  0.79673700  0.94308400  1
  C  225  1  0.96043100  0.35123200  0.90770900  1
  C  226  1  0.97493900  0.35220200  0.89075800  1
  C  227  1  0.98498600  0.37085500  0.88446800  1
  C  228  1  0.97817900  0.38971000  0.89336800  1
  C  229  1  0.96267400  0.39004800  0.90938600  1
  C  230  1  0.95487500  0.37067800  0.91720000  1
  C  233  1  0.95173900  0.33118400  0.91422900  1
  C  234  1  0.96344400  0.31194300  0.91402600  1
  C  235  1  0.95409600  0.29273700  0.92071700  1
  C  236  1  0.93327700  0.29360100  0.92949000  1
  C  237  1  0.92147400  0.31220000  0.93044400  1
  C  238  1  0.93023600  0.33023500  0.92135700  1
  C  245  1  0.90458800  0.31350700  0.94435700  1
  C  246  1  0.95589500  0.40916100  0.91739300  1
  C  247  1  0.00289800  0.37049300  0.87176400  1
  C  248  1  0.96482300  0.27344300  0.91934900  1
  C  253  1  0.45985800  0.57733100  0.59596000  1
  C  254  1  0.47427800  0.57628200  0.61298300  1
  C  255  1  0.48433000  0.55761800  0.61923700  1
  C  256  1  0.47758300  0.53879500  0.61023400  1
  C  257  1  0.46213000  0.53850600  0.59416900  1
  C  258  1  0.45436800  0.55790400  0.58638100  1
  C  261  1  0.45117100  0.59743000  0.58951200  1
  C  262  1  0.46275600  0.61673000  0.59014500  1
  C  263  1  0.45336600  0.63598700  0.58365900  1
  C  264  1  0.43264100  0.63523900  0.57470400  1
  C  265  1  0.42103200  0.61656200  0.57316700  1
  C  266  1  0.42979000  0.59841200  0.58204900  1
  C  273  1  0.40444500  0.61537400  0.55891400  1
  C  274  1  0.45535400  0.51940500  0.58612400  1
  C  275  1  0.50217600  0.55796900  0.63203000  1
  C  276  1  0.46384100  0.65529900  0.58579600  1
  C  281  1  0.71104200  0.80729600  0.13982300  1
  C  282  1  0.72536600  0.82439700  0.14068700  1
  C  283  1  0.73540200  0.83079300  0.15928600  1
  C  284  1  0.72868400  0.82187100  0.17819700  1
  C  285  1  0.71331900  0.80572700  0.17862600  1
  C  286  1  0.70559100  0.79778600  0.15931800  1
  C  289  1  0.70244200  0.80061500  0.11982400  1
  C  290  1  0.71418400  0.80091000  0.10061000  1
  C  291  1  0.70494600  0.79408200  0.08143600  1
  C  292  1  0.68424200  0.78505400  0.08231700  1
  C  293  1  0.67241700  0.78399100  0.10090000  1
  C  294  1  0.68103700  0.79321000  0.11889600  1
  C  301  1  0.65562600  0.76995400  0.10222600  1
  C  302  1  0.70655100  0.79775500  0.19776900  1
  C  303  1  0.75321800  0.84363200  0.15880900  1
  C  304  1  0.71568100  0.79559200  0.06216200  1
  C  309  1  0.21075500  0.11895300  0.36598000  1
  C  310  1  0.22523700  0.10199700  0.36482500  1
  C  311  1  0.23497400  0.09571800  0.34604000  1
  C  312  1  0.22778500  0.10459600  0.32727400  1
  C  313  1  0.21215300  0.12051100  0.32712100  1
  C  314  1  0.20467200  0.12831400  0.34659000  1
  C  317  1  0.20275700  0.12560200  0.38622600  1
  C  318  1  0.21525300  0.12543900  0.40496800  1
  C  319  1  0.20664200  0.13202400  0.42446300  1
  C  320  1  0.18568000  0.14041900  0.42465000  1
  C  321  1  0.17322200  0.14162400  0.40644400  1
  C  322  1  0.18134600  0.13283600  0.38798300  1
  C  329  1  0.15633700  0.15558400  0.40584500  1
  C  330  1  0.20501200  0.12848200  0.30807900  1
  C  331  1  0.25293400  0.08305400  0.34621200  1
  C  332  1  0.21859000  0.13056900  0.44293600  1
  C  337  1  0.40961400  0.35101100  0.59537000  1
  C  338  1  0.39548500  0.35195500  0.61261800  1
  C  339  1  0.38547900  0.37057800  0.61900600  1
  C  340  1  0.39201300  0.38945100  0.60985900  1
  C  341  1  0.40710000  0.38976800  0.59348300  1
  C  342  1  0.41483000  0.37044200  0.58561100  1
  C  345  1  0.41829500  0.33101000  0.58879800  1
  C  346  1  0.40670600  0.31171500  0.58933200  1
  C  347  1  0.41605200  0.29253700  0.58263300  1
  C  348  1  0.43673300  0.29347500  0.57355800  1
  C  349  1  0.44841400  0.31213300  0.57227900  1
  C  350  1  0.43966900  0.33017000  0.58131200  1
  C  357  1  0.46525500  0.31342800  0.55829500  1
  C  358  1  0.41338200  0.40885500  0.58510100  1
  C  359  1  0.36779000  0.37013200  0.63201500  1
  C  360  1  0.40545800  0.27319900  0.58434600  1
  C  365  1  0.91014700  0.57755000  0.90824400  1
  C  366  1  0.89590800  0.57657700  0.89107600  1
  C  367  1  0.88588700  0.55794000  0.88474600  1
  C  368  1  0.89249000  0.53908100  0.89386600  1
  C  369  1  0.90768100  0.53878400  0.91014900  1
  C  370  1  0.91543800  0.55812100  0.91797300  1
  C  373  1  0.91888900  0.59757700  0.91470400  1
  C  374  1  0.90735200  0.61689700  0.91404300  1
  C  375  1  0.91680000  0.63610000  0.92051200  1
  C  376  1  0.93758000  0.63530300  0.92933500  1
  C  377  1  0.94914400  0.61659500  0.93089000  1
  C  378  1  0.94027100  0.59845000  0.92217900  1
  C  385  1  0.96588900  0.61542300  0.94496500  1
  C  386  1  0.91404800  0.51970000  0.91848000  1
  C  387  1  0.86815300  0.55835600  0.87179600  1
  C  388  1  0.90635000  0.65542800  0.91843000  1
  C  393  1  0.65898700  0.80690300  0.36526800  1
  C  394  1  0.64489100  0.82418000  0.36431300  1
  C  395  1  0.63490500  0.83063300  0.34567800  1
  C  396  1  0.64141500  0.82153500  0.32681500  1
  C  397  1  0.65645800  0.80512700  0.32653500  1
  C  398  1  0.66417500  0.79717700  0.34585900  1
  C  401  1  0.66764000  0.80021800  0.38525600  1
  C  402  1  0.65601900  0.80065500  0.40452900  1
  C  403  1  0.66532200  0.79379300  0.42368900  1
  C  404  1  0.68596100  0.78463100  0.42274600  1
  C  405  1  0.69767500  0.78346400  0.40410600  1
  C  406  1  0.68899500  0.79267300  0.38609600  1
  C  413  1  0.71451600  0.76949700  0.40281700  1
  C  414  1  0.66274200  0.79678800  0.30748200  1
  C  415  1  0.61716100  0.84355100  0.34612200  1
  C  416  1  0.65469400  0.79538200  0.44300400  1
  C  421  1  0.15930800  0.11945100  0.13974100  1
  C  422  1  0.14522500  0.10216300  0.14069400  1
  C  423  1  0.13522800  0.09569600  0.15932200  1
  C  424  1  0.14173500  0.10479100  0.17818900  1
  C  425  1  0.15679000  0.12118900  0.17849600  1
  C  426  1  0.16449700  0.12915500  0.15916800  1
  C  429  1  0.16797500  0.12611400  0.11973800  1
  C  430  1  0.15639100  0.12561600  0.10043900  1
  C  431  1  0.16571900  0.13241400  0.08126100  1
  C  432  1  0.18639600  0.14149800  0.08219200  1
  C  433  1  0.19806100  0.14275600  0.10085100  1
  C  434  1  0.18931400  0.13370300  0.11890600  1
  C  441  1  0.21472700  0.15690100  0.10210900  1
  C  442  1  0.16306100  0.12951100  0.19757500  1
  C  443  1  0.11751200  0.08273100  0.15887100  1
  C  444  1  0.15510200  0.13082400  0.06193000  1
  C  449  1  0.40943500  0.07633200  0.59777000  1
  C  450  1  0.39480800  0.07551000  0.61463500  1
  C  451  1  0.38461000  0.05694200  0.62094800  1
  C  452  1  0.39142500  0.03800100  0.61223100  1
  C  453  1  0.40705800  0.03750800  0.59633900  1
  C  454  1  0.41497800  0.05680200  0.58844300  1
  C  457  1  0.41819900  0.09632600  0.59113700  1
  C  458  1  0.40655200  0.11560500  0.59123300  1
  C  459  1  0.41595100  0.13474800  0.58442800  1
  C  460  1  0.43675600  0.13377600  0.57564000  1
  C  461  1  0.44849100  0.11513600  0.57475200  1
  C  462  1  0.43969000  0.09717800  0.58395500  1
  C  469  1  0.46523400  0.11368800  0.56068300  1
  C  470  1  0.41380100  0.01832200  0.58848300  1
  C  471  1  0.36652600  0.05746800  0.63342400  1
  C  472  1  0.40527900  0.15407600  0.58569300  1
  C  477  1  0.91035100  0.85000100  0.90777900  1
  C  478  1  0.89597100  0.85126600  0.89073900  1
  C  479  1  0.88629700  0.87009200  0.88442500  1
  C  480  1  0.89351100  0.88880800  0.89331000  1
  C  481  1  0.90910500  0.88887200  0.90926200  1
  C  482  1  0.91647700  0.86935300  0.91712400  1
  C  485  1  0.91816300  0.82968300  0.91452600  1
  C  486  1  0.90555800  0.81100600  0.91421500  1
  C  487  1  0.91398600  0.79142000  0.92083200  1
  C  488  1  0.93485100  0.79106400  0.92944000  1
  C  489  1  0.94738500  0.80919900  0.93084800  1
  C  490  1  0.93947100  0.82776400  0.92202200  1
  C  497  1  0.96408000  0.80959900  0.94502100  1
  C  498  1  0.91626700  0.90788400  0.91722700  1
  C  499  1  0.86831100  0.87001200  0.87179000  1
  C  500  1  0.90196300  0.77301700  0.91919500  1
  C  505  1  0.66034300  0.61771500  0.36480000  1
  C  506  1  0.64582700  0.60076700  0.36395300  1
  C  507  1  0.63576600  0.59443900  0.34534500  1
  C  508  1  0.64259800  0.60326900  0.32642900  1
  C  509  1  0.65812100  0.61926800  0.32599200  1
  C  510  1  0.66592000  0.62714400  0.34529900  1
  C  513  1  0.66899700  0.62433900  0.38479400  1
  C  514  1  0.65721000  0.62428100  0.40398400  1
  C  515  1  0.66648900  0.63111000  0.42314100  1
  C  516  1  0.68731800  0.63986200  0.42225700  1
  C  517  1  0.69919100  0.64068400  0.40369300  1
  C  518  1  0.69049600  0.63147600  0.38572700  1
  C  525  1  0.71602000  0.65465100  0.40228500  1
  C  526  1  0.66493900  0.62719500  0.30684600  1
  C  527  1  0.61781000  0.58178500  0.34580000  1
  C  528  1  0.65566400  0.62992100  0.44239000  1
  C  533  1  0.16019100  0.30857700  0.13960200  1
  C  534  1  0.14576400  0.32559400  0.14051000  1
  C  535  1  0.13563000  0.33183500  0.15910900  1
  C  536  1  0.14233000  0.32285100  0.17799700  1
  C  537  1  0.15780700  0.30680900  0.17841300  1
  C  538  1  0.16564700  0.29901800  0.15908100  1
  C  541  1  0.16888300  0.30206100  0.11957400  1
  C  542  1  0.15721000  0.30241000  0.10031400  1
  C  543  1  0.16654700  0.29574400  0.08111900  1
  C  544  1  0.18732400  0.28687700  0.08200100  1
  C  545  1  0.19907100  0.28574200  0.10062300  1
  C  546  1  0.19031900  0.29474500  0.11866500  1
  C  553  1  0.21567900  0.27153800  0.10196300  1
  C  554  1  0.16450400  0.29875100  0.19756100  1
  C  555  1  0.11771400  0.34454200  0.15863400  1
  C  556  1  0.15584100  0.29724400  0.06182000  1
  C  561  1  0.96127100  0.07648100  0.90807900  1
  C  562  1  0.97545500  0.07564200  0.89086600  1
  C  563  1  0.98553000  0.05706600  0.88444400  1
  C  564  1  0.97902100  0.03814300  0.89349900  1
  C  565  1  0.96388800  0.03772600  0.90983100  1
  C  566  1  0.95607800  0.05700300  0.91775100  1
  C  569  1  0.95255000  0.09643600  0.91473400  1
  C  570  1  0.96413200  0.11573900  0.91436200  1
  C  571  1  0.95476100  0.13485900  0.92118600  1
  C  572  1  0.93406400  0.13384000  0.93021400  1
  C  573  1  0.92238100  0.11517000  0.93132500  1
  C  574  1  0.93115500  0.09720700  0.92217600  1
  C  581  1  0.90550300  0.11378300  0.94526000  1
  C  582  1  0.95766300  0.01859400  0.91815300  1
  C  583  1  0.00330800  0.05759800  0.87155900  1
  C  584  1  0.96536600  0.15421100  0.91968800  1
  C  589  1  0.46069200  0.84996100  0.59776900  1
  C  590  1  0.47497200  0.85114300  0.61488900  1
  C  591  1  0.48463800  0.86994400  0.62124400  1
  C  592  1  0.47755200  0.88870600  0.61226500  1
  C  593  1  0.46219300  0.88878400  0.59612100  1
  C  594  1  0.45480100  0.86932600  0.58824900  1
  C  597  1  0.45271800  0.82973200  0.59105000  1
  C  598  1  0.46513000  0.81093900  0.59137700  1
  C  599  1  0.45653400  0.79148700  0.58464400  1
  C  600  1  0.43569400  0.79139700  0.57596200  1
  C  601  1  0.42332800  0.80965000  0.57461300  1
  C  602  1  0.43140000  0.82806500  0.58353700  1
  C  609  1  0.40662500  0.81033400  0.56044900  1
  C  610  1  0.45545200  0.90778000  0.58784200  1
  C  611  1  0.50260900  0.86978900  0.63389600  1
  C  612  1  0.46838200  0.77296000  0.58622300  1
  C  617  1  0.71168200  0.61821100  0.13909000  1
  C  618  1  0.72610400  0.60118200  0.13998600  1
  C  619  1  0.73624500  0.59487100  0.15859000  1
  C  620  1  0.72961200  0.60383200  0.17748200  1
  C  621  1  0.71428300  0.61998600  0.17782000  1
  C  622  1  0.70637300  0.62782300  0.15852400  1
  C  625  1  0.70285800  0.62478200  0.11913300  1
  C  626  1  0.71444700  0.62460000  0.09983900  1
  C  627  1  0.70499400  0.63139000  0.08072300  1
  C  628  1  0.68419000  0.64018200  0.08172200  1
  C  629  1  0.67251300  0.64113200  0.10039700  1
  C  630  1  0.68137600  0.63198700  0.11835800  1
  C  637  1  0.65564300  0.65505200  0.10183000  1
  C  638  1  0.70793200  0.62823200  0.19689300  1
  C  639  1  0.75422300  0.58225700  0.15811700  1
  C  640  1  0.71560700  0.63002000  0.06138500  1
  C  645  1  0.20963700  0.30765100  0.36619400  1
  C  646  1  0.22381400  0.32487100  0.36511300  1
  C  647  1  0.23379800  0.33120400  0.34643800  1
  C  648  1  0.22718700  0.32207200  0.32762900  1
  C  649  1  0.21201700  0.30577200  0.32742100  1
  C  650  1  0.20432800  0.29791800  0.34680700  1
  C  653  1  0.20102400  0.30113300  0.38628800  1
  C  654  1  0.21262300  0.30193900  0.40556900  1
  C  655  1  0.20330400  0.29545100  0.42484900  1
  C  656  1  0.18260700  0.28644400  0.42418500  1
  C  657  1  0.17100700  0.28470100  0.40552600  1
  C  658  1  0.17973000  0.29342700  0.38728500  1
  C  665  1  0.15453300  0.27032700  0.40451500  1
  C  666  1  0.20564300  0.29744000  0.30837000  1
  C  667  1  0.25160800  0.34405100  0.34677900  1
  C  668  1  0.21379700  0.29767500  0.44412800  1
  C  673  1  0.46057200  0.85055600  0.40841100  1
  C  674  1  0.47491000  0.85151800  0.39132100  1
  C  675  1  0.48497400  0.87014400  0.38498300  1
  C  676  1  0.47824500  0.88900400  0.39392500  1
  C  677  1  0.46282800  0.88935200  0.41002400  1
  C  678  1  0.45508000  0.87000100  0.41792300  1
  C  681  1  0.45202200  0.83049900  0.41506400  1
  C  682  1  0.46383500  0.81132500  0.41472500  1
  C  683  1  0.45464900  0.79206700  0.42145500  1
  C  684  1  0.43391000  0.79280100  0.43041100  1
  C  685  1  0.42203100  0.81133900  0.43155100  1
  C  686  1  0.43062400  0.82945700  0.42247700  1
  C  693  1  0.40532500  0.81248700  0.44567700  1
  C  694  1  0.45604800  0.90846200  0.41799800  1
  C  695  1  0.50286100  0.86974500  0.37223100  1
  C  696  1  0.46546500  0.77284500  0.41992600  1
  C  701  1  0.96066200  0.07586400  0.09727200  1
  C  702  1  0.97503700  0.07492200  0.11433100  1
  C  703  1  0.98513800  0.05630800  0.12065700  1
  C  704  1  0.97841800  0.03743400  0.11173300  1
  C  705  1  0.96296800  0.03704800  0.09566700  1
  C  706  1  0.95518600  0.05639600  0.08778100  1
  C  709  1  0.95204000  0.09591800  0.09066000  1
  C  710  1  0.96375600  0.11515400  0.09100400  1
  C  711  1  0.95448200  0.13438400  0.08428300  1
  C  712  1  0.93372700  0.13357000  0.07536500  1
  C  713  1  0.92194800  0.11497600  0.07421600  1
  C  714  1  0.93063600  0.09688700  0.08326100  1
  C  721  1  0.90535400  0.11372400  0.05999800  1
  C  722  1  0.95624300  0.01791200  0.08767500  1
  C  723  1  0.00303000  0.05675900  0.13340100  1
  C  724  1  0.96522500  0.15365800  0.08578400  1
  C  729  1  0.21084500  0.30878200  0.63868200  1
  C  730  1  0.22547800  0.32561900  0.63979400  1
  C  731  1  0.23531300  0.33183100  0.65855100  1
  C  732  1  0.22807700  0.32303500  0.67734300  1
  C  733  1  0.21231400  0.30724100  0.67753700  1
  C  734  1  0.20472000  0.29948800  0.65808900  1
  C  737  1  0.20278000  0.30215900  0.61845600  1
  C  738  1  0.21527500  0.30218100  0.59971300  1
  C  739  1  0.20660900  0.29558800  0.58024600  1
  C  740  1  0.18561500  0.28727900  0.58010300  1
  C  741  1  0.17314000  0.28623800  0.59830700  1
  C  742  1  0.18130800  0.29509100  0.61672400  1
  C  749  1  0.15612800  0.27240300  0.59898900  1
  C  750  1  0.20517000  0.29931200  0.69659400  1
  C  751  1  0.25340800  0.34432200  0.65835800  1
  C  752  1  0.21848700  0.29682900  0.56173500  1
  C  757  1  0.71101700  0.61934300  0.86470500  1
  C  758  1  0.72549300  0.60236300  0.86380000  1
  C  759  1  0.73562800  0.59611800  0.84520000  1
  C  760  1  0.72880700  0.60500300  0.82630400  1
  C  761  1  0.71326000  0.62098000  0.82590000  1
  C  762  1  0.70547200  0.62883100  0.84522100  1
  C  765  1  0.70237400  0.62591100  0.88473200  1
  C  766  1  0.71411100  0.62560000  0.90395300  1
  C  767  1  0.70483200  0.63229500  0.92315500  1
  C  768  1  0.68406300  0.64118500  0.92232300  1
  C  769  1  0.67226000  0.64230000  0.90373600  1
  C  770  1  0.68094700  0.63325000  0.88568700  1
  C  777  1  0.65565100  0.65651200  0.90241800  1
  C  778  1  0.70639600  0.62890900  0.80677100  1
  C  779  1  0.75359500  0.58346200  0.84567200  1
  C  780  1  0.71558300  0.63076800  0.94242000  1
  C  785  1  0.90969300  0.84944700  0.09660800  1
  C  786  1  0.89539400  0.85060900  0.11371300  1
  C  787  1  0.88565600  0.86938500  0.12003300  1
  C  788  1  0.89269200  0.88815300  0.11102500  1
  C  789  1  0.90807000  0.88825400  0.09489400  1
  C  790  1  0.91555500  0.86880600  0.08707400  1
  C  793  1  0.91771500  0.82922700  0.08994200  1
  C  794  1  0.90528000  0.81045100  0.09023200  1
  C  795  1  0.91391300  0.79097700  0.08361900  1
  C  796  1  0.93482400  0.79084200  0.07510900  1
  C  797  1  0.94722700  0.80907700  0.07380800  1
  C  798  1  0.93908700  0.82754100  0.08258100  1
  C  805  1  0.96416700  0.80964100  0.05990000  1
  C  806  1  0.91478100  0.90726000  0.08661300  1
  C  807  1  0.86776000  0.86920900  0.13279900  1
  C  808  1  0.90208600  0.77245500  0.08508000  1
  C  813  1  0.40933400  0.07627200  0.40851100  1
  C  814  1  0.39528900  0.07535400  0.39119600  1
  C  815  1  0.38521800  0.05676000  0.38481000  1
  C  816  1  0.39167300  0.03788200  0.39399900  1
  C  817  1  0.40672200  0.03754900  0.41040300  1
  C  818  1  0.41447600  0.05684600  0.41830000  1
  C  821  1  0.41798100  0.09624900  0.41514800  1
  C  822  1  0.40634200  0.11550900  0.41463000  1
  C  823  1  0.41562900  0.13468000  0.42140100  1
  C  824  1  0.43630700  0.13378600  0.43048800  1
  C  825  1  0.44801000  0.11514700  0.43178700  1
  C  826  1  0.43931500  0.09709500  0.42274500  1
  C  833  1  0.46470100  0.11387500  0.44591000  1
  C  834  1  0.41298000  0.01847600  0.41878600  1
  C  835  1  0.36750600  0.05725600  0.37182100  1
  C  836  1  0.40497400  0.15397500  0.41970300  1
  C  841  1  0.15945000  0.30838900  0.86489800  1
  C  842  1  0.14520400  0.32555000  0.86396000  1
  C  843  1  0.13512500  0.33192600  0.84534500  1
  C  844  1  0.14170600  0.32289500  0.82646900  1
  C  845  1  0.15691100  0.30662400  0.82614600  1
  C  846  1  0.16471700  0.29873400  0.84546800  1
  C  849  1  0.16816400  0.30178000  0.88489500  1
  C  850  1  0.15655300  0.30214200  0.90418200  1
  C  851  1  0.16592400  0.29539100  0.92335400  1
  C  852  1  0.18666300  0.28644500  0.92242000  1
  C  853  1  0.19836000  0.28532400  0.90376900  1
  C  854  1  0.18958200  0.29440500  0.88573700  1
  C  861  1  0.21523500  0.27139800  0.90247100  1
  C  862  1  0.16321600  0.29833100  0.80706200  1
  C  863  1  0.11730800  0.34476600  0.84580400  1
  C  864  1  0.15529500  0.29691300  0.94268000  1
  C  869  1  0.65881800  0.61974700  0.63930600  1
  C  870  1  0.64459300  0.60256600  0.64023900  1
  C  871  1  0.63443600  0.59623200  0.65883300  1
  C  872  1  0.64098000  0.60529100  0.67771100  1
  C  873  1  0.65618400  0.62155700  0.67802900  1
  C  874  1  0.66401500  0.62944500  0.65872800  1
  C  877  1  0.66757300  0.62636000  0.61932900  1
  C  878  1  0.65601400  0.62593200  0.60001700  1
  C  879  1  0.66540200  0.63272900  0.58087200  1
  C  880  1  0.68608300  0.64179800  0.58185300  1
  C  881  1  0.69772900  0.64297000  0.60052700  1
  C  882  1  0.68894400  0.63386900  0.61854100  1
  C  889  1  0.71437300  0.65712900  0.60188300  1
  C  890  1  0.66250500  0.62984600  0.69709000  1
  C  891  1  0.61658000  0.58343300  0.65833400  1
  C  892  1  0.65480800  0.63118700  0.56153300  1
  C  897  1  0.96975200  0.60210500  0.02441600  1
  C  898  1  0.97859200  0.61899300  0.01324400  1
  C  899  1  0.97837000  0.61902800  0.99134900  1
  C  900  1  0.96936400  0.60216400  0.98031300  1
  C  901  1  0.96180700  0.58464900  0.99147100  1
  C  904  1  0.96190900  0.58480000  0.01335800  1
  C  910  1  0.46842100  0.32639300  0.47878700  1
  C  911  1  0.47737600  0.30958600  0.49000700  1
  C  912  1  0.47739200  0.30967800  0.51190300  1
  C  913  1  0.46844000  0.32658300  0.52291500  1
  C  914  1  0.46081500  0.34404200  0.51172500  1
  C  917  1  0.46070600  0.34376500  0.48984000  1
  C  923  1  0.21858600  0.19192800  0.88952400  1
  C  924  1  0.22752200  0.20305500  0.90634800  1
  C  925  1  0.22741800  0.22495500  0.90627600  1
  C  926  1  0.21845800  0.23604800  0.88937500  1
  C  927  1  0.21086400  0.22489400  0.87191400  1
  C  930  1  0.21086100  0.20300700  0.87214300  1
  C  936  1  0.71844900  0.73644100  0.61545000  1
  C  937  1  0.72739300  0.72530900  0.59863800  1
  C  938  1  0.72713800  0.70341700  0.59858600  1
  C  939  1  0.71796100  0.69228600  0.61535100  1
  C  940  1  0.71029700  0.70340000  0.63280900  1
  C  943  1  0.71042800  0.72529000  0.63267300  1
  C  949  1  0.40166800  0.60106600  0.47961300  1
  C  950  1  0.39275100  0.61812700  0.49040900  1
  C  951  1  0.39262900  0.61842500  0.51230600  1
  C  952  1  0.40133600  0.60163500  0.52374100  1
  C  953  1  0.40881400  0.58390400  0.51297000  1
  C  956  1  0.40912700  0.58382000  0.49108400  1
  C  962  1  0.90220500  0.32630800  0.02386800  1
  C  963  1  0.89306100  0.30952200  0.01283700  1
  C  964  1  0.89287900  0.30963100  0.99094100  1
  C  965  1  0.90160500  0.32658300  0.97976000  1
  C  966  1  0.90938400  0.34401800  0.99083500  1
  C  969  1  0.90975200  0.34372000  0.01271900  1
  C  975  1  0.15175200  0.19302900  0.61285900  1
  C  976  1  0.14332100  0.20411100  0.59571400  1
  C  977  1  0.14357200  0.22600500  0.59551600  1
  C  978  1  0.15219200  0.23715500  0.61248700  1
  C  979  1  0.15934000  0.22612100  0.63023900  1
  C  982  1  0.15926500  0.20423100  0.63022100  1
  C  988  1  0.65251800  0.73596900  0.88939900  1
  C  989  1  0.64351700  0.72479700  0.90620900  1
  C  990  1  0.64350400  0.70289700  0.90611600  1
  C  991  1  0.65245100  0.69187600  0.88920500  1
  C  992  1  0.66001400  0.70306100  0.87171600  1
  C  995  1  0.66014100  0.72494500  0.87198100  1
  C  1001  1  0.65271100  0.73450600  0.11513500  1
  C  1002  1  0.64370400  0.72348600  0.09827300  1
  C  1003  1  0.64370300  0.70159000  0.09823200  1
  C  1004  1  0.65264700  0.69039700  0.11506800  1
  C  1005  1  0.66039000  0.70141100  0.13255200  1
  C  1008  1  0.66051300  0.72330000  0.13240600  1
  C  1014  1  0.15200800  0.19072500  0.39231200  1
  C  1015  1  0.14330900  0.20190500  0.40922600  1
  C  1016  1  0.14301300  0.22380000  0.40895800  1
  C  1017  1  0.15142400  0.23484600  0.39177400  1
  C  1018  1  0.15877400  0.22367800  0.37423500  1
  C  1021  1  0.15914000  0.20179700  0.37467200  1
  C  1027  1  0.71797100  0.73426500  0.38959100  1
  C  1028  1  0.72718100  0.72317100  0.40634400  1
  C  1029  1  0.72750700  0.70127600  0.40619100  1
  C  1030  1  0.71870100  0.69015300  0.38927800  1
  C  1031  1  0.71082600  0.70130200  0.37188600  1
  C  1034  1  0.71042800  0.72318300  0.37217700  1
  C  1040  1  0.21852500  0.19207700  0.11528200  1
  C  1041  1  0.22754600  0.20316400  0.09843300  1
  C  1042  1  0.22772000  0.22505600  0.09844900  1
  C  1043  1  0.21890100  0.23623000  0.11531700  1
  C  1044  1  0.21117000  0.22513500  0.13280600  1
  C  1047  1  0.21087700  0.20324800  0.13260600  1
  C  1053  1  0.46831500  0.10060800  0.52538300  1
  C  1054  1  0.47715600  0.11748500  0.51418300  1
  C  1055  1  0.47696400  0.11749800  0.49228300  1
  C  1056  1  0.46801000  0.10060200  0.48124900  1
  C  1057  1  0.46059100  0.08305300  0.49242100  1
  C  1060  1  0.46059900  0.08325500  0.51430600  1
  C  1066  1  0.96792400  0.82254900  0.98037200  1
  C  1067  1  0.97617700  0.80536000  0.99150900  1
  C  1068  1  0.97609700  0.80539100  0.01340700  1
  C  1069  1  0.96799300  0.82265000  0.02449000  1
  C  1070  1  0.96111900  0.84042700  0.01332300  1
  C  1073  1  0.96100800  0.84021900  0.99143500  1
  C  1079  1  0.90214400  0.10065300  0.98055400  1
  C  1080  1  0.89320300  0.11749500  0.99165500  1
  C  1081  1  0.89320500  0.11745000  0.01354700  1
  C  1082  1  0.90207000  0.10054600  0.02469200  1
  C  1083  1  0.90974300  0.08307800  0.01360300  1
  C  1086  1  0.90986500  0.08330500  0.99171300  1
  C  1092  1  0.40265500  0.82406500  0.52534400  1
  C  1093  1  0.39401000  0.80722500  0.51402800  1
  C  1094  1  0.39387800  0.80765400  0.49213100  1
  C  1095  1  0.40235100  0.82493400  0.48125300  1
  C  1096  1  0.40958100  0.84240500  0.49259900  1
  C  1099  1  0.40981000  0.84181400  0.51447800  1
  C  1105  1  0.92723300  0.48422300  0.09718800  1
  C  1106  1  0.92647300  0.47148200  0.11504600  1
  C  1107  1  0.93442900  0.45100300  0.11465600  1
  C  1108  1  0.94341700  0.44248200  0.09640900  1
  C  1109  1  0.94418300  0.45518100  0.07833400  1
  C  1112  1  0.93631400  0.47583600  0.07887400  1
  C  1118  1  0.42542100  0.44305900  0.40598800  1
  C  1119  1  0.42465900  0.45590300  0.38820400  1
  C  1120  1  0.43291900  0.47626600  0.38863000  1
  C  1121  1  0.44224400  0.48454000  0.40683100  1
  C  1122  1  0.44304100  0.47172900  0.42482200  1
  C  1125  1  0.43485900  0.45119600  0.42424500  1
  C  1131  1  0.17582200  0.11900100  0.77220400  1
  C  1132  1  0.17503800  0.10119900  0.75945700  1
  C  1133  1  0.18298200  0.10166800  0.73897200  1
  C  1134  1  0.19197600  0.11994700  0.73044400  1
  C  1135  1  0.19277900  0.13796100  0.74315200  1
  C  1138  1  0.18491200  0.13734200  0.76381100  1
  C  1144  1  0.67642300  0.81014800  0.73224800  1
  C  1145  1  0.67565900  0.82792700  0.74502600  1
  C  1146  1  0.68385400  0.82747600  0.76541400  1
  C  1147  1  0.69311100  0.80925400  0.77378800  1
  C  1148  1  0.69389800  0.79126200  0.76104400  1
  C  1151  1  0.68577500  0.79186300  0.74048700  1
  C  1157  1  0.94451400  0.44397000  0.90726700  1
  C  1158  1  0.94528500  0.45677500  0.88945400  1
  C  1159  1  0.93727700  0.47723500  0.88989200  1
  C  1160  1  0.92823400  0.48568300  0.90814700  1
  C  1161  1  0.92743000  0.47291400  0.92617000  1
  C  1164  1  0.93534500  0.45227500  0.92557800  1
  C  1170  1  0.44393100  0.48458700  0.59623400  1
  C  1171  1  0.44455800  0.47183900  0.61409500  1
  C  1172  1  0.43654700  0.45138100  0.61366800  1
  C  1173  1  0.42763900  0.44287500  0.59537700  1
  C  1174  1  0.42701800  0.45557200  0.57729400  1
  C  1177  1  0.43494200  0.47620900  0.57787200  1
  C  1183  1  0.69448900  0.80797900  0.23224800  1
  C  1184  1  0.69508000  0.82579800  0.24497600  1
  C  1185  1  0.68679000  0.82536100  0.26532800  1
  C  1186  1  0.67760700  0.80711000  0.27371500  1
  C  1187  1  0.67701100  0.78907100  0.26103000  1
  C  1190  1  0.68522500  0.78965800  0.24050500  1
  C  1196  1  0.19372800  0.11836100  0.27326700  1
  C  1197  1  0.19469800  0.10060300  0.26047000  1
  C  1198  1  0.18665400  0.10102000  0.24002200  1
  C  1199  1  0.17738600  0.11920500  0.23157600  1
  C  1200  1  0.17639200  0.13717700  0.24433400  1
  C  1203  1  0.18435100  0.13660500  0.26496000  1
  C  1209  1  0.42520300  0.98359300  0.59882400  1
  C  1210  1  0.42450200  0.97088400  0.61671000  1
  C  1211  1  0.43253200  0.95042800  0.61636400  1
  C  1212  1  0.44152400  0.94188400  0.59812800  1
  C  1213  1  0.44225100  0.95455300  0.58003100  1
  C  1216  1  0.43431400  0.97518600  0.58053000  1
  C  1222  1  0.92740600  0.94278900  0.90708200  1
  C  1223  1  0.92643300  0.95561200  0.88929100  1
  C  1224  1  0.93440400  0.97608600  0.88967400  1
  C  1225  1  0.94360800  0.98453100  0.90785600  1
  C  1226  1  0.94459700  0.97175000  0.92586300  1
  C  1229  1  0.93671900  0.95109600  0.92532300  1
  C  1235  1  0.67672200  0.61695400  0.27228600  1
  C  1236  1  0.67595300  0.59916900  0.25951600  1
  C  1237  1  0.68415600  0.59960100  0.23913000  1
  C  1238  1  0.69341600  0.61781900  0.23074300  1
  C  1239  1  0.69421600  0.63581300  0.24348000  1
  C  1242  1  0.68608800  0.63522900  0.26403800  1
  C  1248  1  0.17570700  0.30880100  0.23241000  1
  C  1249  1  0.17492800  0.32660900  0.24515000  1
  C  1250  1  0.18279700  0.32612600  0.26566000  1
  C  1251  1  0.19170300  0.30782600  0.27422400  1
  C  1252  1  0.19248900  0.28979900  0.26153200  1
  C  1255  1  0.18470900  0.29043500  0.24084400  1
  C  1261  1  0.44430200  0.94309100  0.40775900  1
  C  1262  1  0.44503300  0.95587700  0.38993400  1
  C  1263  1  0.43685800  0.97627200  0.39033000  1
  C  1264  1  0.42766300  0.98464900  0.40854600  1
  C  1265  1  0.42690300  0.97189600  0.42658300  1
  C  1268  1  0.43499500  0.95132600  0.42603500  1
  C  1274  1  0.94486600  0.98310500  0.09783200  1
  C  1275  1  0.94547400  0.97037600  0.11570600  1
  C  1276  1  0.93747800  0.94991100  0.11528700  1
  C  1277  1  0.92863000  0.94137500  0.09698200  1
  C  1278  1  0.92801400  0.95405800  0.07889100  1
  C  1281  1  0.93591300  0.97470300  0.07946400  1
  C  1287  1  0.19386100  0.30948800  0.73137800  1
  C  1288  1  0.19476600  0.32726900  0.74414700  1
  C  1289  1  0.18668700  0.32686700  0.76458400  1
  C  1290  1  0.17746100  0.30867200  0.77305200  1
  C  1291  1  0.17655500  0.29067000  0.76033000  1
  C  1294  1  0.18453700  0.29123000  0.73971300  1
  C  1300  1  0.69433600  0.61865700  0.77229800  1
  C  1301  1  0.69497600  0.60085400  0.75954800  1
  C  1302  1  0.68665700  0.60128400  0.73920400  1
  C  1303  1  0.67739600  0.61950900  0.73084100  1
  C  1304  1  0.67672100  0.63752100  0.74356300  1
  C  1307  1  0.68496900  0.63694500  0.76407500  1
  C  1313  1  0.78983600  0.58215500  0.14273100  1
  C  1314  1  0.80091900  0.56640300  0.15368800  1
  C  1315  1  0.82244800  0.56179900  0.14885200  1
  C  1316  1  0.83331000  0.57295200  0.13307400  1
  C  1317  1  0.82225600  0.58880700  0.12221600  1
  C  1320  1  0.80071700  0.59323200  0.12701400  1
  C  1326  1  0.28740600  0.34440900  0.36174800  1
  C  1327  1  0.29820200  0.36031400  0.35074300  1
  C  1328  1  0.31974600  0.36508800  0.35534500  1
  C  1329  1  0.33091200  0.35395100  0.37093200  1
  C  1330  1  0.32015300  0.33792900  0.38182600  1
  C  1333  1  0.29860000  0.33333333  0.37726200  1
  C  1339  1  0.03890500  0.07303600  0.87110600  1
  C  1340  1  0.04986600  0.06212300  0.85529000  1
  C  1341  1  0.07135600  0.06697900  0.85051900  1
  C  1342  1  0.08229700  0.08273400  0.86156700  1
  C  1343  1  0.07136500  0.09354900  0.87748700  1
  C  1346  1  0.04986400  0.08873300  0.88207700  1
  C  1352  1  0.53844000  0.85482600  0.63409400  1
  C  1353  1  0.54939900  0.86587800  0.64981600  1
  C  1354  1  0.57098000  0.86125500  0.65443600  1
  C  1355  1  0.58201800  0.84561400  0.64331500  1
  C  1356  1  0.57109200  0.83468000  0.62747200  1
  C  1359  1  0.54950300  0.83925800  0.62303800  1
  C  1365  1  0.58208500  0.58178500  0.36090900  1
  C  1366  1  0.57110200  0.56596100  0.35002400  1
  C  1367  1  0.54956100  0.56131800  0.35479100  1
  C  1368  1  0.53859400  0.57250500  0.37043000  1
  C  1369  1  0.54953100  0.58846300  0.38118300  1
  C  1372  1  0.57107900  0.59292700  0.37645300  1
  C  1378  1  0.08206000  0.34467900  0.14335800  1
  C  1379  1  0.07108000  0.36054000  0.15419300  1
  C  1380  1  0.04956400  0.36522200  0.14935900  1
  C  1381  1  0.03861400  0.35403200  0.13371100  1
  C  1382  1  0.04955700  0.33805400  0.12299000  1
  C  1385  1  0.07108400  0.33355500  0.12778100  1
  C  1391  1  0.33098500  0.07300000  0.63338200  1
  C  1392  1  0.31980500  0.06214000  0.64914000  1
  C  1393  1  0.29831300  0.06713900  0.65373100  1
  C  1394  1  0.28757400  0.08297600  0.64254800  1
  C  1395  1  0.29870900  0.09371000  0.62666200  1
  C  1398  1  0.32021300  0.08875000  0.62225100  1
  C  1404  1  0.83245200  0.85512900  0.87165800  1
  C  1405  1  0.82161800  0.86600300  0.85568900  1
  C  1406  1  0.80007700  0.86132100  0.85097300  1
  C  1407  1  0.78896700  0.84577600  0.86222000  1
  C  1408  1  0.79975600  0.83504100  0.87832700  1
  C  1411  1  0.82130500  0.83968200  0.88286600  1
  C  1417  1  0.08178000  0.34526200  0.86139900  1
  C  1418  1  0.07077400  0.36107500  0.85045800  1
  C  1419  1  0.04931800  0.36587500  0.85540400  1
  C  1420  1  0.03845500  0.35486100  0.87127900  1
  C  1421  1  0.04942800  0.33893800  0.88211500  1
  C  1424  1  0.07089600  0.33432000  0.87721000  1
  C  1430  1  0.58122000  0.58276100  0.64238900  1
  C  1431  1  0.56993900  0.56738600  0.65368700  1
  C  1432  1  0.54848200  0.56264300  0.64868400  1
  C  1433  1  0.53788700  0.57328400  0.63239000  1
  C  1434  1  0.54913600  0.58876600  0.62118600  1
  C  1437  1  0.57060500  0.59332200  0.62615400  1
  C  1443  1  0.83215500  0.85373500  0.13348800  1
  C  1444  1  0.82115400  0.86483400  0.14914800  1
  C  1445  1  0.79967400  0.85998400  0.15397600  1
  C  1446  1  0.78878700  0.84404400  0.14314300  1
  C  1447  1  0.79975900  0.83304800  0.12737400  1
  C  1450  1  0.82124900  0.83785700  0.12273200  1
  C  1456  1  0.33209600  0.07309800  0.37094800  1
  C  1457  1  0.32087000  0.06172400  0.35563600  1
  C  1458  1  0.29938100  0.06661100  0.35088500  1
  C  1459  1  0.28870200  0.08284900  0.36146300  1
  C  1460  1  0.29989900  0.09412500  0.37688100  1
  C  1463  1  0.32140100  0.08928300  0.38143900  1
  C  1469  1  0.28894400  0.34479600  0.64276900  1
  C  1470  1  0.30000400  0.36053200  0.65370600  1
  C  1471  1  0.32145400  0.36533700  0.64870800  1
  C  1472  1  0.33225100  0.35440500  0.63277800  1
  C  1473  1  0.32123200  0.33853700  0.62196700  1
  C  1476  1  0.29977200  0.33391900  0.62692100  1
  C  1482  1  0.78910600  0.58317800  0.86129200  1
  C  1483  1  0.80026900  0.56755400  0.85029100  1
  C  1484  1  0.82176200  0.56288300  0.85524400  1
  C  1485  1  0.83251000  0.57384200  0.87118400  1
  C  1486  1  0.82138000  0.58958100  0.88207800  1
  C  1489  1  0.79987600  0.59406700  0.87716800  1
  C  1495  1  0.53827500  0.85395800  0.37145500  1
  C  1496  1  0.54942500  0.86525800  0.35599200  1
  C  1497  1  0.57085300  0.86027600  0.35110700  1
  C  1498  1  0.58154200  0.84401100  0.36170000  1
  C  1499  1  0.57043300  0.83282500  0.37728800  1
  C  1502  1  0.54899400  0.83777000  0.38198800  1
  C  1508  1  0.03860700  0.07222400  0.13368600  1
  C  1509  1  0.04960600  0.06135500  0.14955300  1
  C  1510  1  0.07107800  0.06628600  0.15430600  1
  C  1511  1  0.08195700  0.08208100  0.14319600  1
  C  1512  1  0.07100000  0.09282700  0.12720200  1
  C  1515  1  0.04951900  0.08793500  0.12262900  1
  C  1521  1  0.90899600  0.69151500  0.07595600  1
  C  1522  1  0.89900100  0.70262800  0.09224700  1
  C  1523  1  0.89746500  0.72454100  0.09151800  1
  C  1524  1  0.90578700  0.73590600  0.07444500  1
  C  1525  1  0.91532600  0.72470100  0.05793200  1
  C  1528  1  0.91716700  0.70286600  0.05892300  1
  C  1534  1  0.41032800  0.23569700  0.42665400  1
  C  1535  1  0.39634900  0.22437500  0.41357600  1
  C  1536  1  0.39637500  0.20238400  0.41382400  1
  C  1537  1  0.41034700  0.19130600  0.42717800  1
  C  1538  1  0.42393500  0.20267100  0.44061500  1
  C  1541  1  0.42397500  0.22456200  0.44015300  1
  C  1547  1  0.16111100  0.13804900  0.98012100  1
  C  1548  1  0.14662500  0.12533900  0.99131500  1
  C  1549  1  0.14655200  0.12539200  0.01331500  1
  C  1550  1  0.16088800  0.13821700  0.02453200  1
  C  1551  1  0.17499200  0.15129300  0.01328100  1
  C  1554  1  0.17513300  0.15102100  0.99138800  1
  C  1560  1  0.66088200  0.78952900  0.52486300  1
  C  1561  1  0.64616100  0.80181700  0.51349300  1
  C  1562  1  0.64613000  0.80148500  0.49150100  1
  C  1563  1  0.66078300  0.78883400  0.48047700  1
  C  1564  1  0.67519300  0.77623300  0.49190200  1
  C  1567  1  0.67527800  0.77678200  0.51378500  1
  C  1573  1  0.45988900  0.69101500  0.42657300  1
  C  1574  1  0.47439200  0.70235900  0.41401800  1
  C  1575  1  0.47433600  0.72435200  0.41421000  1
  C  1576  1  0.45982400  0.73538900  0.42700200  1
  C  1577  1  0.44572900  0.72399600  0.43995500  1
  C  1580  1  0.44570900  0.70211200  0.43952700  1
  C  1586  1  0.95981700  0.23544300  0.07811400  1
  C  1587  1  0.97404600  0.22421600  0.09106800  1
  C  1588  1  0.97397500  0.20221900  0.09110900  1
  C  1589  1  0.95979300  0.19103200  0.07809900  1
  C  1590  1  0.94595500  0.20231000  0.06478100  1
  C  1593  1  0.94593100  0.22420600  0.06498100  1
  C  1599  1  0.21205900  0.14032000  0.52380700  1
  C  1600  1  0.22217300  0.12405300  0.51276400  1
  C  1601  1  0.22356500  0.12462100  0.49083800  1
  C  1602  1  0.21494800  0.14149200  0.47937700  1
  C  1603  1  0.20524100  0.15796700  0.49050300  1
  C  1606  1  0.20355100  0.15713200  0.51235700  1
  C  1612  1  0.70997800  0.78911300  0.98036400  1
  C  1613  1  0.72445400  0.80168600  0.99167300  1
  C  1614  1  0.72440400  0.80146200  0.01366600  1
  C  1615  1  0.70992200  0.78862900  0.02474500  1
  C  1616  1  0.69585800  0.77565600  0.01338600  1
  C  1619  1  0.69585100  0.77609200  0.99149800  1
  C  1625  1  0.95914700  0.23602500  0.92641200  1
  C  1626  1  0.97389500  0.22483500  0.91402900  1
  C  1627  1  0.97395300  0.20283600  0.91414400  1
  C  1628  1  0.95932100  0.19161600  0.92669400  1
  C  1629  1  0.94494200  0.20285600  0.93944500  1
  C  1632  1  0.94481700  0.22475000  0.93910000  1
  C  1638  1  0.46164900  0.69212000  0.57617100  1
  C  1639  1  0.47176200  0.70307600  0.59250100  1
  C  1640  1  0.47323900  0.72500100  0.59201500  1
  C  1641  1  0.46471200  0.73655100  0.57516300  1
  C  1642  1  0.45503700  0.72551200  0.55861200  1
  C  1645  1  0.45325700  0.70366200  0.55936700  1
  C  1651  1  0.41102800  0.23579500  0.57749100  1
  C  1652  1  0.39667000  0.22470000  0.59042300  1
  C  1653  1  0.39665400  0.20270100  0.59060900  1
  C  1654  1  0.41091800  0.19137900  0.57780200  1
  C  1655  1  0.42489000  0.20252300  0.56450300  1
  C  1658  1  0.42497400  0.22442200  0.56453500  1
  C  1664  1  0.90831900  0.69205900  0.92859700  1
  C  1665  1  0.89852500  0.70327400  0.91221700  1
  C  1666  1  0.89711100  0.72519200  0.91289900  1
  C  1667  1  0.90539600  0.73647900  0.92999400  1
  C  1668  1  0.91478600  0.72518400  0.94657200  1
  C  1671  1  0.91650100  0.70334100  0.94563000  1
  C  1677  1  0.66121100  0.63733300  0.47971100  1
  C  1678  1  0.64636100  0.62511600  0.49100400  1
  C  1679  1  0.64627300  0.62538000  0.51299800  1
  C  1680  1  0.66097000  0.63792100  0.52409500  1
  C  1681  1  0.67544300  0.65051800  0.51274700  1
  C  1684  1  0.67560800  0.65001100  0.49086200  1
  C  1690  1  0.16124600  0.28984400  0.02448000  1
  C  1691  1  0.14681100  0.30257600  0.01324600  1
  C  1692  1  0.14677400  0.30249100  0.99124800  1
  C  1693  1  0.16105600  0.28957700  0.98007200  1
  C  1694  1  0.17510700  0.27647800  0.99136100  1
  C  1697  1  0.17523100  0.27680300  0.01325300  1
  C  1703  1  0.71026200  0.63788400  0.02415700  1
  C  1704  1  0.72435900  0.62489800  0.01286500  1
  C  1705  1  0.72429500  0.62506000  0.99087300  1
  C  1706  1  0.71017700  0.63824300  0.97976600  1
  C  1707  1  0.69644600  0.65157000  0.99110000  1
  C  1710  1  0.69643200  0.65117700  0.01299100  1
  C  1716  1  0.21198500  0.28747300  0.48082100  1
  C  1717  1  0.22177600  0.30387000  0.49194600  1
  C  1718  1  0.22317500  0.30320900  0.51386900  1
  C  1719  1  0.21492100  0.28610300  0.52523100  1
  C  1720  1  0.20561600  0.26947500  0.51401200  1
  C  1723  1  0.20391800  0.27038700  0.49216300  1
  N  908  1  0.96262000  0.60414600  0.04367000  1
  N  909  1  0.96184500  0.60447700  0.96121300  1
  N  921  1  0.46095000  0.32413900  0.45968600  1
  N  922  1  0.46106900  0.32437300  0.54208800  1
  N  934  1  0.21132600  0.17271800  0.89166700  1
  N  935  1  0.21105000  0.25518900  0.89158300  1
  N  947  1  0.71098500  0.75556200  0.61323400  1
  N  948  1  0.71029800  0.67327300  0.61289500  1
  N  960  1  0.40931400  0.60294100  0.46052200  1
  N  961  1  0.40857400  0.60418200  0.54289900  1
  N  973  1  0.90981800  0.32408100  0.04294100  1
  N  974  1  0.90884500  0.32438100  0.96055800  1
  N  986  1  0.15902500  0.17379300  0.61110600  1
  N  987  1  0.15968600  0.25627600  0.61026700  1
  N  999  1  0.66004000  0.75506600  0.89165900  1
  N  1000  1  0.65988500  0.67275200  0.89154800  1
  N  1012  1  0.65996500  0.75373200  0.11309900  1
  N  1013  1  0.65992900  0.67121900  0.11274300  1
  N  1025  1  0.15972800  0.17169500  0.39448700  1
  N  1026  1  0.15879500  0.25402300  0.39380800  1
  N  1038  1  0.71043300  0.75336600  0.39177300  1
  N  1039  1  0.71158600  0.67090100  0.39148800  1
  N  1051  1  0.21073600  0.17308100  0.11310400  1
  N  1052  1  0.21146700  0.25533700  0.11290900  1
  N  1064  1  0.46093700  0.10277200  0.54452900  1
  N  1065  1  0.46054800  0.10292800  0.46212900  1
  N  1077  1  0.96045200  0.82070600  0.96121400  1
  N  1078  1  0.96051900  0.82071800  0.04365000  1
  N  1090  1  0.90965500  0.10276900  0.96143300  1
  N  1091  1  0.90955400  0.10285300  0.04378900  1
  N  1103  1  0.41019900  0.82177900  0.54443700  1
  N  1104  1  0.40966400  0.82306200  0.46204100  1
  N  1116  1  0.92003200  0.50366600  0.09923300  1
  N  1117  1  0.95098500  0.42310900  0.09816300  1
  N  1129  1  0.41804200  0.42369200  0.40390000  1
  N  1130  1  0.45010900  0.50379500  0.40511600  1
  N  1142  1  0.16866800  0.11687100  0.79166700  1
  N  1143  1  0.19960000  0.11826100  0.71109000  1
  N  1155  1  0.66905300  0.81223900  0.71286800  1
  N  1156  1  0.70087200  0.81094400  0.79308200  1
  N  1168  1  0.95172600  0.42453300  0.90516400  1
  N  1169  1  0.92057300  0.50503000  0.90643300  1
  N  1181  1  0.45113500  0.50402700  0.59833000  1
  N  1182  1  0.41998000  0.42352900  0.59710400  1
  N  1194  1  0.70193000  0.81007000  0.21289200  1
  N  1195  1  0.66973300  0.80882000  0.29296300  1
  N  1207  1  0.20106200  0.11629000  0.29267200  1
  N  1208  1  0.16973700  0.11747600  0.21223600  1
  N  1220  1  0.41797800  0.00304300  0.60082600  1
  N  1221  1  0.44925000  0.92256400  0.59991400  1
  N  1233  1  0.92012500  0.92337000  0.90504400  1
  N  1234  1  0.95117700  0.00390800  0.90610600  1
  N  1246  1  0.66934300  0.61487200  0.29166700  1
  N  1247  1  0.70122100  0.61611300  0.21146700  1
  N  1259  1  0.16860900  0.31094000  0.21293200  1
  N  1260  1  0.19926000  0.30949700  0.29360200  1
  N  1272  1  0.45163700  0.92370600  0.40569800  1
  N  1273  1  0.41988900  0.00393700  0.40679100  1
  N  1285  1  0.95203400  0.00256100  0.09991800  1
  N  1286  1  0.92090300  0.92205400  0.09870900  1
  N  1298  1  0.20123400  0.31153600  0.71198100  1
  N  1299  1  0.16977100  0.31040500  0.79237900  1
  N  1311  1  0.70181500  0.61657600  0.79164600  1
  N  1312  1  0.66952000  0.61779700  0.71158800  1
  N  1324  1  0.76988600  0.58808700  0.14653200  1
  N  1325  1  0.85327300  0.56919700  0.12711600  1
  N  1337  1  0.26745000  0.33834100  0.35819000  1
  N  1338  1  0.35088600  0.35790300  0.37672000  1
  N  1350  1  0.01898800  0.06924900  0.87716600  1
  N  1351  1  0.10221500  0.08872500  0.85764000  1
  N  1363  1  0.51842400  0.85835800  0.62819900  1
  N  1364  1  0.60201000  0.83978700  0.64714600  1
  N  1376  1  0.60209600  0.58764700  0.35727900  1
  N  1377  1  0.51868400  0.56858900  0.37644600  1
  N  1389  1  0.10204300  0.33877200  0.14705600  1
  N  1390  1  0.01871300  0.35794100  0.12766500  1
  N  1402  1  0.35093900  0.06911000  0.62751700  1
  N  1403  1  0.26770500  0.08917100  0.64637800  1
  N  1415  1  0.85248500  0.85859000  0.87752600  1
  N  1416  1  0.76906300  0.83980400  0.85822600  1
  N  1428  1  0.10168500  0.33920700  0.85757400  1
  N  1429  1  0.01857900  0.35882600  0.87736500  1
  N  1441  1  0.60108600  0.58885500  0.64634200  1
  N  1442  1  0.51796700  0.56945400  0.62634400  1
  N  1454  1  0.85208800  0.85743500  0.12742700  1
  N  1455  1  0.76887700  0.83805800  0.14712100  1
  N  1467  1  0.35195800  0.06921700  0.37710800  1
  N  1468  1  0.26871000  0.08871600  0.35770700  1
  N  1480  1  0.26901800  0.33878800  0.64658400  1
  N  1481  1  0.35211500  0.35837200  0.62663900  1
  N  1493  1  0.76914500  0.58909300  0.85747700  1
  N  1494  1  0.85241500  0.56999000  0.87727800  1
  N  1506  1  0.51843500  0.85786000  0.37765900  1
  N  1507  1  0.60140400  0.83793300  0.35768400  1
  N  1519  1  0.01866200  0.06845500  0.12771900  1
  N  1520  1  0.10181700  0.08820600  0.14716200  1
  N  1532  1  0.91366300  0.67130100  0.07661000  1
  N  1533  1  0.90641900  0.75663800  0.07316900  1
  N  1545  1  0.41362900  0.25609100  0.42567000  1
  N  1546  1  0.41352000  0.17087700  0.42646200  1
  N  1558  1  0.16434700  0.13731900  0.95969800  1
  N  1559  1  0.16384300  0.13735400  0.04499900  1
  N  1571  1  0.66407400  0.79056200  0.54526300  1
  N  1572  1  0.66372500  0.78947200  0.46001300  1
  N  1584  1  0.45669100  0.67061700  0.42561100  1
  N  1585  1  0.45673500  0.75582300  0.42620600  1
  N  1597  1  0.95666900  0.25588000  0.07875100  1
  N  1598  1  0.95666300  0.17059400  0.07904300  1
  N  1610  1  0.20750800  0.13979700  0.54404500  1
  N  1611  1  0.21426200  0.14263200  0.45863300  1
  N  1623  1  0.70684100  0.79002900  0.95994300  1
  N  1624  1  0.70685100  0.78938200  0.04518500  1
  N  1636  1  0.95597300  0.25645500  0.92559800  1
  N  1637  1  0.95642400  0.17114200  0.92588800  1
  N  1649  1  0.45708900  0.67187300  0.57659600  1
  N  1650  1  0.46413900  0.75730200  0.57407600  1
  N  1662  1  0.41423200  0.25623100  0.57801200  1
  N  1663  1  0.41398000  0.17093600  0.57893100  1
  N  1675  1  0.91289500  0.67182700  0.92800700  1
  N  1676  1  0.90607100  0.75721300  0.93125700  1
  N  1688  1  0.66445600  0.63631600  0.45931800  1
  N  1689  1  0.66383200  0.63723100  0.54456900  1
  N  1701  1  0.16448600  0.29063100  0.04489900  1
  N  1702  1  0.16406600  0.29042700  0.95961200  1
  N  1714  1  0.70697900  0.63694300  0.04455800  1
  N  1715  1  0.70699500  0.63743100  0.95934100  1
  N  1727  1  0.20742000  0.28802800  0.46058600  1
  N  1728  1  0.21415800  0.28488400  0.54596400  1
  O  17  1  0.92820300  0.55741400  0.06896700  1
  O  18  1  0.88688600  0.61610100  0.09500600  1
  O  45  1  0.42611200  0.37028000  0.43431600  1
  O  46  1  0.38492000  0.31146300  0.40883200  1
  O  73  1  0.17680500  0.14717200  0.84527600  1
  O  74  1  0.13566100  0.12107600  0.90407700  1
  O  101  1  0.67670000  0.78158400  0.65958000  1
  O  102  1  0.63549100  0.80732400  0.60075300  1
  O  129  1  0.44451500  0.55646900  0.43520000  1
  O  130  1  0.48530800  0.61512400  0.40896100  1
  O  157  1  0.94520300  0.37019300  0.06821200  1
  O  158  1  0.98544300  0.31137600  0.09521500  1
  O  185  1  0.19380000  0.14834600  0.65801900  1
  O  186  1  0.23439500  0.12144000  0.59930400  1
  O  213  1  0.69534200  0.78068600  0.84573300  1
  O  214  1  0.73564900  0.80704300  0.90458300  1
  O  241  1  0.94347900  0.37080700  0.93536600  1
  O  242  1  0.98486300  0.31214100  0.90962700  1
  O  269  1  0.44308500  0.55780600  0.56815100  1
  O  270  1  0.48417400  0.61659700  0.59456400  1
  O  297  1  0.69439400  0.77950200  0.15957100  1
  O  298  1  0.73555300  0.80553700  0.10081300  1
  O  325  1  0.19304700  0.14633700  0.34657300  1
  O  326  1  0.23676000  0.12147800  0.40396900  1
  O  353  1  0.42579100  0.37059700  0.56719200  1
  O  354  1  0.38536700  0.31182300  0.59408800  1
  O  381  1  0.92651000  0.55797200  0.93632800  1
  O  382  1  0.88593800  0.61681400  0.90959300  1
  O  409  1  0.67506800  0.77871600  0.34572700  1
  O  410  1  0.63470100  0.80550300  0.40440600  1
  O  437  1  0.17539400  0.14761100  0.15931400  1
  O  438  1  0.13506400  0.12081100  0.10054700  1
  O  465  1  0.42644600  0.05649900  0.57031900  1
  O  466  1  0.38512000  0.11550300  0.59557700  1
  O  493  1  0.92801200  0.86930200  0.93519700  1
  O  494  1  0.88408100  0.81215100  0.91011700  1
  O  521  1  0.67732400  0.64530700  0.34503900  1
  O  522  1  0.63578300  0.61991200  0.40375200  1
  O  549  1  0.17697500  0.28081300  0.15928100  1
  O  550  1  0.13580200  0.30686800  0.10048400  1
  O  577  1  0.94507000  0.05675500  0.93614500  1
  O  578  1  0.98548000  0.11567400  0.90964000  1
  O  605  1  0.44351300  0.86933800  0.57002400  1
  O  606  1  0.48658000  0.81185500  0.59563700  1
  O  633  1  0.69515400  0.64609700  0.15871100  1
  O  634  1  0.73586100  0.62016200  0.09990900  1
  O  661  1  0.19334300  0.27951500  0.34673200  1
  O  662  1  0.23401100  0.30650700  0.40539200  1
  O  689  1  0.44382500  0.87016300  0.43617200  1
  O  690  1  0.48522600  0.81163900  0.41019200  1
  O  717  1  0.94389800  0.05621600  0.06955200  1
  O  718  1  0.98515300  0.11493100  0.09551000  1
  O  745  1  0.19294100  0.28156300  0.65815000  1
  O  746  1  0.23681900  0.30595800  0.60069900  1
  O  773  1  0.69411500  0.64702100  0.84498600  1
  O  774  1  0.73552700  0.62116800  0.90373200  1
  O  801  1  0.92693700  0.86881500  0.06890600  1
  O  802  1  0.88379600  0.81140600  0.09432300  1
  O  829  1  0.42538400  0.05667000  0.43675000  1
  O  830  1  0.38500100  0.11535200  0.40987100  1
  O  857  1  0.17580200  0.28038600  0.84531100  1
  O  858  1  0.13518000  0.30675700  0.90405700  1
  O  885  1  0.67504200  0.64782900  0.65889700  1
  O  886  1  0.63466400  0.62121200  0.60008400  1
  O  906  1  0.95112000  0.56892400  0.98179100  1
  O  919  1  0.45014800  0.35980000  0.52137400  1
  O  932  1  0.20023000  0.23461600  0.85614100  1
  O  945  1  0.69935000  0.69370600  0.64839500  1
  O  958  1  0.41923800  0.56821600  0.52303200  1
  O  971  1  0.91986500  0.35981500  0.98099700  1
  O  984  1  0.16971700  0.23587700  0.64611100  1
  O  997  1  0.67063200  0.69336600  0.85595700  1
  O  1010  1  0.67101600  0.69156000  0.14824700  1
  O  1023  1  0.16899700  0.23338100  0.35819000  1
  O  1036  1  0.70030300  0.69151100  0.35612600  1
  O  1049  1  0.20052800  0.23491300  0.14850000  1
  O  1062  1  0.44993400  0.06729000  0.48276700  1
  O  1075  1  0.95122700  0.85661700  0.02303600  1
  O  1088  1  0.92042800  0.06735400  0.02335200  1
  O  1101  1  0.41976700  0.85854700  0.48303100  1
  O  1114  1  0.95364400  0.44836900  0.06057400  1
  O  1127  1  0.45287800  0.47826100  0.44249500  1
  O  1140  1  0.20230500  0.15571800  0.73634800  1
  O  1153  1  0.70363500  0.77354900  0.76767800  1
  O  1166  1  0.91785500  0.47963000  0.94390900  1
  O  1179  1  0.41763900  0.44878000  0.55948700  1
  O  1192  1  0.66737400  0.77131300  0.26768400  1
  O  1205  1  0.16662700  0.15484100  0.23760700  1
  O  1218  1  0.45181200  0.94775400  0.56231500  1
  O  1231  1  0.95431400  0.97847600  0.94352600  1
  O  1244  1  0.70398100  0.65350800  0.23683300  1
  O  1257  1  0.20193500  0.27201500  0.26837200  1
  O  1270  1  0.41723100  0.97854200  0.44429700  1
  O  1283  1  0.91858700  0.94725500  0.06110900  1
  O  1296  1  0.16681400  0.27299700  0.76706400  1
  O  1309  1  0.66701200  0.65525200  0.73693700  1
  O  1322  1  0.83180600  0.59969000  0.10655500  1
  O  1335  1  0.33000300  0.32705700  0.39731800  1
  O  1348  1  0.08099700  0.10918800  0.88827000  1
  O  1361  1  0.58080800  0.81912300  0.61664100  1
  O  1374  1  0.53988100  0.59935800  0.39673200  1
  O  1387  1  0.03992500  0.32715500  0.10743300  1
  O  1400  1  0.28929300  0.10943800  0.61576600  1
  O  1413  1  0.78996900  0.81957200  0.88928700  1
  O  1426  1  0.03987700  0.32818800  0.89786700  1
  O  1439  1  0.53984600  0.59915900  0.60505300  1
  O  1452  1  0.79018200  0.81722900  0.11680900  1
  O  1465  1  0.29048200  0.11018300  0.38721700  1
  O  1478  1  0.33071800  0.32787200  0.60616600  1
  O  1491  1  0.83080900  0.60026700  0.89789900  1
  O  1504  1  0.57982300  0.81671300  0.38763000  1
  O  1517  1  0.08056900  0.10850900  0.11636500  1
  O  1530  1  0.92443500  0.73473800  0.04149100  1
  O  1543  1  0.43845500  0.19293700  0.45311000  1
  O  1556  1  0.18980900  0.16331100  0.02314600  1
  O  1569  1  0.69032600  0.76444300  0.48221300  1
  O  1582  1  0.43075100  0.73370100  0.45191500  1
  O  1595  1  0.93125800  0.19248200  0.05259600  1
  O  1608  1  0.19583500  0.17420000  0.48039000  1
  O  1621  1  0.68093900  0.76362100  0.02313200  1
  O  1634  1  0.92988200  0.19298400  0.95121000  1
  O  1647  1  0.44574800  0.73571100  0.54236800  1
  O  1660  1  0.43965200  0.19256400  0.55249900  1
  O  1673  1  0.92387600  0.73513400  0.96303600  1
  O  1686  1  0.69058600  0.66223400  0.52250800  1
  O  1699  1  0.18989400  0.26439600  0.98153300  1
  O  1712  1  0.68177500  0.66387800  0.98134000  1
  O  1725  1  0.19658900  0.25298600  0.52403700  1
