# generated using pymatgen
data_H10C13N5
_symmetry_space_group_name_H-M   'P 1'
_cell_length_a   46.66800000
_cell_length_b   46.87100000
_cell_length_c   93.83330000
_cell_angle_alpha   90.00000000
_cell_angle_beta   90.00000000
_cell_angle_gamma   90.00000000
_symmetry_Int_Tables_number   1
_chemical_formula_structural   H10C13N5
_chemical_formula_sum   'H640 C832 N320'
_cell_volume   205248.69228147
_cell_formula_units_Z   64
loop_
 _symmetry_equiv_pos_site_id
 _symmetry_equiv_pos_as_xyz
  1  'x, y, z'
loop_
 _atom_site_type_symbol
 _atom_site_label
 _atom_site_symmetry_multiplicity
 _atom_site_fract_x
 _atom_site_fract_y
 _atom_site_fract_z
 _atom_site_occupancy
  H  7  1  0.15308100  0.06769100  0.04021300  1
  H  8  1  0.06868800  0.06688000  0.02590900  1
  H  15  1  0.20863100  0.13256100  0.08539800  1
  H  16  1  0.13752800  0.14528100  0.05918800  1
  H  19  1  0.09977100  0.12327000  0.07322100  1
  H  20  1  0.06776800  0.12606100  0.06600500  1
  H  21  1  0.17811300  0.04088100  0.07202500  1
  H  22  1  0.14789100  0.04507000  0.06345900  1
  H  33  1  0.28074700  0.94089900  0.54021300  1
  H  34  1  0.36514300  0.94172200  0.52591000  1
  H  41  1  0.22519100  0.87603500  0.58539300  1
  H  42  1  0.29629500  0.86331800  0.55919000  1
  H  45  1  0.33406000  0.88531400  0.57322000  1
  H  46  1  0.36606000  0.88253000  0.56600200  1
  H  47  1  0.25571100  0.96771300  0.57202500  1
  H  48  1  0.28593300  0.96352700  0.56346000  1
  H  59  1  0.15324400  0.94073900  0.29021500  1
  H  60  1  0.15406900  0.85670800  0.27589800  1
  H  67  1  0.08809000  0.99605400  0.33539500  1
  H  68  1  0.07531900  0.92526000  0.30918800  1
  H  71  1  0.09740600  0.88765500  0.32321800  1
  H  72  1  0.09461900  0.85578600  0.31600400  1
  H  73  1  0.18017000  0.96566600  0.32203000  1
  H  74  1  0.17595700  0.93557100  0.31346300  1
  H  85  1  0.28059300  0.06787600  0.79019500  1
  H  86  1  0.27976800  0.15189300  0.77589400  1
  H  93  1  0.34578700  0.01279900  0.83560800  1
  H  94  1  0.35864600  0.08347500  0.80919000  1
  H  97  1  0.33640800  0.12093100  0.82321900  1
  H  98  1  0.33920700  0.15280900  0.81601100  1
  H  99  1  0.25368300  0.04297600  0.82183300  1
  H  100  1  0.25792600  0.07331900  0.81352100  1
  H  111  1  0.28069100  0.06811400  0.43665100  1
  H  112  1  0.36497200  0.06724000  0.45103600  1
  H  119  1  0.22537900  0.13217300  0.39099400  1
  H  120  1  0.29597200  0.14483400  0.41742600  1
  H  123  1  0.33395500  0.12328700  0.40353300  1
  H  124  1  0.36599200  0.12605800  0.41073800  1
  H  125  1  0.25536800  0.04053500  0.40460400  1
  H  126  1  0.28570500  0.04506800  0.41317500  1
  H  137  1  0.15311600  0.94047000  0.93664600  1
  H  138  1  0.06884400  0.94134700  0.95102600  1
  H  145  1  0.20844200  0.87642200  0.89099300  1
  H  146  1  0.13785300  0.86375900  0.91742500  1
  H  149  1  0.09986800  0.88529700  0.90352800  1
  H  150  1  0.06783600  0.88252100  0.91073800  1
  H  151  1  0.17845300  0.96806000  0.90460100  1
  H  152  1  0.14811600  0.96352900  0.91317400  1
  H  163  1  0.28100800  0.94078500  0.18665400  1
  H  164  1  0.28013000  0.85686600  0.20103900  1
  H  171  1  0.34535400  0.99587700  0.14099600  1
  H  172  1  0.35805700  0.92558200  0.16742700  1
  H  175  1  0.33643400  0.88776100  0.15353200  1
  H  176  1  0.33920900  0.85585900  0.16073700  1
  H  177  1  0.25330400  0.96600600  0.15459900  1
  H  178  1  0.25786200  0.93580200  0.16317400  1
  H  189  1  0.15281100  0.06781200  0.68664200  1
  H  190  1  0.15369600  0.15172300  0.70104100  1
  H  197  1  0.08847700  0.01271400  0.64099300  1
  H  198  1  0.07576300  0.08301000  0.66742500  1
  H  201  1  0.09739100  0.12084100  0.65353000  1
  H  202  1  0.09462100  0.15274400  0.66073400  1
  H  203  1  0.18052100  0.04258700  0.65460200  1
  H  204  1  0.17597100  0.07279200  0.66317600  1
  H  215  1  0.77624700  0.94088800  0.93655600  1
  H  216  1  0.86045500  0.94121200  0.95103100  1
  H  223  1  0.72099100  0.87599900  0.89109100  1
  H  224  1  0.79203100  0.86322200  0.91756900  1
  H  227  1  0.82968400  0.88511800  0.90352400  1
  H  228  1  0.86172300  0.88270500  0.91072600  1
  H  229  1  0.75149800  0.96781300  0.90492000  1
  H  230  1  0.78188100  0.96343700  0.91321700  1
  H  241  1  0.65757300  0.06770900  0.43655500  1
  H  242  1  0.57337400  0.06738700  0.45103400  1
  H  249  1  0.71284400  0.13259700  0.39109700  1
  H  250  1  0.64179500  0.14537500  0.41756900  1
  H  253  1  0.60414000  0.12350100  0.40352800  1
  H  254  1  0.57210500  0.12591200  0.41073100  1
  H  255  1  0.68232600  0.04078500  0.40491900  1
  H  256  1  0.65194400  0.04516000  0.41321900  1
  H  267  1  0.78052400  0.06788700  0.68655600  1
  H  268  1  0.77974800  0.15192000  0.70085900  1
  H  275  1  0.84483800  0.01238300  0.64134600  1
  H  276  1  0.85879400  0.08311800  0.66757700  1
  H  279  1  0.83640000  0.12096600  0.65352900  1
  H  280  1  0.83922200  0.15283000  0.66074400  1
  H  281  1  0.75334100  0.04300200  0.65474600  1
  H  282  1  0.75755300  0.07312900  0.66331800  1
  H  293  1  0.65328900  0.94069200  0.18657600  1
  H  294  1  0.65407300  0.85667600  0.20086600  1
  H  301  1  0.58891700  0.99597300  0.14114200  1
  H  302  1  0.57487600  0.92534700  0.16757900  1
  H  305  1  0.59743700  0.88763500  0.15353000  1
  H  306  1  0.59460700  0.85576100  0.16073900  1
  H  307  1  0.68044700  0.96554500  0.15494600  1
  H  308  1  0.67621500  0.93516200  0.16325500  1
  H  319  1  0.65760300  0.94043800  0.54006900  1
  H  320  1  0.57352100  0.94083500  0.52551200  1
  H  327  1  0.71253100  0.87655400  0.58571600  1
  H  328  1  0.64208000  0.86362100  0.55927100  1
  H  331  1  0.60420800  0.88510700  0.57321300  1
  H  332  1  0.57214100  0.88269600  0.56602600  1
  H  333  1  0.68256000  0.96815000  0.57198700  1
  H  334  1  0.65217700  0.96368000  0.56351200  1
  H  345  1  0.77623600  0.06816700  0.04007200  1
  H  346  1  0.86030300  0.06777900  0.02552300  1
  H  353  1  0.72129900  0.13204500  0.08571900  1
  H  354  1  0.79174600  0.14497800  0.05927100  1
  H  357  1  0.82960900  0.12352100  0.07321400  1
  H  358  1  0.86167400  0.12592400  0.06603100  1
  H  359  1  0.75127100  0.04044800  0.07198900  1
  H  360  1  0.78165100  0.04491600  0.06351300  1
  H  371  1  0.65287600  0.06783900  0.79006800  1
  H  372  1  0.65369200  0.15176100  0.77569500  1
  H  379  1  0.58904600  0.01273700  0.83563900  1
  H  380  1  0.57534700  0.08281000  0.80925000  1
  H  383  1  0.59742400  0.12088000  0.82321700  1
  H  384  1  0.59459400  0.15275900  0.81600300  1
  H  385  1  0.68072600  0.04258300  0.82215300  1
  H  386  1  0.67626400  0.07284300  0.81356300  1
  H  397  1  0.78095900  0.94076000  0.29007800  1
  H  398  1  0.78012600  0.85684700  0.27569000  1
  H  405  1  0.84488500  0.99579000  0.33566700  1
  H  406  1  0.85845300  0.92571900  0.30927300  1
  H  409  1  0.83640000  0.88770600  0.32321900  1
  H  410  1  0.83922200  0.85582700  0.31600300  1
  H  411  1  0.75310700  0.96602100  0.32214700  1
  H  412  1  0.75756000  0.93575500  0.31356100  1
  H  423  1  0.65740500  0.56980200  0.54018800  1
  H  424  1  0.57301400  0.56903100  0.52589300  1
  H  431  1  0.71311000  0.63394600  0.58537300  1
  H  432  1  0.64205000  0.64766400  0.55912500  1
  H  435  1  0.60408400  0.62541600  0.57321900  1
  H  436  1  0.57209000  0.62823600  0.56599900  1
  H  437  1  0.68239700  0.54274400  0.57199600  1
  H  438  1  0.65214300  0.54692800  0.56342400  1
  H  449  1  0.77642500  0.43879500  0.04018600  1
  H  450  1  0.86082100  0.43956100  0.02589600  1
  H  457  1  0.72067600  0.37475800  0.08538600  1
  H  458  1  0.79172700  0.36087100  0.05916300  1
  H  461  1  0.82974000  0.38317300  0.07321900  1
  H  462  1  0.86173000  0.38034800  0.06599600  1
  H  463  1  0.75142700  0.46586100  0.07199600  1
  H  464  1  0.78168600  0.46167500  0.06342400  1
  H  475  1  0.65324000  0.44306700  0.79020300  1
  H  476  1  0.65354800  0.35920700  0.77572400  1
  H  483  1  0.58807500  0.49822900  0.83539700  1
  H  484  1  0.57535100  0.42744700  0.80917500  1
  H  487  1  0.59719700  0.38985300  0.82322400  1
  H  488  1  0.59477600  0.35795900  0.81602200  1
  H  489  1  0.68019000  0.46786200  0.82203900  1
  H  490  1  0.67600300  0.43776900  0.81349200  1
  H  501  1  0.78060100  0.56555000  0.29018400  1
  H  502  1  0.78026900  0.64938800  0.27571700  1
  H  509  1  0.84580000  0.51062400  0.33561300  1
  H  510  1  0.85861800  0.58129100  0.30917900  1
  H  513  1  0.83661200  0.61874200  0.32322300  1
  H  514  1  0.83904000  0.65064900  0.31602300  1
  H  515  1  0.75366000  0.54078400  0.32184100  1
  H  516  1  0.75787900  0.57112400  0.31354900  1
  H  527  1  0.77634400  0.56997200  0.93674800  1
  H  528  1  0.86051700  0.56904200  0.95110800  1
  H  535  1  0.72116900  0.63333300  0.89105000  1
  H  536  1  0.79154900  0.64743000  0.91750800  1
  H  539  1  0.82964300  0.62533700  0.90360000  1
  H  540  1  0.86165900  0.62813600  0.91080700  1
  H  541  1  0.75140400  0.54230500  0.90481100  1
  H  542  1  0.78180800  0.54683000  0.91330300  1
  H  553  1  0.65746500  0.43861600  0.43674700  1
  H  554  1  0.57329600  0.43954200  0.45110000  1
  H  561  1  0.71276500  0.37549400  0.39107100  1
  H  562  1  0.64238900  0.36103700  0.41749700  1
  H  565  1  0.60418100  0.38324900  0.40359700  1
  H  566  1  0.57217100  0.38044400  0.41080600  1
  H  567  1  0.68241600  0.46629600  0.40480700  1
  H  568  1  0.65201600  0.46177300  0.41330400  1
  H  579  1  0.78101900  0.44310700  0.68665700  1
  H  580  1  0.78066600  0.35937700  0.70121700  1
  H  587  1  0.84587700  0.49777400  0.64106200  1
  H  588  1  0.85804400  0.42765200  0.66748300  1
  H  591  1  0.83663100  0.38994200  0.65352700  1
  H  592  1  0.83905200  0.35802500  0.66072400  1
  H  593  1  0.75341300  0.46830400  0.65454400  1
  H  594  1  0.75782100  0.43807200  0.66312100  1
  H  605  1  0.65279800  0.56549200  0.18664400  1
  H  606  1  0.65316900  0.64921500  0.20121700  1
  H  613  1  0.58795500  0.51081600  0.14105900  1
  H  614  1  0.57577600  0.58093900  0.16748100  1
  H  617  1  0.59719900  0.61866300  0.15352300  1
  H  618  1  0.59478400  0.65058300  0.16072400  1
  H  619  1  0.68041300  0.54028700  0.15454700  1
  H  620  1  0.67601100  0.57052300  0.16312100  1
  H  631  1  0.28062900  0.43877800  0.43658200  1
  H  632  1  0.36483000  0.43905800  0.45104900  1
  H  639  1  0.22514800  0.37474500  0.39108700  1
  H  640  1  0.29615600  0.36075800  0.41758900  1
  H  643  1  0.33406600  0.38297400  0.40352800  1
  H  644  1  0.36610100  0.38052300  0.41073300  1
  H  645  1  0.25593300  0.46596100  0.40495200  1
  H  646  1  0.28634800  0.46157300  0.41325200  1
  H  657  1  0.15318600  0.56981000  0.93658800  1
  H  658  1  0.06899300  0.56954600  0.95104900  1
  H  665  1  0.20856200  0.63392700  0.89115500  1
  H  666  1  0.13763300  0.64784600  0.91759200  1
  H  669  1  0.09976200  0.62564400  0.90353200  1
  H  670  1  0.06773000  0.62809300  0.91073300  1
  H  671  1  0.17802700  0.54276400  0.90492800  1
  H  672  1  0.14751700  0.54694500  0.91322600  1
  H  683  1  0.28052800  0.56556000  0.18656500  1
  H  684  1  0.28026100  0.64941200  0.20104400  1
  H  691  1  0.34484900  0.51020400  0.14134200  1
  H  692  1  0.35876200  0.58093400  0.16759000  1
  H  695  1  0.33660100  0.61878300  0.15352900  1
  H  696  1  0.33906500  0.65067000  0.16073500  1
  H  697  1  0.25332300  0.54079900  0.15473100  1
  H  698  1  0.25751000  0.57092800  0.16328900  1
  H  709  1  0.15328200  0.44301800  0.68658500  1
  H  710  1  0.15356900  0.35918100  0.70104600  1
  H  717  1  0.08890200  0.49814800  0.64113700  1
  H  718  1  0.07490900  0.42753300  0.66758800  1
  H  721  1  0.09723700  0.38982100  0.65352700  1
  H  722  1  0.09477200  0.35792000  0.66073000  1
  H  723  1  0.18046000  0.46774900  0.65493000  1
  H  724  1  0.17625700  0.43737000  0.66322500  1
  H  735  1  0.15331300  0.43864200  0.04002000  1
  H  736  1  0.06932400  0.43901500  0.02545500  1
  H  743  1  0.20860700  0.37514400  0.08574600  1
  H  744  1  0.13809000  0.36136600  0.05927300  1
  H  747  1  0.09988100  0.38304700  0.07314900  1
  H  748  1  0.06784000  0.38063400  0.06594400  1
  H  749  1  0.17838300  0.46624100  0.07211500  1
  H  750  1  0.14802600  0.46170500  0.06355300  1
  H  761  1  0.28052400  0.56995700  0.54001900  1
  H  762  1  0.36450200  0.56959900  0.52546300  1
  H  769  1  0.22523800  0.63345900  0.58574800  1
  H  770  1  0.29574700  0.64720300  0.55926500  1
  H  773  1  0.33393500  0.62557800  0.57314900  1
  H  774  1  0.36597500  0.62798300  0.56594800  1
  H  775  1  0.25544700  0.54234800  0.57211800  1
  H  776  1  0.28580200  0.54688300  0.56355400  1
  H  787  1  0.15285600  0.56551500  0.29006200  1
  H  788  1  0.15316100  0.64924300  0.27551500  1
  H  795  1  0.08952500  0.51031700  0.33575400  1
  H  796  1  0.07540100  0.58053700  0.30931900  1
  H  799  1  0.09720500  0.61866300  0.32321100  1
  H  800  1  0.09476000  0.65058500  0.31602000  1
  H  801  1  0.18087400  0.54048900  0.32212100  1
  H  802  1  0.17630700  0.57071700  0.31356100  1
  H  813  1  0.28097400  0.44308200  0.79007200  1
  H  814  1  0.28065100  0.35935800  0.77551400  1
  H  821  1  0.34437100  0.49822900  0.83577100  1
  H  822  1  0.35838000  0.42801000  0.80932000  1
  H  825  1  0.33661200  0.38992300  0.82321300  1
  H  826  1  0.33905000  0.35800100  0.81601700  1
  H  827  1  0.25295100  0.46811000  0.82211500  1
  H  828  1  0.25750800  0.43788000  0.81356000  1
  H  839  1  0.19136700  0.27074900  0.09306200  1
  H  841  1  0.14542500  0.30881800  0.05097600  1
  H  842  1  0.12135800  0.28011300  0.04872400  1
  H  843  1  0.15489600  0.28005300  0.03977800  1
  H  845  1  0.15438800  0.18918500  0.05979600  1
  H  847  1  0.18359500  0.31288600  0.08548400  1
  H  854  1  0.24245100  0.73786900  0.59307800  1
  H  856  1  0.28839200  0.69977300  0.55098200  1
  H  857  1  0.31246000  0.72847300  0.54873100  1
  H  858  1  0.27892600  0.72853300  0.53978500  1
  H  860  1  0.27944000  0.81941000  0.55979400  1
  H  862  1  0.25027900  0.69571500  0.58546000  1
  H  869  1  0.94916000  0.97895200  0.34309800  1
  H  871  1  0.91108900  0.93304700  0.30091700  1
  H  872  1  0.93995200  0.90917700  0.29873900  1
  H  873  1  0.94000600  0.94256100  0.28979300  1
  H  875  1  0.03121200  0.94204000  0.30979500  1
  H  877  1  0.90719300  0.97037300  0.33495800  1
  H  884  1  0.48463600  0.02977300  0.84323500  1
  H  886  1  0.52272900  0.07554100  0.80086800  1
  H  887  1  0.49389300  0.09942000  0.79877100  1
  H  888  1  0.49382200  0.06607500  0.78979800  1
  H  890  1  0.40264600  0.06651200  0.80977400  1
  H  892  1  0.52651700  0.04004700  0.83443800  1
  H  899  1  0.24245900  0.27066200  0.38366100  1
  H  901  1  0.28838600  0.30879400  0.42576100  1
  H  902  1  0.31246700  0.28011500  0.42802100  1
  H  903  1  0.27893200  0.28005300  0.43696700  1
  H  905  1  0.27933700  0.18898200  0.41692300  1
  H  907  1  0.25011400  0.31268100  0.39134400  1
  H  914  1  0.19138100  0.73794200  0.88366200  1
  H  916  1  0.14544000  0.69979700  0.92576000  1
  H  917  1  0.12136400  0.72847700  0.92801800  1
  H  918  1  0.15489700  0.72853900  0.93696400  1
  H  920  1  0.15448800  0.81961000  0.91692300  1
  H  922  1  0.18363300  0.69590100  0.89131800  1
  H  929  1  0.48443700  0.97886200  0.13366300  1
  H  931  1  0.52273500  0.93313500  0.17576200  1
  H  932  1  0.49393200  0.90915800  0.17802100  1
  H  933  1  0.49386900  0.94254800  0.18696800  1
  H  935  1  0.40240200  0.94213800  0.16692200  1
  H  937  1  0.52664400  0.97122000  0.14133800  1
  H  944  1  0.94940900  0.02975300  0.63366900  1
  H  946  1  0.91108900  0.07545700  0.67575900  1
  H  947  1  0.93989900  0.09944000  0.67801900  1
  H  948  1  0.93996100  0.06605100  0.68696900  1
  H  950  1  0.03142200  0.06645500  0.66692100  1
  H  952  1  0.90712900  0.03733900  0.64121700  1
  H  959  1  0.73811000  0.73788800  0.88368800  1
  H  961  1  0.78403600  0.69977700  0.92575900  1
  H  962  1  0.80811700  0.72847300  0.92802300  1
  H  963  1  0.77457600  0.72853500  0.93696900  1
  H  965  1  0.77505400  0.81938000  0.91696800  1
  H  967  1  0.74568200  0.69569600  0.89118100  1
  H  974  1  0.69570600  0.27086400  0.38350700  1
  H  976  1  0.64969800  0.30878600  0.42588400  1
  H  977  1  0.62572900  0.28007700  0.42797700  1
  H  978  1  0.65922300  0.28000700  0.43694700  1
  H  980  1  0.65876200  0.18922400  0.41696800  1
  H  982  1  0.68547000  0.31256400  0.39244300  1
  H  989  1  0.69561200  0.73819300  0.59300500  1
  H  991  1  0.64984400  0.69977100  0.55102400  1
  H  992  1  0.62567500  0.72844100  0.54870600  1
  H  993  1  0.65922700  0.72850300  0.53974700  1
  H  995  1  0.65884100  0.81957000  0.55981800  1
  H  997  1  0.68896000  0.69551900  0.58636300  1
  H  1004  1  0.73809200  0.27066600  0.09308400  1
  H  1006  1  0.78403600  0.30880500  0.05098300  1
  H  1007  1  0.80811000  0.28011700  0.04872800  1
  H  1008  1  0.77457600  0.28005600  0.03978100  1
  H  1010  1  0.77499100  0.18903700  0.05981500  1
  H  1012  1  0.74575700  0.31271300  0.08539400  1
  H  1019  1  0.44920700  0.48106500  0.84310400  1
  H  1021  1  0.41109100  0.43523700  0.80093500  1
  H  1022  1  0.43994000  0.41133700  0.79873700  1
  H  1023  1  0.44000000  0.44472400  0.78979300  1
  H  1025  1  0.53121800  0.44420800  0.80979600  1
  H  1027  1  0.40716100  0.47275900  0.83507900  1
  H  1034  1  0.98464900  0.52760300  0.34315200  1
  H  1036  1  0.02272800  0.57336700  0.30090500  1
  H  1037  1  0.99388000  0.59726800  0.29874900  1
  H  1038  1  0.99381400  0.56389200  0.28979600  1
  H  1040  1  0.90264400  0.56434200  0.30977500  1
  H  1042  1  0.02657700  0.53664000  0.33462200  1
  H  1049  1  0.98443900  0.48102800  0.63366200  1
  H  1051  1  0.02273600  0.43530100  0.67576200  1
  H  1052  1  0.99393200  0.41132400  0.67802200  1
  H  1053  1  0.99386900  0.44471400  0.68696700  1
  H  1055  1  0.90245100  0.44427900  0.66694000  1
  H  1057  1  0.02664300  0.47338400  0.64133700  1
  H  1064  1  0.44938100  0.52756900  0.13366100  1
  H  1066  1  0.41108700  0.57329800  0.17576300  1
  H  1067  1  0.43989200  0.59727300  0.17802100  1
  H  1068  1  0.43995700  0.56388300  0.18696800  1
  H  1070  1  0.53137300  0.56431900  0.16694000  1
  H  1072  1  0.40716100  0.53512600  0.14136100  1
  H  1079  1  0.94664900  0.06300400  0.05679100  1
  H  1081  1  0.90868000  0.13213500  0.02358300  1
  H  1082  1  0.93766800  0.12985800  0.01162900  1
  H  1083  1  0.93746500  0.15626100  0.02519200  1
  H  1085  1  0.03041300  0.11435200  0.02915500  1
  H  1087  1  0.90126400  0.07088700  0.04897300  1
  H  1094  1  0.48716200  0.94559200  0.55679800  1
  H  1096  1  0.52514600  0.87646200  0.52358400  1
  H  1097  1  0.49615800  0.87873900  0.51163200  1
  H  1098  1  0.49635900  0.85234100  0.52519600  1
  H  1100  1  0.40341100  0.89412800  0.52917800  1
  H  1102  1  0.53257300  0.93769800  0.54899700  1
  H  1109  1  0.15795300  0.73520900  0.30679600  1
  H  1111  1  0.08852000  0.69740300  0.27358400  1
  H  1112  1  0.09080700  0.72626500  0.26163100  1
  H  1113  1  0.06429100  0.72606400  0.27519500  1
  H  1115  1  0.10627900  0.81861600  0.27917700  1
  H  1117  1  0.15004000  0.69000400  0.29896800  1
  H  1124  1  0.27587900  0.27338400  0.80679800  1
  H  1126  1  0.34530500  0.31119600  0.77358400  1
  H  1127  1  0.34301900  0.28233400  0.76163000  1
  H  1128  1  0.36953800  0.28253700  0.77519400  1
  H  1130  1  0.32751100  0.18998000  0.77917000  1
  H  1132  1  0.28380000  0.31859800  0.79899400  1
  H  1139  1  0.48717100  0.06300800  0.41995000  1
  H  1141  1  0.52515000  0.13213800  0.45316400  1
  H  1142  1  0.49616200  0.12985700  0.46511500  1
  H  1143  1  0.49636200  0.15625700  0.45155000  1
  H  1145  1  0.40339600  0.11435600  0.44758200  1
  H  1147  1  0.53261300  0.07093400  0.42771300  1
  H  1154  1  0.94664400  0.94558400  0.91994500  1
  H  1156  1  0.90867400  0.87645600  0.95316500  1
  H  1157  1  0.93766400  0.87874100  0.96511500  1
  H  1158  1  0.93746500  0.85233900  0.95155000  1
  H  1160  1  0.03042900  0.89417500  0.94755900  1
  H  1162  1  0.90121100  0.93768300  0.92774200  1
  H  1169  1  0.27588300  0.73521500  0.16994500  1
  H  1171  1  0.34531200  0.69739600  0.20316500  1
  H  1172  1  0.34301900  0.72625900  0.21511400  1
  H  1173  1  0.36953400  0.72606000  0.20154900  1
  H  1175  1  0.32749200  0.81863300  0.19757200  1
  H  1177  1  0.28382800  0.68996500  0.17771700  1
  H  1184  1  0.15794700  0.27338400  0.66994600  1
  H  1186  1  0.08851400  0.31120100  0.70316500  1
  H  1187  1  0.09080400  0.28233600  0.71511500  1
  H  1188  1  0.06429300  0.28253500  0.70154800  1
  H  1190  1  0.10631700  0.18996600  0.69756800  1
  H  1192  1  0.14999400  0.31863400  0.67771500  1
  H  1199  1  0.77587000  0.27338800  0.66995300  1
  H  1201  1  0.84530300  0.31119200  0.70316100  1
  H  1202  1  0.84301700  0.28233200  0.71511500  1
  H  1203  1  0.86953400  0.28253000  0.70155000  1
  H  1205  1  0.82752200  0.18998800  0.69758000  1
  H  1207  1  0.78378500  0.31859300  0.67777900  1
  H  1214  1  0.65795000  0.73521300  0.16994800  1
  H  1216  1  0.58852100  0.69740100  0.20316000  1
  H  1217  1  0.59080500  0.72626100  0.21511400  1
  H  1218  1  0.56429000  0.72606200  0.20154900  1
  H  1220  1  0.60627600  0.81861000  0.19757200  1
  H  1222  1  0.65002800  0.68999700  0.17775200  1
  H  1229  1  0.65794800  0.27340500  0.80679200  1
  H  1231  1  0.58851500  0.31119600  0.77358000  1
  H  1232  1  0.59080700  0.28233400  0.76162900  1
  H  1233  1  0.56428600  0.28253700  0.77519300  1
  H  1235  1  0.60639600  0.18997700  0.77916300  1
  H  1237  1  0.65001900  0.31863000  0.79897600  1
  H  1244  1  0.77587900  0.73519800  0.30679600  1
  H  1246  1  0.84530900  0.69739900  0.27358000  1
  H  1247  1  0.84301900  0.72626100  0.26163000  1
  H  1248  1  0.86953600  0.72606000  0.27519400  1
  H  1250  1  0.82747700  0.81862300  0.27917200  1
  H  1252  1  0.78381800  0.68996100  0.29900300  1
  H  1259  1  0.45098800  0.56517200  0.55678700  1
  H  1261  1  0.41303000  0.63430200  0.52358500  1
  H  1262  1  0.44201800  0.63201900  0.51163100  1
  H  1263  1  0.44181900  0.65842400  0.52519400  1
  H  1265  1  0.53475600  0.61656000  0.52915900  1
  H  1267  1  0.40557300  0.57305100  0.54897200  1
  H  1274  1  0.98283200  0.44341200  0.05679800  1
  H  1276  1  0.02079900  0.37429300  0.02358500  1
  H  1277  1  0.99181000  0.37657400  0.01163200  1
  H  1278  1  0.99200900  0.35017400  0.02519600  1
  H  1280  1  0.89906600  0.39196700  0.02918000  1
  H  1282  1  0.02826500  0.43553300  0.04899800  1
  H  1289  1  0.98281300  0.56518300  0.91994600  1
  H  1291  1  0.02079600  0.63430600  0.95316500  1
  H  1292  1  0.99180800  0.63202300  0.96511400  1
  H  1293  1  0.99200900  0.65842600  0.95155000  1
  H  1295  1  0.89903600  0.61653600  0.94758800  1
  H  1297  1  0.02825200  0.57309800  0.92771300  1
  H  1304  1  0.45101100  0.44341700  0.41994700  1
  H  1306  1  0.41302800  0.37429100  0.45316400  1
  H  1307  1  0.44201600  0.37657100  0.46511400  1
  H  1308  1  0.44181500  0.35017100  0.45155000  1
  H  1310  1  0.53478000  0.39203300  0.44758300  1
  H  1312  1  0.40556700  0.43549900  0.42771600  1
  H  1319  1  0.15273500  0.97820700  0.00685200  1
  H  1321  1  0.10638100  0.07197100  0.00032500  1
  H  1322  1  0.08273500  0.05880000  0.98753300  1
  H  1323  1  0.11620300  0.07404400  0.98263000  1
  H  1325  1  0.11936200  0.99660500  0.95366900  1
  H  1327  1  0.14603700  0.01724400  0.02291000  1
  H  1334  1  0.28108600  0.03039600  0.50684700  1
  H  1336  1  0.32743800  0.93663400  0.50032600  1
  H  1337  1  0.35108600  0.94980200  0.48753400  1
  H  1338  1  0.31762200  0.93455600  0.48262900  1
  H  1340  1  0.31447000  0.01197600  0.45364800  1
  H  1342  1  0.28779200  0.99135200  0.52291000  1
  H  1349  1  0.24312600  0.94040400  0.25685000  1
  H  1351  1  0.14895600  0.89425100  0.25032600  1
  H  1352  1  0.16218000  0.87070600  0.23753300  1
  H  1353  1  0.14686800  0.90402700  0.23263000  1
  H  1355  1  0.22463800  0.90713400  0.20364100  1
  H  1357  1  0.20391300  0.93373400  0.27291400  1
  H  1364  1  0.19070900  0.06819800  0.75685300  1
  H  1366  1  0.28488700  0.11435200  0.75032300  1
  H  1367  1  0.27165300  0.13789400  0.73753200  1
  H  1368  1  0.28696100  0.10457100  0.73262800  1
  H  1370  1  0.20918400  0.10141900  0.70366800  1
  H  1372  1  0.22991100  0.07486900  0.77291300  1
  H  1379  1  0.77673400  0.03038800  0.96989000  1
  H  1381  1  0.82309100  0.93662300  0.97641800  1
  H  1382  1  0.84673900  0.94979500  0.98921300  1
  H  1383  1  0.81327000  0.93455100  0.99411700  1
  H  1385  1  0.81010800  0.01195300  0.02306100  1
  H  1387  1  0.78346200  0.99142700  0.95383000  1
  H  1394  1  0.65709000  0.97820300  0.46989100  1
  H  1396  1  0.61073500  0.07197100  0.47641800  1
  H  1397  1  0.58708700  0.05879700  0.48921300  1
  H  1398  1  0.62055400  0.07404100  0.49411800  1
  H  1400  1  0.62371000  0.99664500  0.52307500  1
  H  1402  1  0.65035800  0.01716600  0.45382600  1
  H  1409  1  0.69069600  0.06819900  0.71989800  1
  H  1411  1  0.78487800  0.11434700  0.72642200  1
  H  1412  1  0.77164900  0.13789200  0.73921200  1
  H  1413  1  0.78695700  0.10457100  0.74411600  1
  H  1415  1  0.70920500  0.10146200  0.77309200  1
  H  1417  1  0.72990500  0.07486300  0.70383000  1
  H  1424  1  0.74312200  0.94039900  0.21989600  1
  H  1426  1  0.64893700  0.89424500  0.22642500  1
  H  1427  1  0.66217500  0.87070400  0.23921400  1
  H  1428  1  0.64686700  0.90402500  0.24411900  1
  H  1430  1  0.72462300  0.90717000  0.27308300  1
  H  1432  1  0.70391900  0.93372800  0.20383400  1
  H  1439  1  0.65708600  0.48037500  0.50682000  1
  H  1441  1  0.61079800  0.57397300  0.50027300  1
  H  1442  1  0.58711500  0.56087900  0.48749900  1
  H  1443  1  0.62055800  0.57615700  0.48259000  1
  H  1445  1  0.62283100  0.49685000  0.45351700  1
  H  1447  1  0.65036900  0.51939300  0.52285200  1
  H  1454  1  0.77673800  0.52822600  0.00681600  1
  H  1456  1  0.82302200  0.43463100  0.00027400  1
  H  1457  1  0.84670700  0.44772000  0.98749900  1
  H  1458  1  0.81326600  0.43244000  0.98259000  1
  H  1460  1  0.81099000  0.51173200  0.95349900  1
  H  1462  1  0.78346000  0.48920200  0.02285200  1
  H  1469  1  0.74312800  0.44257400  0.75684900  1
  H  1471  1  0.64895900  0.39641700  0.75033100  1
  H  1472  1  0.66218000  0.37287200  0.73753300  1
  H  1473  1  0.64686500  0.40619100  0.73263000  1
  H  1475  1  0.72458900  0.40930800  0.70366500  1
  H  1477  1  0.70398100  0.43587200  0.77291600  1
  H  1484  1  0.69070900  0.56602500  0.25685200  1
  H  1486  1  0.78488500  0.61218400  0.25032800  1
  H  1487  1  0.77165300  0.63572700  0.23753300  1
  H  1488  1  0.78696300  0.60240600  0.23262800  1
  H  1490  1  0.70923300  0.59924400  0.20369100  1
  H  1492  1  0.72983800  0.57273100  0.27291500  1
  H  1499  1  0.28109000  0.52821900  0.46992300  1
  H  1501  1  0.32737800  0.43462200  0.47646800  1
  H  1502  1  0.35106100  0.44771600  0.48924700  1
  H  1503  1  0.31762000  0.43243800  0.49415600  1
  H  1505  1  0.31535700  0.51171900  0.52321400  1
  H  1507  1  0.28783300  0.48927600  0.45388900  1
  H  1514  1  0.15273700  0.48037300  0.96992300  1
  H  1516  1  0.10644800  0.57397500  0.97646900  1
  H  1517  1  0.08276700  0.56087700  0.98924700  1
  H  1518  1  0.11620600  0.57615700  0.99415800  1
  H  1520  1  0.11846900  0.49688000  0.02322500  1
  H  1522  1  0.14598700  0.51931400  0.95388400  1
  H  1529  1  0.19069600  0.56602700  0.21990000  1
  H  1531  1  0.28487600  0.61217700  0.22641700  1
  H  1532  1  0.27164900  0.63572500  0.23921100  1
  H  1533  1  0.28696100  0.60240600  0.24411700  1
  H  1535  1  0.20925300  0.59928700  0.27306900  1
  H  1537  1  0.22983400  0.57272200  0.20382700  1
  H  1544  1  0.24312400  0.44257000  0.71989800  1
  H  1546  1  0.14894000  0.39641300  0.72642000  1
  H  1547  1  0.16217500  0.37287000  0.73921300  1
  H  1548  1  0.14686500  0.40618900  0.74411900  1
  H  1550  1  0.22457400  0.40934700  0.77305900  1
  H  1552  1  0.20399100  0.43586600  0.70383100  1
  H  1559  1  0.22222700  0.01396700  0.10263600  1
  H  1561  1  0.25436700  0.11184600  0.09902500  1
  H  1562  1  0.29010200  0.10482300  0.10406700  1
  H  1563  1  0.26449200  0.11493900  0.11710000  1
  H  1565  1  0.30676300  0.03236800  0.13839900  1
  H  1567  1  0.20671300  0.05054900  0.09098700  1
  H  1574  1  0.21160400  0.99461000  0.60262900  1
  H  1576  1  0.17946100  0.89675200  0.59902400  1
  H  1577  1  0.14372400  0.90376900  0.60406700  1
  H  1578  1  0.16933600  0.89365800  0.61710000  1
  H  1580  1  0.12707000  0.97621000  0.63840800  1
  H  1582  1  0.22729100  0.95799700  0.59098600  1
  H  1589  1  0.20718200  0.00958400  0.35263200  1
  H  1591  1  0.10889600  0.04158700  0.34902300  1
  H  1592  1  0.11594700  0.07716800  0.35406700  1
  H  1593  1  0.10579000  0.05166800  0.36710000  1
  H  1595  1  0.18870100  0.09375000  0.38840400  1
  H  1597  1  0.17040300  0.99397200  0.34098800  1
  H  1604  1  0.22663900  0.99880600  0.85272700  1
  H  1606  1  0.32488900  0.96699800  0.84904700  1
  H  1607  1  0.31794200  0.93133400  0.85406700  1
  H  1608  1  0.32818600  0.95682100  0.86710800  1
  H  1610  1  0.24509500  0.91481400  0.88842000  1
  H  1612  1  0.26050400  0.00758000  0.83823500  1
  H  1619  1  0.70721300  0.99451400  0.87413800  1
  H  1621  1  0.67506400  0.89665400  0.87771000  1
  H  1622  1  0.63928000  0.90370100  0.87269000  1
  H  1623  1  0.66487700  0.89349400  0.85964500  1
  H  1625  1  0.62335900  0.97700400  0.83839700  1
  H  1627  1  0.71493300  0.96019400  0.88852200  1
  H  1634  1  0.72660500  0.01408300  0.37413600  1
  H  1636  1  0.75876200  0.11194400  0.37770900  1
  H  1637  1  0.79454400  0.10489500  0.37269000  1
  H  1638  1  0.76894700  0.11510000  0.35964400  1
  H  1640  1  0.81046500  0.03160700  0.33839100  1
  H  1642  1  0.71889500  0.04842100  0.38851600  1
  H  1649  1  0.72661600  0.99897900  0.62409200  1
  H  1651  1  0.82512000  0.96705500  0.62778000  1
  H  1652  1  0.81797400  0.93146600  0.62271900  1
  H  1653  1  0.82814300  0.95697200  0.60968300  1
  H  1655  1  0.74678400  0.91438300  0.58898500  1
  H  1657  1  0.76329800  0.01512500  0.63561700  1
  H  1664  1  0.70724700  0.00984200  0.12397600  1
  H  1666  1  0.60875100  0.04154900  0.12775800  1
  H  1667  1  0.61578200  0.07722800  0.12272200  1
  H  1668  1  0.60552400  0.05173500  0.10967600  1
  H  1670  1  0.68707500  0.09425400  0.08896800  1
  H  1672  1  0.67368200  0.00089700  0.13852800  1
  H  1679  1  0.72653400  0.51615200  0.60258200  1
  H  1681  1  0.75870600  0.61407000  0.59900500  1
  H  1682  1  0.79445400  0.60704900  0.60405200  1
  H  1683  1  0.76883100  0.61714000  0.61708800  1
  H  1685  1  0.81057500  0.53377300  0.63831500  1
  H  1687  1  0.71059400  0.55267800  0.59113100  1
  H  1694  1  0.70729600  0.49242300  0.10257400  1
  H  1696  1  0.67512200  0.39452700  0.09900400  1
  H  1697  1  0.63937200  0.40154200  0.10405200  1
  H  1698  1  0.66499700  0.39145900  0.11708800  1
  H  1700  1  0.62325600  0.47480500  0.13832500  1
  H  1702  1  0.72340600  0.45587000  0.09113300  1
  H  1709  1  0.70717600  0.51174200  0.85263200  1
  H  1711  1  0.60868300  0.54371700  0.84896600  1
  H  1712  1  0.61585200  0.57930000  0.85402600  1
  H  1713  1  0.60568500  0.55379400  0.86706300  1
  H  1715  1  0.68706000  0.59626800  0.88777200  1
  H  1717  1  0.67040800  0.49602900  0.84096200  1
  H  1724  1  0.72664100  0.49664800  0.35272700  1
  H  1726  1  0.82510300  0.46486500  0.34898900  1
  H  1727  1  0.81803400  0.42920100  0.35402700  1
  H  1728  1  0.82828700  0.45469400  0.36707200  1
  H  1730  1  0.74675200  0.41230100  0.38779800  1
  H  1732  1  0.76049500  0.50546600  0.33820200  1
  H  1739  1  0.21144900  0.49244500  0.37404600  1
  H  1741  1  0.17941800  0.39457000  0.37769200  1
  H  1742  1  0.14363500  0.40157800  0.37267800  1
  H  1743  1  0.16922100  0.39134800  0.35963700  1
  H  1745  1  0.12712100  0.47409200  0.33831800  1
  H  1747  1  0.21918200  0.45827400  0.38843400  1
  H  1754  1  0.22248000  0.51608800  0.87397400  1
  H  1756  1  0.25435600  0.61395300  0.87770300  1
  H  1757  1  0.29019200  0.60707200  0.87268400  1
  H  1758  1  0.26459200  0.61727400  0.85964100  1
  H  1760  1  0.30670100  0.53451100  0.83830600  1
  H  1762  1  0.21357600  0.54951800  0.88849200  1
  H  1769  1  0.22661400  0.49681800  0.12409900  1
  H  1771  1  0.32491600  0.46485400  0.12772400  1
  H  1772  1  0.31788600  0.42926500  0.12268000  1
  H  1773  1  0.32804500  0.45476700  0.10964800  1
  H  1775  1  0.24510600  0.41276000  0.08832900  1
  H  1777  1  0.26331100  0.51285600  0.13559000  1
  H  1784  1  0.20724800  0.51200900  0.62397600  1
  H  1786  1  0.10895600  0.54374500  0.62770400  1
  H  1787  1  0.11586600  0.57942800  0.62268400  1
  H  1788  1  0.10562000  0.55393900  0.60964200  1
  H  1790  1  0.18874900  0.59587100  0.58831200  1
  H  1792  1  0.17367900  0.50312900  0.63849100  1
  C  1  1  0.12479000  0.09270200  0.05293300  1
  C  2  1  0.13227800  0.07410800  0.04160400  1
  C  3  1  0.11169200  0.06385300  0.03204900  1
  C  4  1  0.08355700  0.07445400  0.03301000  1
  C  5  1  0.07453200  0.09348900  0.04381700  1
  C  6  1  0.09551100  0.10208900  0.05415600  1
  C  9  1  0.14756300  0.10203700  0.06225000  1
  C  10  1  0.16730300  0.08290600  0.06892000  1
  C  11  1  0.18979800  0.09469000  0.07735100  1
  C  12  1  0.19218100  0.12460700  0.07933500  1
  C  13  1  0.17310800  0.14392700  0.07287500  1
  C  14  1  0.15157400  0.13184200  0.06412700  1
  C  27  1  0.30903600  0.91589800  0.55293700  1
  C  28  1  0.30154900  0.93447200  0.54160000  1
  C  29  1  0.32213700  0.94475800  0.53205100  1
  C  30  1  0.35027600  0.93415700  0.53301500  1
  C  31  1  0.35928000  0.91509600  0.54381700  1
  C  32  1  0.33831500  0.90651900  0.55416100  1
  C  35  1  0.28625400  0.90656200  0.56224900  1
  C  36  1  0.26651500  0.92569500  0.56892300  1
  C  37  1  0.24400000  0.91392000  0.57735000  1
  C  38  1  0.24165000  0.88400000  0.57933900  1
  C  39  1  0.26071000  0.86467200  0.57287200  1
  C  40  1  0.28225100  0.87675700  0.56412900  1
  C  53  1  0.12812500  0.91256800  0.30293600  1
  C  54  1  0.14679000  0.92002600  0.29160100  1
  C  55  1  0.15708000  0.89953400  0.28203600  1
  C  56  1  0.14646100  0.87151200  0.28299800  1
  C  57  1  0.12740700  0.86254700  0.29382700  1
  C  58  1  0.11869600  0.88341300  0.30416000  1
  C  61  1  0.11875200  0.93525500  0.31224900  1
  C  62  1  0.13797000  0.95490900  0.31892500  1
  C  63  1  0.12613000  0.97733300  0.32734600  1
  C  64  1  0.09608600  0.97966900  0.32933900  1
  C  65  1  0.07667800  0.96068500  0.32287600  1
  C  66  1  0.08881700  0.93924100  0.31413000  1
  C  79  1  0.30572600  0.09607100  0.80291000  1
  C  80  1  0.28703200  0.08859200  0.79159200  1
  C  81  1  0.27670400  0.10907600  0.78204500  1
  C  82  1  0.28736000  0.13708700  0.78299800  1
  C  83  1  0.30643300  0.14605200  0.79382300  1
  C  84  1  0.31514100  0.12520200  0.80415700  1
  C  87  1  0.31523500  0.07334300  0.81209300  1
  C  88  1  0.29605300  0.05358000  0.81854500  1
  C  89  1  0.30863500  0.03078700  0.82627000  1
  C  90  1  0.33814400  0.02860400  0.82905600  1
  C  91  1  0.35733700  0.04784200  0.82276300  1
  C  92  1  0.34516800  0.06939800  0.81406000  1
  C  105  1  0.30892700  0.09243800  0.42368800  1
  C  106  1  0.30156400  0.07427500  0.43521800  1
  C  107  1  0.32179200  0.06460300  0.44516100  1
  C  108  1  0.35020400  0.07447400  0.44380800  1
  C  109  1  0.35927600  0.09329600  0.43287400  1
  C  110  1  0.33823000  0.10198400  0.42255000  1
  C  113  1  0.28569000  0.10160700  0.41443300  1
  C  114  1  0.26568500  0.08261000  0.40766100  1
  C  115  1  0.24250900  0.09385500  0.39930900  1
  C  116  1  0.24081400  0.12398100  0.39756600  1
  C  117  1  0.26011200  0.14342000  0.40395000  1
  C  118  1  0.28181800  0.13138200  0.41256200  1
  C  131  1  0.12489200  0.91615800  0.92368000  1
  C  132  1  0.13224200  0.93431000  0.93521300  1
  C  133  1  0.11201600  0.94404800  0.94514500  1
  C  134  1  0.08361300  0.93412500  0.94379500  1
  C  135  1  0.07456700  0.91524100  0.93287900  1
  C  136  1  0.09559700  0.90660400  0.92254500  1
  C  139  1  0.14814100  0.90698600  0.91443500  1
  C  140  1  0.16813600  0.92598500  0.90766200  1
  C  141  1  0.19130800  0.91473700  0.89931000  1
  C  142  1  0.19301300  0.88461200  0.89756700  1
  C  143  1  0.17371800  0.86517200  0.90395500  1
  C  144  1  0.15200600  0.87721100  0.91256200  1
  C  157  1  0.30543200  0.91267600  0.17368600  1
  C  158  1  0.28720100  0.92000300  0.18522300  1
  C  159  1  0.27746200  0.89985600  0.19516700  1
  C  160  1  0.28739000  0.87157600  0.19381400  1
  C  161  1  0.30625300  0.86256900  0.18286500  1
  C  162  1  0.31503000  0.88350300  0.17254600  1
  C  165  1  0.31464400  0.93582700  0.16443800  1
  C  166  1  0.29556200  0.95574100  0.15766000  1
  C  167  1  0.30687800  0.97879600  0.14929800  1
  C  168  1  0.33713000  0.98051400  0.14757100  1
  C  169  1  0.35664500  0.96129100  0.15395500  1
  C  170  1  0.34454900  0.93967200  0.16256100  1
  C  183  1  0.12837500  0.09592200  0.67368300  1
  C  184  1  0.14662900  0.08859600  0.68520900  1
  C  185  1  0.15638100  0.10872900  0.69514800  1
  C  186  1  0.14643700  0.13701600  0.69381300  1
  C  187  1  0.12757200  0.14602900  0.68286500  1
  C  188  1  0.11879100  0.12509900  0.67254500  1
  C  191  1  0.11917800  0.07277600  0.66443100  1
  C  192  1  0.13826600  0.05286300  0.65766200  1
  C  193  1  0.12695300  0.02981200  0.64930300  1
  C  194  1  0.09670100  0.02808100  0.64756500  1
  C  195  1  0.07718200  0.04730000  0.65395300  1
  C  196  1  0.08927400  0.06892200  0.66256000  1
  C  209  1  0.80461100  0.91617500  0.92370000  1
  C  210  1  0.79709000  0.93466900  0.93509000  1
  C  211  1  0.81768900  0.94525700  0.94455100  1
  C  212  1  0.84583400  0.93490300  0.94349800  1
  C  213  1  0.85443100  0.91543900  0.93281600  1
  C  214  1  0.83373000  0.90655700  0.92248900  1
  C  217  1  0.78182300  0.90642300  0.91460000  1
  C  218  1  0.76199500  0.92544100  0.90812500  1
  C  219  1  0.73896000  0.91294300  0.90048200  1
  C  220  1  0.73697600  0.88356900  0.89756900  1
  C  221  1  0.75628700  0.86448200  0.90394100  1
  C  222  1  0.77789900  0.87660900  0.91267300  1
  C  235  1  0.62921100  0.09241700  0.42369800  1
  C  236  1  0.63673200  0.07393900  0.43509500  1
  C  237  1  0.61613300  0.06331700  0.44454900  1
  C  238  1  0.58799800  0.07370600  0.44350500  1
  C  239  1  0.57939100  0.09314500  0.43281300  1
  C  240  1  0.60009600  0.10204700  0.42249400  1
  C  243  1  0.65200600  0.10217500  0.41460300  1
  C  244  1  0.67182900  0.08315500  0.40812600  1
  C  245  1  0.69486600  0.09565200  0.40048300  1
  C  246  1  0.69683900  0.12502500  0.39756100  1
  C  247  1  0.67755000  0.14411500  0.40394700  1
  C  248  1  0.65592500  0.13198700  0.41267300  1
  C  261  1  0.80554300  0.09616900  0.67384500  1
  C  262  1  0.78697600  0.08860700  0.68517800  1
  C  263  1  0.77672100  0.10909700  0.69473200  1
  C  264  1  0.78735100  0.13711400  0.69376000  1
  C  265  1  0.80641800  0.14608400  0.68293200  1
  C  266  1  0.81510200  0.12525200  0.67259500  1
  C  269  1  0.81462000  0.07358000  0.66455900  1
  C  270  1  0.79538900  0.05380800  0.65788800  1
  C  271  1  0.80681800  0.03121500  0.64943700  1
  C  272  1  0.83650000  0.02863600  0.64741300  1
  C  273  1  0.85476600  0.04754400  0.65435300  1
  C  274  1  0.84439000  0.06957900  0.66284100  1
  C  287  1  0.62825500  0.91238000  0.17387200  1
  C  288  1  0.64685200  0.91996700  0.18518600  1
  C  289  1  0.65714200  0.89948900  0.19472300  1
  C  290  1  0.64648400  0.87148000  0.19376100  1
  C  291  1  0.62741500  0.86250300  0.18293500  1
  C  292  1  0.61871500  0.88331700  0.17259800  1
  C  295  1  0.61903700  0.93500600  0.16472000  1
  C  296  1  0.63822700  0.95486700  0.15827200  1
  C  297  1  0.62598600  0.97786800  0.15055700  1
  C  298  1  0.59689700  0.98029800  0.14771300  1
  C  299  1  0.57885700  0.96107300  0.15444700  1
  C  300  1  0.58926700  0.93896600  0.16291200  1
  C  313  1  0.62924300  0.91638900  0.55312100  1
  C  314  1  0.63668500  0.93447900  0.54156300  1
  C  315  1  0.61645200  0.94452100  0.53172400  1
  C  316  1  0.58802400  0.93491200  0.53316300  1
  C  317  1  0.57937800  0.91560600  0.54396400  1
  C  318  1  0.60012200  0.90663400  0.55427700  1
  C  321  1  0.65234400  0.90686900  0.56221000  1
  C  322  1  0.67214100  0.92600200  0.56887300  1
  C  323  1  0.69509900  0.91467300  0.57716600  1
  C  324  1  0.69714100  0.88459900  0.57907600  1
  C  325  1  0.67794600  0.86507800  0.57274200  1
  C  326  1  0.65623100  0.87708100  0.56411800  1
  C  339  1  0.80458600  0.09220700  0.05312800  1
  C  340  1  0.79715200  0.07412800  0.04156300  1
  C  341  1  0.81737600  0.06403800  0.03172700  1
  C  342  1  0.84579200  0.07370200  0.03317100  1
  C  343  1  0.85445700  0.09296000  0.04399000  1
  C  344  1  0.83369500  0.10196900  0.05428200  1
  C  347  1  0.78147300  0.10173100  0.06220600  1
  C  348  1  0.76168500  0.08259400  0.06887200  1
  C  349  1  0.73873300  0.09392800  0.07716500  1
  C  350  1  0.73668300  0.12400100  0.07907400  1
  C  351  1  0.75587100  0.14352100  0.07273700  1
  C  352  1  0.77759300  0.13151700  0.06411800  1
  C  365  1  0.62855900  0.09607000  0.80302600  1
  C  366  1  0.64669200  0.08863200  0.79149100  1
  C  367  1  0.65638100  0.10877500  0.78155500  1
  C  368  1  0.64643400  0.13705000  0.78291800  1
  C  369  1  0.62753900  0.14605700  0.79385800  1
  C  370  1  0.61881200  0.12516400  0.80418800  1
  C  373  1  0.61956600  0.07305000  0.81224700  1
  C  374  1  0.63864100  0.05298200  0.81900100  1
  C  375  1  0.62749000  0.02975600  0.82728200  1
  C  376  1  0.59763400  0.02794900  0.82903600  1
  C  377  1  0.57912100  0.04730000  0.82249400  1
  C  378  1  0.58971900  0.06931100  0.81400000  1
  C  391  1  0.80528800  0.91252500  0.30302700  1
  C  392  1  0.78713500  0.91996700  0.29150300  1
  C  393  1  0.77743800  0.89984100  0.28156500  1
  C  394  1  0.78738500  0.87155500  0.28291400  1
  C  395  1  0.80626300  0.86253700  0.29385900  1
  C  396  1  0.81501000  0.88342400  0.30418900  1
  C  399  1  0.81426700  0.93553900  0.31225100  1
  C  400  1  0.79518700  0.95560300  0.31900200  1
  C  401  1  0.80634300  0.97884900  0.32726900  1
  C  402  1  0.83619200  0.98064200  0.32908000  1
  C  403  1  0.85452800  0.96150600  0.32232600  1
  C  404  1  0.84407300  0.93930700  0.31398200  1
  C  417  1  0.62899400  0.59471000  0.55289600  1
  C  418  1  0.63659300  0.57621500  0.54156900  1
  C  419  1  0.61601700  0.56599100  0.53201800  1
  C  420  1  0.58788200  0.57659900  0.53299400  1
  C  421  1  0.57884400  0.59562800  0.54380400  1
  C  422  1  0.59978600  0.60422200  0.55414700  1
  C  425  1  0.65165200  0.60373700  0.56219400  1
  C  426  1  0.67153300  0.58461900  0.56885300  1
  C  427  1  0.69417600  0.59601600  0.57732800  1
  C  428  1  0.69682400  0.62560200  0.57932100  1
  C  429  1  0.67798700  0.64377900  0.57235600  1
  C  430  1  0.65568500  0.63336800  0.56390300  1
  C  443  1  0.80482800  0.41389300  0.05289900  1
  C  444  1  0.79723600  0.43236900  0.04156200  1
  C  445  1  0.81781500  0.44262100  0.03202100  1
  C  446  1  0.84595000  0.43199800  0.03299900  1
  C  447  1  0.85496100  0.41291600  0.04379600  1
  C  448  1  0.83403200  0.40437300  0.05414900  1
  C  451  1  0.78215300  0.40485300  0.06218900  1
  C  452  1  0.76228700  0.42399300  0.06885600  1
  C  453  1  0.73961400  0.41263000  0.07732200  1
  C  454  1  0.73701900  0.38306600  0.07933400  1
  C  455  1  0.75598500  0.36487600  0.07238000  1
  C  456  1  0.77814600  0.37521000  0.06391100  1
  C  469  1  0.62843300  0.41485100  0.80306200  1
  C  470  1  0.64697400  0.42231800  0.79165800  1
  C  471  1  0.65758800  0.40179600  0.78218700  1
  C  472  1  0.64721000  0.37376800  0.78325400  1
  C  473  1  0.62766600  0.36521900  0.79393900  1
  C  474  1  0.61875200  0.38584400  0.80426300  1
  C  477  1  0.61878200  0.43751300  0.81226400  1
  C  478  1  0.63799000  0.45712400  0.81894100  1
  C  479  1  0.62611900  0.47952200  0.82734800  1
  C  480  1  0.59607400  0.48184800  0.82934100  1
  C  481  1  0.57667400  0.46286100  0.82287500  1
  C  482  1  0.58882500  0.44143700  0.81412500  1
  C  495  1  0.80541900  0.59379500  0.30303600  1
  C  496  1  0.78684500  0.58630200  0.29165000  1
  C  497  1  0.77618900  0.60681000  0.28219800  1
  C  498  1  0.78661000  0.63482900  0.28324700  1
  C  499  1  0.80616300  0.64338400  0.29392900  1
  C  500  1  0.81507900  0.62278100  0.30426000  1
  C  503  1  0.81520700  0.57109000  0.31210800  1
  C  504  1  0.79603600  0.55136800  0.31855700  1
  C  505  1  0.80865500  0.52860600  0.32626700  1
  C  506  1  0.83815900  0.52642700  0.32905900  1
  C  507  1  0.85734300  0.54566500  0.32276400  1
  C  508  1  0.84516200  0.56720500  0.31405400  1
  C  521  1  0.80475100  0.59442000  0.92391800  1
  C  522  1  0.79723800  0.57614200  0.93541300  1
  C  523  1  0.81732900  0.56595900  0.94533200  1
  C  524  1  0.84566500  0.57629800  0.94394000  1
  C  525  1  0.85483200  0.59527400  0.93302200  1
  C  526  1  0.83394800  0.60403000  0.92266500  1
  C  529  1  0.78179900  0.60344300  0.91466900  1
  C  530  1  0.76187100  0.58432200  0.90796100  1
  C  531  1  0.73869500  0.59520800  0.89964000  1
  C  532  1  0.73638000  0.62493600  0.89771000  1
  C  533  1  0.75557600  0.64334000  0.90445400  1
  C  534  1  0.77788200  0.63306000  0.91283700  1
  C  547  1  0.62907100  0.41417700  0.42391100  1
  C  548  1  0.63657300  0.43244400  0.43541400  1
  C  549  1  0.61647600  0.44269300  0.44531500  1
  C  550  1  0.58815000  0.43229900  0.44393000  1
  C  551  1  0.57901100  0.41327000  0.43302500  1
  C  552  1  0.59988000  0.40456100  0.42265900  1
  C  555  1  0.65202900  0.40511600  0.41466400  1
  C  556  1  0.67193600  0.42427000  0.40795800  1
  C  557  1  0.69509100  0.41340400  0.39963700  1
  C  558  1  0.69742600  0.38370000  0.39774800  1
  C  559  1  0.67808600  0.36503300  0.40424600  1
  C  560  1  0.65591400  0.37542200  0.41278600  1
  C  573  1  0.80511500  0.41494100  0.67355900  1
  C  574  1  0.78701900  0.42228800  0.68516400  1
  C  575  1  0.77696100  0.40212500  0.69502400  1
  C  576  1  0.78661000  0.37382400  0.69356700  1
  C  577  1  0.80599100  0.36523600  0.68276200  1
  C  578  1  0.81497000  0.38592500  0.67244800  1
  C  581  1  0.81463500  0.43804400  0.66443500  1
  C  582  1  0.79561800  0.45797600  0.65767600  1
  C  583  1  0.80723800  0.48100100  0.64942100  1
  C  584  1  0.83745000  0.48252200  0.64763500  1
  C  585  1  0.85680300  0.46328400  0.65399600  1
  C  586  1  0.84458700  0.44176300  0.66260300  1
  C  599  1  0.62869200  0.59366100  0.17355800  1
  C  600  1  0.64681200  0.58631300  0.18514700  1
  C  601  1  0.65688500  0.60646000  0.19500300  1
  C  602  1  0.64720800  0.63476500  0.19357100  1
  C  603  1  0.62782400  0.64336100  0.18277000  1
  C  604  1  0.61884800  0.62268100  0.17244800  1
  C  607  1  0.61918700  0.57056100  0.16442700  1
  C  608  1  0.63821000  0.55063200  0.15767400  1
  C  609  1  0.62659200  0.52760300  0.14942700  1
  C  610  1  0.59638300  0.52607500  0.14762800  1
  C  611  1  0.57702500  0.54530900  0.15399300  1
  C  612  1  0.58923700  0.56683000  0.16260100  1
  C  625  1  0.30910900  0.41416800  0.42373700  1
  C  626  1  0.30148300  0.43256600  0.43512600  1
  C  627  1  0.32207100  0.44312200  0.44458100  1
  C  628  1  0.35021200  0.43274900  0.44351700  1
  C  629  1  0.35881800  0.41327200  0.43283900  1
  C  630  1  0.33815700  0.40441800  0.42250100  1
  C  633  1  0.28641900  0.40470400  0.41466400  1
  C  634  1  0.26648000  0.42372600  0.40819100  1
  C  635  1  0.24323100  0.41162500  0.40055900  1
  C  636  1  0.24101300  0.38262900  0.39757700  1
  C  637  1  0.26030000  0.36468100  0.40440300  1
  C  638  1  0.28247600  0.37505500  0.41289800  1
  C  651  1  0.12470100  0.59441600  0.92374300  1
  C  652  1  0.13233500  0.57603800  0.93513500  1
  C  653  1  0.11174900  0.56545100  0.94458100  1
  C  654  1  0.08361700  0.57585900  0.94352100  1
  C  655  1  0.07500000  0.59530400  0.93283000  1
  C  656  1  0.09566600  0.60418300  0.92250400  1
  C  659  1  0.14741200  0.60388000  0.91470600  1
  C  660  1  0.16734300  0.58480900  0.90824800  1
  C  661  1  0.19046400  0.59710000  0.90049300  1
  C  662  1  0.19279800  0.62598300  0.89769800  1
  C  663  1  0.17353200  0.64392800  0.90446800  1
  C  664  1  0.15132000  0.63354000  0.91291700  1
  C  677  1  0.30523300  0.59389500  0.17371800  1
  C  678  1  0.28679200  0.58631700  0.18512000  1
  C  679  1  0.27620900  0.60683100  0.19458100  1
  C  680  1  0.28660100  0.63485500  0.19351400  1
  C  681  1  0.30617300  0.64340800  0.18284100  1
  C  682  1  0.31504900  0.62283200  0.17249800  1
  C  685  1  0.31458600  0.57132500  0.16454200  1
  C  686  1  0.29537200  0.55158600  0.15786900  1
  C  687  1  0.30681800  0.52901700  0.14942000  1
  C  688  1  0.33650700  0.52645900  0.14740600  1
  C  689  1  0.35476600  0.54537900  0.15434500  1
  C  690  1  0.34437900  0.56739500  0.16284100  1
  C  703  1  0.12856400  0.41465500  0.67374400  1
  C  704  1  0.14703800  0.42225600  0.68512800  1
  C  705  1  0.15766000  0.40175300  0.69456900  1
  C  706  1  0.14722700  0.37374000  0.69351700  1
  C  707  1  0.12765700  0.36517900  0.68284200  1
  C  708  1  0.11877100  0.38573900  0.67249900  1
  C  711  1  0.11907100  0.43726800  0.66470300  1
  C  712  1  0.13823500  0.45710900  0.65824700  1
  C  713  1  0.12587300  0.48013000  0.65050800  1
  C  714  1  0.09687100  0.48248500  0.64770400  1
  C  715  1  0.07885400  0.46325200  0.65444700  1
  C  716  1  0.08927900  0.44116400  0.66291700  1
  C  729  1  0.12494400  0.41453300  0.05301800  1
  C  730  1  0.13239200  0.43265100  0.04142500  1
  C  731  1  0.11226900  0.44313900  0.03157900  1
  C  732  1  0.08391900  0.43303900  0.03304400  1
  C  733  1  0.07519800  0.41361600  0.04383900  1
  C  734  1  0.09585500  0.40464200  0.05419700  1
  C  737  1  0.14800200  0.40532900  0.06221100  1
  C  738  1  0.16805500  0.42429800  0.06902800  1
  C  739  1  0.19140000  0.41345800  0.07739900  1
  C  740  1  0.19335400  0.38367200  0.07915000  1
  C  741  1  0.17406800  0.36534700  0.07234500  1
  C  742  1  0.15178700  0.37568200  0.06396500  1
  C  755  1  0.30888600  0.59404900  0.55302100  1
  C  756  1  0.30144400  0.57595500  0.54142100  1
  C  757  1  0.32156500  0.56540900  0.53158700  1
  C  758  1  0.34990100  0.57557500  0.53304800  1
  C  759  1  0.35863500  0.59495400  0.54386200  1
  C  760  1  0.33796600  0.60395700  0.55420200  1
  C  763  1  0.28581500  0.60325100  0.56220300  1
  C  764  1  0.26576900  0.58428600  0.56902600  1
  C  765  1  0.24242900  0.59513500  0.57739700  1
  C  766  1  0.24047300  0.62492100  0.57914400  1
  C  767  1  0.25978200  0.64323300  0.57234200  1
  C  768  1  0.28203700  0.63289200  0.56395200  1
  C  781  1  0.12884500  0.59377200  0.30315500  1
  C  782  1  0.14685500  0.58634100  0.29155000  1
  C  783  1  0.15687800  0.60650200  0.28170000  1
  C  784  1  0.14722300  0.63479900  0.28316600  1
  C  785  1  0.12783800  0.64339100  0.29397100  1
  C  786  1  0.11887700  0.62272800  0.30429000  1
  C  789  1  0.11961900  0.57072800  0.31226400  1
  C  790  1  0.13873700  0.55076400  0.31904300  1
  C  791  1  0.12784500  0.52755000  0.32741400  1
  C  792  1  0.09795400  0.52555500  0.32911900  1
  C  793  1  0.07936900  0.54477600  0.32240600  1
  C  794  1  0.08980100  0.56696200  0.31400000  1
  C  807  1  0.30499500  0.41481900  0.80315400  1
  C  808  1  0.28696500  0.42225400  0.79156200  1
  C  809  1  0.27693500  0.40211400  0.78171100  1
  C  810  1  0.28660800  0.37381100  0.78315800  1
  C  811  1  0.30599300  0.36520800  0.79396100  1
  C  812  1  0.31495200  0.38585900  0.80428800  1
  C  815  1  0.31419800  0.43786100  0.81226500  1
  C  816  1  0.29508200  0.45782400  0.81904200  1
  C  817  1  0.30597800  0.48105000  0.82740100  1
  C  818  1  0.33587500  0.48303600  0.82915000  1
  C  819  1  0.35432800  0.46380400  0.82239700  1
  C  820  1  0.34398700  0.44166500  0.81397800  1
  C  833  1  0.15678900  0.26988100  0.06168200  1
  C  834  1  0.16949400  0.28268600  0.07373200  1
  C  835  1  0.18124300  0.26345700  0.08408400  1
  C  837  1  0.16776400  0.22291800  0.07107000  1
  C  840  1  0.14397100  0.28575600  0.04966100  1
  C  844  1  0.16543500  0.19382400  0.06852600  1
  C  846  1  0.17436000  0.31171500  0.07608900  1
  C  848  1  0.27702100  0.73870800  0.56169300  1
  C  849  1  0.26429500  0.72592100  0.57374000  1
  C  850  1  0.25257300  0.74516100  0.58409600  1
  C  852  1  0.26606500  0.78568100  0.57106800  1
  C  855  1  0.28984500  0.72283200  0.54966900  1
  C  859  1  0.26839600  0.81477400  0.56852500  1
  C  861  1  0.25954200  0.69687200  0.57607800  1
  C  863  1  0.95019700  0.94445700  0.31172200  1
  C  864  1  0.93738500  0.95694300  0.32378200  1
  C  865  1  0.95661900  0.96888000  0.33413700  1
  C  867  1  0.99733900  0.95537200  0.32108000  1
  C  870  1  0.93426800  0.93168400  0.29967400  1
  C  874  1  0.02655800  0.95304200  0.31852600  1
  C  876  1  0.90812300  0.96146600  0.32551800  1
  C  878  1  0.48368900  0.06383400  0.81180600  1
  C  879  1  0.49654200  0.05039700  0.82377800  1
  C  880  1  0.47713400  0.03943500  0.83420200  1
  C  882  1  0.43649600  0.05321000  0.82106600  1
  C  885  1  0.49954800  0.07689800  0.79969800  1
  C  889  1  0.40729400  0.05557800  0.81852600  1
  C  891  1  0.52638400  0.05118100  0.82547300  1
  C  893  1  0.27702900  0.26980600  0.41506400  1
  C  894  1  0.26433100  0.28253900  0.40300700  1
  C  895  1  0.25257300  0.26335700  0.39264600  1
  C  897  1  0.26607500  0.22279600  0.40565900  1
  C  900  1  0.28985000  0.28573700  0.42708000  1
  C  904  1  0.26832900  0.19360900  0.40818100  1
  C  906  1  0.25965800  0.31147800  0.40065500  1
  C  908  1  0.15679900  0.73878000  0.91506000  1
  C  909  1  0.16949900  0.72605600  0.90300200  1
  C  910  1  0.18126400  0.74524300  0.89264600  1
  C  912  1  0.16774900  0.78579600  0.90566000  1
  C  915  1  0.14398000  0.72285300  0.92707700  1
  C  919  1  0.16547800  0.81498500  0.90817600  1
  C  921  1  0.17422500  0.69711900  0.90066300  1
  C  923  1  0.48357800  0.94444400  0.16506500  1
  C  924  1  0.49636800  0.95708300  0.15300600  1
  C  925  1  0.47710000  0.96879400  0.14264700  1
  C  927  1  0.43636300  0.95535100  0.15565900  1
  C  930  1  0.49957800  0.93167700  0.17708000  1
  C  934  1  0.40705000  0.95308300  0.15817500  1
  C  936  1  0.52543700  0.96173900  0.15065500  1
  C  938  1  0.95024000  0.06414800  0.66507400  1
  C  939  1  0.93742800  0.05144300  0.65302900  1
  C  940  1  0.95671600  0.03980800  0.64265900  1
  C  942  1  0.99746100  0.05324200  0.65565800  1
  C  945  1  0.93424600  0.07692200  0.67708300  1
  C  949  1  0.02677600  0.05551600  0.65817100  1
  C  951  1  0.90836100  0.04677000  0.65055500  1
  C  953  1  0.77269600  0.73871000  0.91506500  1
  C  954  1  0.75999800  0.72590900  0.90300500  1
  C  955  1  0.74824700  0.74514900  0.89266700  1
  C  957  1  0.76172800  0.78566800  0.90567400  1
  C  960  1  0.78550400  0.72283400  0.92708600  1
  C  964  1  0.76405200  0.81473700  0.90822200  1
  C  966  1  0.75497300  0.69692900  0.90056500  1
  C  968  1  0.66146000  0.26991700  0.41492500  1
  C  969  1  0.67481800  0.28269100  0.40289900  1
  C  970  1  0.68597100  0.26338200  0.39252700  1
  C  972  1  0.67213700  0.22293100  0.40568000  1
  C  975  1  0.64835000  0.28570500  0.42704800  1
  C  979  1  0.66974200  0.19385800  0.40821600  1
  C  981  1  0.67448100  0.31243400  0.40147700  1
  C  983  1  0.66111900  0.73870800  0.56162400  1
  C  984  1  0.67400100  0.72582300  0.57369200  1
  C  985  1  0.68550800  0.74519100  0.58398100  1
  C  987  1  0.67209200  0.78576700  0.57107000  1
  C  990  1  0.64829600  0.72280900  0.54963300  1
  C  994  1  0.66983400  0.81494400  0.56856500  1
  C  996  1  0.67955300  0.69711500  0.57702000  1
  C  998  1  0.77267700  0.26982800  0.06168700  1
  C  999  1  0.75994700  0.28255400  0.07373700  1
  C  1000  1  0.74821100  0.26336300  0.08410100  1
  C  1002  1  0.76172500  0.22282000  0.07108400  1
  C  1005  1  0.78549500  0.28574600  0.04966800  1
  C  1009  1  0.76401400  0.19365100  0.06856800  1
  C  1011  1  0.75522800  0.31151400  0.07606400  1
  C  1013  1  0.45020100  0.44663200  0.81171100  1
  C  1014  1  0.43735500  0.45924700  0.82374300  1
  C  1015  1  0.45663200  0.47099900  0.83413600  1
  C  1017  1  0.49734700  0.45754000  0.82108100  1
  C  1020  1  0.43426500  0.43384800  0.79967500  1
  C  1024  1  0.52656200  0.45520000  0.81852800  1
  C  1026  1  0.40805300  0.46355900  0.82570300  1
  C  1028  1  0.98364400  0.56180100  0.31174400  1
  C  1029  1  0.99650300  0.54804400  0.32361900  1
  C  1030  1  0.97716600  0.53742300  0.33416000  1
  C  1032  1  0.93649000  0.55104600  0.32107800  1
  C  1035  1  0.99955200  0.57475600  0.29968100  1
  C  1039  1  0.90729400  0.55340800  0.31852800  1
  C  1041  1  0.02626700  0.54856500  0.32585100  1
  C  1043  1  0.98358400  0.44660800  0.66506500  1
  C  1044  1  0.99637000  0.45924900  0.65300600  1
  C  1045  1  0.97710200  0.47096000  0.64264600  1
  C  1047  1  0.93638500  0.45751300  0.65566300  1
  C  1050  1  0.99958000  0.43384400  0.67708100  1
  C  1054  1  0.90710100  0.45522600  0.65819400  1
  C  1056  1  0.02543700  0.46390500  0.65065500  1
  C  1058  1  0.45023800  0.56199100  0.16506400  1
  C  1059  1  0.43744500  0.54932000  0.15301400  1
  C  1060  1  0.45671600  0.53763900  0.14264600  1
  C  1062  1  0.49743900  0.55108400  0.15566300  1
  C  1065  1  0.43424400  0.57475400  0.17708000  1
  C  1069  1  0.52672300  0.55336900  0.15819400  1
  C  1071  1  0.40835700  0.54466500  0.15066400  1
  C  1073  1  0.94745200  0.11475900  0.03233700  1
  C  1074  1  0.93428300  0.09572900  0.04220500  1
  C  1075  1  0.95390600  0.07817900  0.04982600  1
  C  1077  1  0.99510600  0.10038000  0.03995400  1
  C  1080  1  0.93181000  0.13422800  0.02267900  1
  C  1084  1  0.02475300  0.10382900  0.03792200  1
  C  1086  1  0.90481900  0.08991200  0.04452600  1
  C  1088  1  0.48638300  0.89385000  0.53234000  1
  C  1089  1  0.49954800  0.91287500  0.54221400  1
  C  1090  1  0.47990900  0.93042900  0.54982500  1
  C  1092  1  0.43871400  0.90821100  0.53995100  1
  C  1095  1  0.50201600  0.87437100  0.52268200  1
  C  1099  1  0.40906800  0.90466700  0.53794100  1
  C  1101  1  0.52900900  0.91865900  0.54456900  1
  C  1103  1  0.10597900  0.73600400  0.28233900  1
  C  1104  1  0.12511100  0.72289200  0.29219900  1
  C  1105  1  0.14272000  0.74243700  0.29982600  1
  C  1107  1  0.12041100  0.78345800  0.28995200  1
  C  1110  1  0.08641900  0.72043200  0.27268100  1
  C  1114  1  0.11681400  0.81297900  0.28795400  1
  C  1116  1  0.13092800  0.69355200  0.29452800  1
  C  1118  1  0.32785000  0.27259700  0.78234100  1
  C  1119  1  0.30871900  0.28570900  0.79220300  1
  C  1120  1  0.29110500  0.26616000  0.79982500  1
  C  1122  1  0.31340700  0.22514300  0.78994800  1
  C  1125  1  0.34740700  0.28816700  0.77268100  1
  C  1129  1  0.31696900  0.19561900  0.78794400  1
  C  1131  1  0.30292100  0.31504500  0.79456300  1
  C  1133  1  0.48639100  0.11474600  0.44440600  1
  C  1134  1  0.49956700  0.09574100  0.43452300  1
  C  1135  1  0.47992400  0.07816900  0.42692500  1
  C  1137  1  0.43872900  0.10039500  0.43679200  1
  C  1140  1  0.50202300  0.13422600  0.45406500  1
  C  1144  1  0.40907500  0.10388400  0.43880300  1
  C  1146  1  0.52902800  0.08995800  0.43215600  1
  C  1148  1  0.94743300  0.89385000  0.94440600  1
  C  1149  1  0.93425900  0.91285800  0.93452500  1
  C  1150  1  0.95389600  0.93043200  0.92692500  1
  C  1152  1  0.99509300  0.90822800  0.93680400  1
  C  1155  1  0.93180300  0.87436900  0.95406400  1
  C  1159  1  0.02475100  0.90468000  0.93879000  1
  C  1161  1  0.90479600  0.91865900  0.93218400  1
  C  1163  1  0.32783900  0.73598500  0.19440500  1
  C  1164  1  0.30874900  0.72287300  0.18452200  1
  C  1165  1  0.29109900  0.74243100  0.17692700  1
  C  1167  1  0.31342000  0.78344700  0.18679900  1
  C  1170  1  0.34740500  0.72042600  0.20406400  1
  C  1174  1  0.31699500  0.81297700  0.18878700  1
  C  1176  1  0.30293800  0.69354100  0.18215400  1
  C  1178  1  0.10599000  0.27261200  0.69440700  1
  C  1179  1  0.12509500  0.28572200  0.68453100  1
  C  1180  1  0.14273100  0.26616900  0.67692600  1
  C  1182  1  0.12039000  0.22515000  0.68678900  1
  C  1185  1  0.08641900  0.28817100  0.70406500  1
  C  1189  1  0.11681200  0.19562000  0.68878200  1
  C  1191  1  0.13088400  0.31505600  0.68215100  1
  C  1193  1  0.82784600  0.27259300  0.69440700  1
  C  1194  1  0.80873400  0.28570500  0.68453800  1
  C  1195  1  0.79110500  0.26616000  0.67692000  1
  C  1197  1  0.81342700  0.22513900  0.68678700  1
  C  1200  1  0.84740500  0.28816300  0.70406500  1
  C  1204  1  0.81698600  0.19562400  0.68880200  1
  C  1206  1  0.80289700  0.31504900  0.68221800  1
  C  1208  1  0.60598300  0.73599800  0.19440800  1
  C  1209  1  0.62509400  0.72288500  0.18453600  1
  C  1210  1  0.64272300  0.74243700  0.17692100  1
  C  1212  1  0.62040800  0.78345400  0.18679500  1
  C  1215  1  0.58641900  0.72043000  0.20406400  1
  C  1219  1  0.61681000  0.81297100  0.18879400  1
  C  1221  1  0.63090800  0.69354500  0.18218300  1
  C  1223  1  0.60597000  0.27260100  0.78234000  1
  C  1224  1  0.62510300  0.28572000  0.79219700  1
  C  1225  1  0.64270800  0.26617700  0.79982700  1
  C  1227  1  0.62041400  0.22515800  0.78995100  1
  C  1230  1  0.58641500  0.28816900  0.77268000  1
  C  1234  1  0.61691100  0.19563200  0.78794300  1
  C  1236  1  0.63092500  0.31506200  0.79452200  1
  C  1238  1  0.82785000  0.73599000  0.28234000  1
  C  1239  1  0.80871700  0.72287300  0.29220000  1
  C  1240  1  0.79110700  0.74242200  0.29982400  1
  C  1242  1  0.81341600  0.78344100  0.28994900  1
  C  1245  1  0.84740900  0.72042600  0.27268000  1
  C  1249  1  0.81697300  0.81296700  0.28795400  1
  C  1251  1  0.80292100  0.69353500  0.29455700  1
  C  1253  1  0.45179400  0.61691800  0.53234100  1
  C  1254  1  0.43860000  0.59791500  0.54221800  1
  C  1255  1  0.45824500  0.58034500  0.54982300  1
  C  1257  1  0.49945100  0.60255300  0.53995600  1
  C  1260  1  0.43616200  0.63639100  0.52268000  1
  C  1264  1  0.52909500  0.60605000  0.53793100  1
  C  1266  1  0.40910700  0.59205800  0.54451000  1
  C  1268  1  0.98204300  0.39168300  0.03234200  1
  C  1269  1  0.99523200  0.41068200  0.04222400  1
  C  1270  1  0.97558100  0.42825800  0.04982100  1
  C  1272  1  0.93437700  0.40606700  0.03993900  1
  C  1275  1  0.99767100  0.37220400  0.02268200  1
  C  1279  1  0.90472900  0.40251500  0.03794100  1
  C  1281  1  0.02472200  0.41651100  0.04455300  1
  C  1283  1  0.98203500  0.61691600  0.94440500  1
  C  1284  1  0.99520900  0.59790900  0.93452200  1
  C  1285  1  0.97556400  0.58033700  0.92692600  1
  C  1287  1  0.93435500  0.60254900  0.93679900  1
  C  1290  1  0.99766900  0.63639300  0.95406300  1
  C  1294  1  0.90468200  0.60603300  0.93881400  1
  C  1296  1  0.02466800  0.59212200  0.93215500  1
  C  1298  1  0.45179100  0.39168100  0.44440500  1
  C  1299  1  0.43862000  0.41070300  0.43452900  1
  C  1300  1  0.45825800  0.42826000  0.42692400  1
  C  1302  1  0.49947100  0.40604000  0.43678900  1
  C  1305  1  0.43615800  0.37220200  0.45406400  1
  C  1309  1  0.52914200  0.40257300  0.43881900  1
  C  1311  1  0.40915800  0.41647000  0.43215300  1
  C  1313  1  0.11854200  0.03168600  0.99031400  1
  C  1314  1  0.13147600  0.01724300  0.00200100  1
  C  1315  1  0.14299600  0.98985600  0.99900100  1
  C  1317  1  0.12854100  0.99184300  0.97481000  1
  C  1320  1  0.10534200  0.06050000  0.99039300  1
  C  1324  1  0.12447100  0.98202800  0.96097800  1
  C  1326  1  0.13357700  0.02742700  0.01598600  1
  C  1328  1  0.31527800  0.97691600  0.49031100  1
  C  1329  1  0.30234600  0.99136300  0.50199800  1
  C  1330  1  0.29082500  0.01874800  0.49899600  1
  C  1332  1  0.30531600  0.01677200  0.47480400  1
  C  1335  1  0.32848000  0.94810100  0.49039100  1
  C  1339  1  0.30938500  0.02654200  0.46096000  1
  C  1341  1  0.30026400  0.98118600  0.51598500  1
  C  1343  1  0.18941400  0.90635900  0.24031200  1
  C  1344  1  0.20392400  0.91923100  0.25200000  1
  C  1345  1  0.23142800  0.93070900  0.24899800  1
  C  1347  1  0.22943800  0.91629300  0.22480500  1
  C  1350  1  0.16047300  0.89321500  0.24039100  1
  C  1354  1  0.23923700  0.91222800  0.21096200  1
  C  1356  1  0.19370900  0.92131300  0.26598800  1
  C  1358  1  0.24442000  0.10224300  0.74031500  1
  C  1359  1  0.22991600  0.08936800  0.75200300  1
  C  1360  1  0.20240800  0.07789600  0.74900300  1
  C  1362  1  0.20440200  0.09229000  0.72481000  1
  C  1365  1  0.27336100  0.11538600  0.74039200  1
  C  1369  1  0.19454600  0.09634000  0.71097900  1
  C  1371  1  0.24015200  0.08725600  0.76598600  1
  C  1373  1  0.81092800  0.97690600  0.98643000  1
  C  1374  1  0.79796600  0.99133900  0.97474800  1
  C  1375  1  0.78647300  0.01874000  0.97774000  1
  C  1377  1  0.80092800  0.01675000  0.00192600  1
  C  1380  1  0.82413200  0.94809300  0.98635300  1
  C  1384  1  0.80500300  0.02653300  0.01575000  1
  C  1386  1  0.79581300  0.98115400  0.96077000  1
  C  1388  1  0.62289800  0.03168600  0.48643000  1
  C  1389  1  0.63585800  0.01725200  0.47474700  1
  C  1390  1  0.64735400  0.98985400  0.47774200  1
  C  1392  1  0.63288500  0.99183800  0.50192700  1
  C  1395  1  0.60969400  0.06050000  0.48635400  1
  C  1399  1  0.62880600  0.98208000  0.51575800  1
  C  1401  1  0.63801700  0.02743900  0.46076900  1
  C  1403  1  0.74441400  0.10224000  0.73643100  1
  C  1404  1  0.72990100  0.08936600  0.72474600  1
  C  1405  1  0.70239800  0.07789000  0.72774900  1
  C  1407  1  0.70439100  0.09230900  0.75194100  1
  C  1410  1  0.77335400  0.11538300  0.73635400  1
  C  1414  1  0.69458300  0.09635800  0.76578400  1
  C  1416  1  0.74011700  0.08726700  0.71075900  1
  C  1418  1  0.68940800  0.90635500  0.23643100  1
  C  1419  1  0.70391700  0.91923300  0.22474400  1
  C  1420  1  0.73142200  0.93070200  0.22774600  1
  C  1422  1  0.72942900  0.91628800  0.25193700  1
  C  1425  1  0.66046500  0.89321200  0.23635500  1
  C  1429  1  0.73926200  0.91224100  0.26577500  1
  C  1431  1  0.69368100  0.92134300  0.21076300  1
  C  1433  1  0.62296400  0.53368100  0.49016100  1
  C  1434  1  0.63584700  0.51936800  0.50190900  1
  C  1435  1  0.64739200  0.49198400  0.49894000  1
  C  1437  1  0.63280600  0.49342400  0.47466800  1
  C  1440  1  0.60973700  0.56254100  0.49033000  1
  C  1444  1  0.62821600  0.48260700  0.46091500  1
  C  1446  1  0.63791200  0.52957600  0.51592500  1
  C  1448  1  0.81085500  0.47492000  0.99015800  1
  C  1449  1  0.79797500  0.48923600  0.00190700  1
  C  1450  1  0.78642800  0.51661700  0.99893500  1
  C  1452  1  0.80103700  0.51518200  0.97466400  1
  C  1455  1  0.82408500  0.44606000  0.99033000  1
  C  1459  1  0.80564800  0.52597100  0.96090500  1
  C  1461  1  0.79592700  0.47903600  0.01592400  1
  C  1463  1  0.68940800  0.40852900  0.74031200  1
  C  1464  1  0.70391100  0.42143100  0.75199300  1
  C  1465  1  0.73142800  0.43287900  0.74899700  1
  C  1467  1  0.72943600  0.41845700  0.72481200  1
  C  1470  1  0.66047000  0.39538100  0.74039300  1
  C  1474  1  0.73922200  0.41439400  0.71097600  1
  C  1476  1  0.69370000  0.42354700  0.76597500  1
  C  1478  1  0.74442700  0.60007200  0.24031400  1
  C  1479  1  0.72992800  0.58716800  0.25199600  1
  C  1480  1  0.70240800  0.57572400  0.24900200  1
  C  1482  1  0.70440300  0.59012500  0.22481700  1
  C  1485  1  0.77336500  0.61321900  0.24039200  1
  C  1489  1  0.69456200  0.59417500  0.21099100  1
  C  1491  1  0.74016000  0.58502200  0.26597400  1
  C  1493  1  0.31521000  0.47490900  0.48658300  1
  C  1494  1  0.30229700  0.48921500  0.47484000  1
  C  1495  1  0.29077700  0.51660900  0.47780300  1
  C  1497  1  0.30536100  0.51516200  0.50206900  1
  C  1500  1  0.32843900  0.44605100  0.48641500  1
  C  1504  1  0.30998300  0.52596600  0.51581300  1
  C  1506  1  0.30018000  0.47900600  0.46083100  1
  C  1508  1  0.11862000  0.53368600  0.98658300  1
  C  1509  1  0.13152800  0.51937800  0.97483800  1
  C  1510  1  0.14305300  0.49198600  0.97780400  1
  C  1512  1  0.12844200  0.49342400  0.00206900  1
  C  1515  1  0.10538700  0.56254300  0.98641500  1
  C  1519  1  0.12382100  0.48264100  0.01581700  1
  C  1521  1  0.13365000  0.52958900  0.96083100  1
  C  1523  1  0.24441800  0.60007000  0.23643200  1
  C  1524  1  0.22991600  0.58716600  0.22475300  1
  C  1525  1  0.20239900  0.57571800  0.22775000  1
  C  1527  1  0.20439200  0.59014500  0.25193400  1
  C  1530  1  0.27335900  0.61321600  0.23635300  1
  C  1534  1  0.19459700  0.59419200  0.26577100  1
  C  1536  1  0.24012600  0.58503100  0.21077200  1
  C  1538  1  0.18940300  0.40852300  0.73643100  1
  C  1539  1  0.20390200  0.42143300  0.72475100  1
  C  1540  1  0.23142200  0.43287500  0.72774700  1
  C  1542  1  0.22942900  0.41845200  0.75193000  1
  C  1545  1  0.16046400  0.39537800  0.73635400  1
  C  1549  1  0.23924700  0.41440700  0.76576100  1
  C  1551  1  0.19367300  0.42357700  0.71077500  1
  C  1553  1  0.26118300  0.07216500  0.10997800  1
  C  1554  1  0.24004900  0.05620500  0.10246000  1
  C  1555  1  0.23724200  0.02719400  0.10705900  1
  C  1557  1  0.27305900  0.03116900  0.12461500  1
  C  1560  1  0.26776800  0.10264300  0.10735300  1
  C  1564  1  0.29075600  0.01992200  0.13520900  1
  C  1566  1  0.21825400  0.06755600  0.09345300  1
  C  1568  1  0.17263800  0.93642900  0.60997200  1
  C  1569  1  0.19376000  0.95238500  0.60244400  1
  C  1570  1  0.19657900  0.98138800  0.60704900  1
  C  1572  1  0.16076600  0.97742600  0.62461300  1
  C  1575  1  0.16605900  0.90595200  0.60735300  1
  C  1579  1  0.14306600  0.98866100  0.63521100  1
  C  1581  1  0.21562300  0.94108600  0.59347600  1
  C  1583  1  0.14874800  0.04837500  0.35997200  1
  C  1584  1  0.16477900  0.02733800  0.35244500  1
  C  1585  1  0.19390400  0.02454500  0.35705000  1
  C  1587  1  0.18992400  0.06021000  0.37460700  1
  C  1590  1  0.11813800  0.05493000  0.35735300  1
  C  1594  1  0.20121100  0.07782700  0.38520700  1
  C  1596  1  0.15341800  0.00558500  0.34347600  1
  C  1598  1  0.28529400  0.95997200  0.86018100  1
  C  1599  1  0.26926400  0.98105600  0.85295900  1
  C  1600  1  0.23997600  0.98396300  0.85725100  1
  C  1602  1  0.24386700  0.94835100  0.87466500  1
  C  1605  1  0.31578400  0.95355200  0.85738000  1
  C  1609  1  0.23259000  0.93074100  0.88522400  1
  C  1611  1  0.27815600  0.00017000  0.84250900  1
  C  1613  1  0.66811900  0.93613000  0.86661000  1
  C  1614  1  0.68934200  0.95201600  0.87378900  1
  C  1615  1  0.69229900  0.98127300  0.86958100  1
  C  1617  1  0.65676700  0.97718300  0.85219800  1
  C  1620  1  0.66160500  0.90580700  0.86938400  1
  C  1624  1  0.64011100  0.98855500  0.84149500  1
  C  1626  1  0.70805700  0.94245200  0.88422700  1
  C  1628  1  0.76570700  0.07246400  0.36661100  1
  C  1629  1  0.74448700  0.05657500  0.37379100  1
  C  1630  1  0.74153000  0.02731700  0.36958400  1
  C  1632  1  0.77706600  0.03140900  0.35220100  1
  C  1635  1  0.77222100  0.10278700  0.36938400  1
  C  1639  1  0.79372200  0.02004800  0.34149300  1
  C  1641  1  0.72577100  0.06616500  0.38422200  1
  C  1643  1  0.78533300  0.96039200  0.61690300  1
  C  1644  1  0.76908800  0.98131200  0.62438400  1
  C  1645  1  0.74000200  0.98407000  0.61970900  1
  C  1647  1  0.74458500  0.94846000  0.60230700  1
  C  1650  1  0.81585900  0.95372900  0.61945500  1
  C  1654  1  0.73424800  0.93058100  0.59182500  1
  C  1656  1  0.78014900  0.00315400  0.63329300  1
  C  1658  1  0.64826600  0.04845500  0.11669000  1
  C  1659  1  0.66451700  0.02743000  0.12382100  1
  C  1660  1  0.69377900  0.02461800  0.11948800  1
  C  1662  1  0.68927100  0.06016300  0.10223800  1
  C  1665  1  0.61786200  0.05498500  0.11942800  1
  C  1669  1  0.69960400  0.07805200  0.09180700  1
  C  1671  1  0.65598700  0.00836600  0.13427000  1
  C  1673  1  0.76552900  0.57441900  0.60991900  1
  C  1674  1  0.74439900  0.55840900  0.60241000  1
  C  1675  1  0.74154900  0.52941400  0.60698000  1
  C  1677  1  0.77705900  0.53358700  0.62452200  1
  C  1680  1  0.77211400  0.60487400  0.60733100  1
  C  1684  1  0.79384600  0.52216700  0.63524600  1
  C  1686  1  0.72254200  0.56951800  0.59343200  1
  C  1688  1  0.66829100  0.43417400  0.10991300  1
  C  1689  1  0.68940800  0.45018400  0.10239300  1
  C  1690  1  0.69227100  0.47917000  0.10696800  1
  C  1692  1  0.65676500  0.47500800  0.12452100  1
  C  1695  1  0.66171300  0.40372000  0.10733100  1
  C  1699  1  0.63998200  0.48640900  0.13525400  1
  C  1701  1  0.71133100  0.43912800  0.09345600  1
  C  1703  1  0.64848500  0.55036500  0.85983400  1
  C  1704  1  0.66469700  0.52938600  0.85237900  1
  C  1705  1  0.69381200  0.52666000  0.85702300  1
  C  1707  1  0.68921100  0.56227000  0.87441100  1
  C  1710  1  0.61796300  0.55703700  0.85728900  1
  C  1714  1  0.69954800  0.58005300  0.88489500  1
  C  1716  1  0.65341800  0.50763300  0.84345100  1
  C  1718  1  0.78555800  0.45798600  0.36004500  1
  C  1719  1  0.76934700  0.47901400  0.35290200  1
  C  1720  1  0.74006200  0.48185000  0.35722800  1
  C  1722  1  0.74457900  0.44628800  0.37447400  1
  C  1725  1  0.81595700  0.45144500  0.35731800  1
  C  1729  1  0.73427400  0.42852700  0.38492700  1
  C  1731  1  0.77815400  0.49807300  0.34247300  1
  C  1733  1  0.17244100  0.43404200  0.36654500  1
  C  1734  1  0.19362400  0.44995800  0.37372400  1
  C  1735  1  0.19655100  0.47919800  0.36947900  1
  C  1737  1  0.16075000  0.47525900  0.35210100  1
  C  1740  1  0.16595200  0.40369900  0.36936200  1
  C  1744  1  0.14316400  0.48646400  0.34154200  1
  C  1746  1  0.21233500  0.44046800  0.38417100  1
  C  1748  1  0.26143400  0.57457200  0.86656300  1
  C  1749  1  0.24027400  0.55855400  0.87377200  1
  C  1750  1  0.23736600  0.52942100  0.86947300  1
  C  1752  1  0.27310100  0.53334400  0.85209900  1
  C  1755  1  0.26787700  0.60492100  0.86936800  1
  C  1759  1  0.29066600  0.52213500  0.84153700  1
  C  1761  1  0.22113000  0.56720700  0.88421500  1
  C  1763  1  0.28508800  0.45805500  0.11677400  1
  C  1764  1  0.26901300  0.47902900  0.12432500  1
  C  1765  1  0.23991800  0.48186200  0.11969300  1
  C  1767  1  0.24393800  0.44622000  0.10216400  1
  C  1770  1  0.31569400  0.45150500  0.11939500  1
  C  1774  1  0.23266700  0.42871900  0.09155900  1
  C  1776  1  0.28014900  0.50087200  0.13326500  1
  C  1778  1  0.14850700  0.55079400  0.61656400  1
  C  1779  1  0.16459000  0.52971100  0.62376700  1
  C  1780  1  0.19385600  0.52682800  0.61947300  1
  C  1782  1  0.18991500  0.56240900  0.60209900  1
  C  1785  1  0.11802600  0.55721000  0.61936900  1
  C  1789  1  0.20118300  0.57990800  0.59154200  1
  C  1791  1  0.15591600  0.51065000  0.63421600  1
  N  17  1  0.08722400  0.11880200  0.06529600  1
  N  18  1  0.16453800  0.05395300  0.06774300  1
  N  23  1  0.17586600  0.17234500  0.07549000  1
  N  24  1  0.21307800  0.08003800  0.08153300  1
  N  25  1  0.04557500  0.09448900  0.04583200  1
  N  26  1  0.11810500  0.04777000  0.02089600  1
  N  43  1  0.34661000  0.88980900  0.56530100  1
  N  44  1  0.26928300  0.95464500  0.56774100  1
  N  49  1  0.25796000  0.83625200  0.57548900  1
  N  50  1  0.22066900  0.92852800  0.58154800  1
  N  51  1  0.38825300  0.91415900  0.54581000  1
  N  52  1  0.31573000  0.96083800  0.52089700  1
  N  69  1  0.10191300  0.87515600  0.31529900  1
  N  70  1  0.16704600  0.95216100  0.31773700  1
  N  75  1  0.04813300  0.96342800  0.32548800  1
  N  76  1  0.14082200  0.00054900  0.33154500  1
  N  77  1  0.12635700  0.83370000  0.29582400  1
  N  78  1  0.17326800  0.90592200  0.27089700  1
  N  95  1  0.33192600  0.13343600  0.81529800  1
  N  96  1  0.26685700  0.05667300  0.81772900  1
  N  101  1  0.38575700  0.04517800  0.82549800  1
  N  102  1  0.29313700  0.01546700  0.83439000  1
  N  103  1  0.30747600  0.17489300  0.79582600  1
  N  104  1  0.26057300  0.10268100  0.77089000  1
  N  121  1  0.34653300  0.11878900  0.41144100  1
  N  122  1  0.26908600  0.05374100  0.40875100  1
  N  127  1  0.25779100  0.17200200  0.40129900  1
  N  128  1  0.22694800  0.07684700  0.39039900  1
  N  129  1  0.38827500  0.09445500  0.43089500  1
  N  130  1  0.31324000  0.05283300  0.45750500  1
  N  147  1  0.08728600  0.88981400  0.91143300  1
  N  148  1  0.16474100  0.95485600  0.90875400  1
  N  153  1  0.17603300  0.83659100  0.90129800  1
  N  154  1  0.20685800  0.93174600  0.89040700  1
  N  155  1  0.04555600  0.91417000  0.93090500  1
  N  156  1  0.12059300  0.95575800  0.95749300  1
  N  173  1  0.33190200  0.87523100  0.16143700  1
  N  174  1  0.26656800  0.95236200  0.15875600  1
  N  179  1  0.38535000  0.96359500  0.15129900  1
  N  180  1  0.28976400  0.99429800  0.14040400  1
  N  181  1  0.30745300  0.83368100  0.18089700  1
  N  182  1  0.26564500  0.90841800  0.20750200  1
  N  199  1  0.10191400  0.13336800  0.66143800  1
  N  200  1  0.16726000  0.05624400  0.65875100  1
  N  205  1  0.04847600  0.04499900  0.65129900  1
  N  206  1  0.14404500  0.01428800  0.64040300  1
  N  207  1  0.12637100  0.17491600  0.68089800  1
  N  208  1  0.16816200  0.10020400  0.70749400  1
  N  225  1  0.84208000  0.88939800  0.91153400  1
  N  226  1  0.76515400  0.95456400  0.90901600  1
  N  231  1  0.75362100  0.83617300  0.90124200  1
  N  232  1  0.72411700  0.92962500  0.89283300  1
  N  233  1  0.88131500  0.90462000  0.93444300  1
  N  234  1  0.81137600  0.96090400  0.95585500  1
  N  251  1  0.59173500  0.11917800  0.41153100  1
  N  252  1  0.66867000  0.05403300  0.40901800  1
  N  257  1  0.68020100  0.17242400  0.40124500  1
  N  258  1  0.70970300  0.07895500  0.39283800  1
  N  259  1  0.55251300  0.10396600  0.43445700  1
  N  260  1  0.62244400  0.04768600  0.45585700  1
  N  277  1  0.83190600  0.13346800  0.66145100  1
  N  278  1  0.76643500  0.05652000  0.65905400  1
  N  283  1  0.88149100  0.04641200  0.65182300  1
  N  284  1  0.79270400  0.00776800  0.64524900  1
  N  285  1  0.80746800  0.17491200  0.68092300  1
  N  286  1  0.76054700  0.10268600  0.70586100  1
  N  303  1  0.60190900  0.87512700  0.16145200  1
  N  304  1  0.66730500  0.95181800  0.15905300  1
  N  309  1  0.55229300  0.96230600  0.15179900  1
  N  310  1  0.64106900  0.99316500  0.14238900  1
  N  311  1  0.62636300  0.83367900  0.18092500  1
  N  312  1  0.67326600  0.90590500  0.20586700  1
  N  329  1  0.59178000  0.88940400  0.56521600  1
  N  330  1  0.66881400  0.95493100  0.56787100  1
  N  335  1  0.68035900  0.83654400  0.57545000  1
  N  336  1  0.70919000  0.93211700  0.58615100  1
  N  337  1  0.55251600  0.90464600  0.54233400  1
  N  338  1  0.62502100  0.95582000  0.51927600  1
  N  355  1  0.84204600  0.11917400  0.06522700  1
  N  356  1  0.76501000  0.05366500  0.06786800  1
  N  361  1  0.75347100  0.17205500  0.07545000  1
  N  362  1  0.72465300  0.07648300  0.08614200  1
  N  363  1  0.88130600  0.10395000  0.04234500  1
  N  364  1  0.80880000  0.05278500  0.01927800  1
  N  381  1  0.60192600  0.13339800  0.81530300  1
  N  382  1  0.66754500  0.05628000  0.81796800  1
  N  387  1  0.55220700  0.04286500  0.82513600  1
  N  388  1  0.64359100  0.01384700  0.83621900  1
  N  389  1  0.62635900  0.17492100  0.79585200  1
  N  390  1  0.66817300  0.10018800  0.76922800  1
  N  407  1  0.83190400  0.87519300  0.31530300  1
  N  408  1  0.76628500  0.95230600  0.31797300  1
  N  413  1  0.88117300  0.96315500  0.32522000  1
  N  414  1  0.79026700  0.99474800  0.33622100  1
  N  415  1  0.80745300  0.83367000  0.29584700  1
  N  416  1  0.76566000  0.90837700  0.26922900  1
  N  433  1  0.59153800  0.62095900  0.56529100  1
  N  434  1  0.66880500  0.55578400  0.56769900  1
  N  439  1  0.67834100  0.67074700  0.57432700  1
  N  440  1  0.71769900  0.58192200  0.58148300  1
  N  441  1  0.54990400  0.59663700  0.54582400  1
  N  442  1  0.62245400  0.54991100  0.52086600  1
  N  459  1  0.84228800  0.38764900  0.06529600  1
  N  460  1  0.76501700  0.45282300  0.06769600  1
  N  465  1  0.75474800  0.33828300  0.07492400  1
  N  466  1  0.71604100  0.42666200  0.08149800  1
  N  467  1  0.88391400  0.41199600  0.04581000  1
  N  468  1  0.81138500  0.45869900  0.02086700  1
  N  485  1  0.60152600  0.37750600  0.81521800  1
  N  486  1  0.66706700  0.45435700  0.81775200  1
  N  491  1  0.54813100  0.46559700  0.82548900  1
  N  492  1  0.64078800  0.50273900  0.83152700  1
  N  493  1  0.61679700  0.33844600  0.79231700  1
  N  494  1  0.67334800  0.40807500  0.77089600  1
  N  511  1  0.83231500  0.63109100  0.31521400  1
  N  512  1  0.76683600  0.55448100  0.31774200  1
  N  517  1  0.88576100  0.54300900  0.32550000  1
  N  518  1  0.79315200  0.51333200  0.33437000  1
  N  519  1  0.81702200  0.67015400  0.29230300  1
  N  520  1  0.76049300  0.60052400  0.27088900  1
  N  537  1  0.84220900  0.62085200  0.91151800  1
  N  538  1  0.76515400  0.55551800  0.90893400  1
  N  543  1  0.75460900  0.67013400  0.90195400  1
  N  544  1  0.72456700  0.57811800  0.89058400  1
  N  545  1  0.88382400  0.59648800  0.93098100  1
  N  546  1  0.80888800  0.55251000  0.95745500  1
  N  563  1  0.59161300  0.38775100  0.41151000  1
  N  564  1  0.66867000  0.45308400  0.40893600  1
  N  569  1  0.68247800  0.33826000  0.40146500  1
  N  570  1  0.70924600  0.43048300  0.39059100  1
  N  571  1  0.55000900  0.41212900  0.43099300  1
  N  572  1  0.62494600  0.45608300  0.45744500  1
  N  589  1  0.83228500  0.37757400  0.66152200  1
  N  590  1  0.76660000  0.45462000  0.65872600  1
  N  595  1  0.88543100  0.46568400  0.65130200  1
  N  596  1  0.79076700  0.49682500  0.64053100  1
  N  597  1  0.81699700  0.33846700  0.68438900  1
  N  598  1  0.76561000  0.41067100  0.70747000  1
  N  615  1  0.60152600  0.63102500  0.16152400  1
  N  616  1  0.66722800  0.55398600  0.15872000  1
  N  621  1  0.54839500  0.54290900  0.15130100  1
  N  622  1  0.64304200  0.51176200  0.14052900  1
  N  623  1  0.61683200  0.67013200  0.18440000  1
  N  624  1  0.66819700  0.59795300  0.20746300  1
  N  641  1  0.34646700  0.38723900  0.41154000  1
  N  642  1  0.26960700  0.45273200  0.40905500  1
  N  647  1  0.25910300  0.33821500  0.40180100  1
  N  648  1  0.22843100  0.42799800  0.39285800  1
  N  649  1  0.38568600  0.40245300  0.43446000  1
  N  650  1  0.31573200  0.45876500  0.45588400  1
  N  667  1  0.08735300  0.62133900  0.91153500  1
  N  668  1  0.16424300  0.55584200  0.90903700  1
  N  673  1  0.17476600  0.67038400  0.90182900  1
  N  674  1  0.20569000  0.58172800  0.89241900  1
  N  675  1  0.04814200  0.60613500  0.93446400  1
  N  676  1  0.11808600  0.54982300  0.95588800  1
  N  693  1  0.33229200  0.63112900  0.16153800  1
  N  694  1  0.26641600  0.55432100  0.15903600  1
  N  699  1  0.38147100  0.54417000  0.15180100  1
  N  700  1  0.29267400  0.50558900  0.14522500  1
  N  701  1  0.31702200  0.67017300  0.18445800  1
  N  702  1  0.26046500  0.60052800  0.20586200  1
  N  719  1  0.10151600  0.37747000  0.66153800  1
  N  720  1  0.16732400  0.45402200  0.65903400  1
  N  725  1  0.05229200  0.46447600  0.65179800  1
  N  726  1  0.14130400  0.49529700  0.64241900  1
  N  727  1  0.11680300  0.33842200  0.68446100  1
  N  728  1  0.17334600  0.40806000  0.70586800  1
  N  745  1  0.08747600  0.38736900  0.06514700  1
  N  746  1  0.16465700  0.45304700  0.06796600  1
  N  751  1  0.17496400  0.33853900  0.07485500  1
  N  752  1  0.20696200  0.43011400  0.08636600  1
  N  753  1  0.04829100  0.40262200  0.04225600  1
  N  754  1  0.12069500  0.45612600  0.01933000  1
  N  771  1  0.34635100  0.62120900  0.56515800  1
  N  772  1  0.26916700  0.55553900  0.56796300  1
  N  777  1  0.25890800  0.67003800  0.57485900  1
  N  778  1  0.22688100  0.57847900  0.58635900  1
  N  779  1  0.38553200  0.60597300  0.54226700  1
  N  780  1  0.31312200  0.55247500  0.51933100  1
  N  797  1  0.10154500  0.63104200  0.31522000  1
  N  798  1  0.16761900  0.55414600  0.31796700  1
  N  803  1  0.05245200  0.54146900  0.32525100  1
  N  804  1  0.14460800  0.51204700  0.33635400  1
  N  805  1  0.11682400  0.67014300  0.29234800  1
  N  806  1  0.16820500  0.59793200  0.26926000  1
  N  823  1  0.33229200  0.37755100  0.81521600  1
  N  824  1  0.26620400  0.45443800  0.81797300  1
  N  829  1  0.38106000  0.46508500  0.82526500  1
  N  830  1  0.28923700  0.49654700  0.83635400  1
  N  831  1  0.31699700  0.33845200  0.79233600  1
  N  832  1  0.26562500  0.41062900  0.76926100  1
  N  836  1  0.18020600  0.23482900  0.08263900  1
  N  838  1  0.15654900  0.24086300  0.06104800  1
  N  851  1  0.25362300  0.77379100  0.58264200  1
  N  853  1  0.27727600  0.76772100  0.56105200  1
  N  866  1  0.98539000  0.96779400  0.33265500  1
  N  868  1  0.97929800  0.94423300  0.31106700  1
  N  881  1  0.44838200  0.04081700  0.83266200  1
  N  883  1  0.45456400  0.06436200  0.81107800  1
  N  896  1  0.25362100  0.23474200  0.39409900  1
  N  898  1  0.27727400  0.24078200  0.41568700  1
  N  911  1  0.18020500  0.77385700  0.89410000  1
  N  913  1  0.15655400  0.76780400  0.91568700  1
  N  926  1  0.44836100  0.96774900  0.14409900  1
  N  928  1  0.45442700  0.94420100  0.16568700  1
  N  941  1  0.98545500  0.04085500  0.64409900  1
  N  943  1  0.97940100  0.06440000  0.66568700  1
  N  956  1  0.74927400  0.77376800  0.89411000  1
  N  958  1  0.77293200  0.76773000  0.91570200  1
  N  971  1  0.68458700  0.23475900  0.39408300  1
  N  973  1  0.66094100  0.24092100  0.41566800  1
  N  986  1  0.68451400  0.77378000  0.58260700  1
  N  988  1  0.66086800  0.76780900  0.56102700  1
  N  1001  1  0.74926900  0.23474600  0.08264600  1
  N  1003  1  0.77292100  0.24080800  0.06105800  1
  N  1016  1  0.48540300  0.46993200  0.83266200  1
  N  1018  1  0.47931600  0.44638000  0.81106800  1
  N  1031  1  0.94841400  0.53867200  0.33266800  1
  N  1033  1  0.95452100  0.56222600  0.31107400  1
  N  1046  1  0.94836300  0.46991500  0.64410000  1
  N  1048  1  0.95444000  0.44636300  0.66569000  1
  N  1061  1  0.48545700  0.53868400  0.14409900  1
  N  1063  1  0.47938200  0.56223400  0.16569000  1
  N  1076  1  0.98283000  0.08077700  0.04867700  1
  N  1078  1  0.97674900  0.11608400  0.03178000  1
  N  1091  1  0.45098400  0.92781600  0.54867800  1
  N  1093  1  0.45708600  0.89251500  0.53178500  1
  N  1106  1  0.14009100  0.77123900  0.29868600  1
  N  1108  1  0.10463500  0.76517200  0.28178700  1
  N  1121  1  0.29373000  0.23736000  0.79868000  1
  N  1123  1  0.32918700  0.24342700  0.78178200  1
  N  1136  1  0.45099900  0.08078100  0.42807200  1
  N  1138  1  0.45709500  0.11608300  0.44496700  1
  N  1151  1  0.98282300  0.92781600  0.92806800  1
  N  1153  1  0.97672700  0.89251700  0.94496600  1
  N  1166  1  0.29373700  0.77123100  0.17806900  1
  N  1168  1  0.32918700  0.76515500  0.19496500  1
  N  1181  1  0.14009000  0.23736800  0.67806700  1
  N  1183  1  0.10463800  0.24344200  0.69496300  1
  N  1196  1  0.79373200  0.23735800  0.67806200  1
  N  1198  1  0.82918900  0.24342300  0.69495800  1
  N  1211  1  0.64009400  0.77123900  0.17806400  1
  N  1213  1  0.60463700  0.76516700  0.19496200  1
  N  1226  1  0.64009600  0.23737700  0.79868100  1
  N  1228  1  0.60463500  0.24343200  0.78178100  1
  N  1241  1  0.79373400  0.77122200  0.29868100  1
  N  1243  1  0.82919100  0.76515900  0.28178200  1
  N  1256  1  0.48717500  0.58294600  0.54867900  1
  N  1258  1  0.48109200  0.61824900  0.53178300  1
  N  1271  1  0.94665100  0.42565100  0.04867700  1
  N  1273  1  0.95274500  0.39035400  0.03178000  1
  N  1286  1  0.94663800  0.58295300  0.92807100  1
  N  1288  1  0.95273400  0.61824700  0.94496500  1
  N  1301  1  0.48718600  0.42564700  0.42807100  1
  N  1303  1  0.48109200  0.39035000  0.44496200  1
  N  1316  1  0.14118500  0.97781300  0.98582800  1
  N  1318  1  0.11780900  0.01819300  0.97751800  1
  N  1331  1  0.29265200  0.03079600  0.48582100  1
  N  1333  1  0.31602600  0.99041500  0.47751600  1
  N  1346  1  0.24352700  0.92889500  0.23582400  1
  N  1348  1  0.20297000  0.90562300  0.22751700  1
  N  1361  1  0.19031300  0.07969900  0.73582900  1
  N  1363  1  0.23086900  0.10297200  0.72751900  1
  N  1376  1  0.78828700  0.03078700  0.99091200  1
  N  1378  1  0.81166500  0.99040200  0.99922300  1
  N  1391  1  0.64553400  0.97780400  0.49091300  1
  N  1393  1  0.62216100  0.01818900  0.49922400  1
  N  1406  1  0.69030200  0.07970600  0.74092400  1
  N  1408  1  0.73086100  0.10297600  0.74922800  1
  N  1421  1  0.74351800  0.92888700  0.24092000  1
  N  1423  1  0.70296100  0.90561400  0.24922600  1
  N  1436  1  0.64545300  0.47974200  0.48580400  1
  N  1438  1  0.62217600  0.51994100  0.47736600  1
  N  1451  1  0.78838000  0.52886400  0.98579900  1
  N  1453  1  0.81165500  0.48866200  0.97736400  1
  N  1466  1  0.74353100  0.43105900  0.73582600  1
  N  1468  1  0.70296800  0.40778500  0.72751900  1
  N  1481  1  0.69031000  0.57753300  0.23583100  1
  N  1483  1  0.73087100  0.60081000  0.22752000  1
  N  1496  1  0.29272300  0.52885500  0.49093700  1
  N  1498  1  0.31600000  0.48864900  0.49937600  1
  N  1511  1  0.14110100  0.47973800  0.99093800  1
  N  1513  1  0.11782500  0.51994600  0.99937500  1
  N  1526  1  0.19029900  0.57754200  0.24092200  1
  N  1528  1  0.23086300  0.60081400  0.24922600  1
  N  1541  1  0.24352200  0.43105100  0.74091800  1
  N  1543  1  0.20296000  0.40777600  0.74922400  1
  N  1556  1  0.25325500  0.01556200  0.11755300  1
  N  1558  1  0.27662900  0.05885800  0.12044200  1
  N  1571  1  0.18057300  0.99302700  0.61754800  1
  N  1573  1  0.15719800  0.94973800  0.62044000  1
  N  1586  1  0.20559200  0.04048200  0.36754900  1
  N  1588  1  0.16211200  0.06375400  0.37043900  1
  N  1601  1  0.22816700  0.96807900  0.86763900  1
  N  1603  1  0.27172600  0.94471100  0.87056700  1
  N  1616  1  0.67642300  0.99296500  0.85919800  1
  N  1618  1  0.65280300  0.94952900  0.85623100  1
  N  1631  1  0.75740100  0.01562900  0.35919700  1
  N  1633  1  0.78102300  0.05906400  0.35623200  1
  N  1646  1  0.72849300  0.96805200  0.60921500  1
  N  1648  1  0.77224900  0.94494600  0.60646900  1
  N  1661  1  0.70540600  0.04059400  0.10912000  1
  N  1663  1  0.66156000  0.06378800  0.10633700  1
  N  1676  1  0.75740100  0.51785900  0.61749000  1
  N  1678  1  0.78092100  0.56121600  0.62041100  1
  N  1691  1  0.67642900  0.49072900  0.11748600  1
  N  1693  1  0.65290800  0.44737900  0.12040800  1
  N  1706  1  0.70532300  0.54269100  0.86751100  1
  N  1708  1  0.66155800  0.56581400  0.87026400  1
  N  1721  1  0.72843300  0.46586800  0.36760500  1
  N  1723  1  0.77227900  0.44265500  0.37039400  1
  N  1736  1  0.18053600  0.49094500  0.35911700  1
  N  1738  1  0.15707700  0.44754300  0.35619400  1
  N  1751  1  0.25330200  0.51768000  0.85910000  1
  N  1753  1  0.27677200  0.56107800  0.85617900  1
  N  1766  1  0.22824400  0.46594600  0.10919700  1
  N  1768  1  0.27174500  0.44266800  0.10631100  1
  N  1781  1  0.20564900  0.54270000  0.60910300  1
  N  1783  1  0.16206200  0.56606800  0.60618000  1
