# generated using pymatgen
data_H28C41(N2O)4
_symmetry_space_group_name_H-M   'P 1'
_cell_length_a   41.58920000
_cell_length_b   44.69610000
_cell_length_c   44.69610000
_cell_angle_alpha   90.00000000
_cell_angle_beta   90.00000000
_cell_angle_gamma   90.00000000
_symmetry_Int_Tables_number   1
_chemical_formula_structural   H28C41(N2O)4
_chemical_formula_sum   'H672 C984 N192 O96'
_cell_volume   83084.46477010
_cell_formula_units_Z   24
loop_
 _symmetry_equiv_pos_site_id
 _symmetry_equiv_pos_as_xyz
  1  'x, y, z'
loop_
 _atom_site_type_symbol
 _atom_site_label
 _atom_site_symmetry_multiplicity
 _atom_site_fract_x
 _atom_site_fract_y
 _atom_site_fract_z
 _atom_site_occupancy
  H  26  1  0.09861100  0.19453300  0.21579800  1
  H  27  1  0.13563100  0.16368900  0.19000300  1
  H  28  1  0.05267100  0.21484300  0.13425200  1
  H  29  1  0.08968100  0.18365500  0.10840400  1
  H  30  1  0.14014400  0.16342000  0.06748100  1
  H  31  1  0.17253700  0.19889100  0.04246400  1
  H  32  1  0.21476900  0.22337000  0.12453700  1
  H  33  1  0.18312600  0.18680800  0.14956800  1
  H  34  1  0.20446600  0.13211900  0.13369100  1
  H  35  1  0.23051000  0.09710700  0.16533300  1
  H  36  1  0.14080900  0.07221700  0.20146200  1
  H  37  1  0.11493400  0.10767700  0.17042600  1
  H  38  1  0.07254100  0.12858600  0.12493600  1
  H  39  1  0.16251500  0.10894300  0.08640300  1
  H  40  1  0.13771400  0.07337800  0.05459000  1
  H  41  1  0.04764700  0.09356800  0.09276300  1
  H  44  1  0.21675400  0.25657500  0.07682800  1
  H  45  1  0.02547100  0.22316700  0.18494400  1
  H  47  1  0.18890400  0.04177800  0.21074600  1
  H  49  1  0.09041200  0.04242900  0.04322900  1
  H  75  1  0.60356100  0.59605600  0.04286500  1
  H  76  1  0.63594400  0.63146400  0.06798300  1
  H  77  1  0.56119400  0.57147700  0.12484100  1
  H  78  1  0.59284200  0.60796300  0.14997700  1
  H  79  1  0.64065000  0.63055800  0.19048200  1
  H  80  1  0.67770000  0.59959300  0.21607400  1
  H  81  1  0.72329400  0.57941300  0.13432500  1
  H  82  1  0.68625800  0.61074400  0.10868500  1
  H  83  1  0.70385400  0.66552300  0.12526800  1
  H  84  1  0.72882400  0.70067100  0.09326300  1
  H  85  1  0.63862800  0.72198000  0.05596900  1
  H  86  1  0.61378500  0.68609100  0.08738700  1
  H  87  1  0.57195200  0.66304800  0.13426400  1
  H  88  1  0.66164600  0.68644400  0.17129700  1
  H  89  1  0.63606200  0.72172200  0.20274100  1
  H  90  1  0.54622600  0.69808300  0.16608700  1
  H  93  1  0.75068100  0.57086600  0.18485000  1
  H  94  1  0.55928000  0.53829700  0.07716500  1
  H  96  1  0.68612100  0.75351500  0.04604500  1
  H  98  1  0.58831200  0.75184100  0.21345700  1
  H  124  1  0.67415600  0.09694200  0.71608900  1
  H  125  1  0.64159500  0.13222700  0.69112900  1
  H  126  1  0.71440200  0.07076600  0.63367500  1
  H  127  1  0.68258400  0.10716000  0.60863700  1
  H  128  1  0.63376100  0.13207900  0.56771600  1
  H  129  1  0.60120000  0.09678200  0.54279600  1
  H  130  1  0.56098700  0.07065800  0.62524400  1
  H  131  1  0.59280600  0.10707900  0.65024400  1
  H  132  1  0.57119900  0.16183800  0.63549800  1
  H  133  1  0.54573300  0.19699400  0.66726800  1
  H  134  1  0.63610800  0.22281100  0.70121900  1
  H  135  1  0.66147300  0.18710100  0.67005800  1
  H  136  1  0.70400100  0.16218300  0.62366000  1
  H  137  1  0.61384500  0.18683100  0.58843600  1
  H  138  1  0.63925800  0.22228700  0.55700600  1
  H  139  1  0.72948300  0.19728800  0.59189000  1
  H  142  1  0.55790000  0.03823900  0.57742400  1
  H  143  1  0.71736900  0.03834000  0.68151100  1
  H  145  1  0.58802600  0.25278700  0.71173500  1
  H  147  1  0.68719800  0.25164600  0.54517500  1
  H  173  1  0.17704800  0.69515400  0.54334500  1
  H  174  1  0.14009000  0.66419400  0.56909200  1
  H  175  1  0.22353300  0.71468600  0.62481200  1
  H  176  1  0.18658200  0.68339500  0.65060000  1
  H  177  1  0.13621600  0.66364400  0.69133900  1
  H  178  1  0.10376900  0.69908100  0.71637300  1
  H  179  1  0.06074600  0.72282300  0.63444000  1
  H  180  1  0.09245700  0.68630800  0.60941100  1
  H  181  1  0.07184100  0.63128100  0.62563400  1
  H  182  1  0.04600800  0.59620600  0.59391300  1
  H  183  1  0.13567300  0.57287300  0.55670600  1
  H  184  1  0.16135400  0.60819600  0.58803500  1
  H  185  1  0.20347900  0.62838500  0.63378200  1
  H  186  1  0.11360500  0.60903000  0.67265100  1
  H  187  1  0.13841600  0.57345200  0.70443500  1
  H  188  1  0.22839900  0.59333800  0.66593500  1
  H  191  1  0.05900400  0.75635000  0.68198700  1
  H  192  1  0.25047600  0.72341400  0.57413900  1
  H  194  1  0.08791500  0.54253700  0.54639200  1
  H  196  1  0.18566400  0.54236500  0.71563900  1
  H  222  1  0.42517600  0.98273800  0.43188500  1
  H  223  1  0.39077000  0.95839200  0.39766300  1
  H  224  1  0.46844400  0.90003800  0.45272600  1
  H  225  1  0.43432700  0.87578500  0.41790200  1
  H  226  1  0.38512400  0.83644800  0.39712600  1
  H  227  1  0.34723500  0.81104100  0.42748400  1
  H  228  1  0.30243900  0.89318700  0.44756200  1
  H  229  1  0.34027800  0.91863200  0.41690400  1
  H  230  1  0.32235100  0.90320800  0.36232900  1
  H  231  1  0.29765400  0.93804300  0.32980900  1
  H  232  1  0.38862800  0.97384700  0.30863700  1
  H  233  1  0.41313400  0.93976100  0.34213900  1
  H  234  1  0.45393800  0.89165000  0.36340300  1
  H  235  1  0.36326500  0.85587300  0.34141900  1
  H  236  1  0.38804300  0.82191900  0.30806200  1
  H  237  1  0.47893200  0.85717300  0.33051900  1
  H  240  1  0.27362400  0.84086200  0.44931000  1
  H  241  1  0.48561400  0.94456000  0.47880400  1
  H  243  1  0.34064900  0.99829900  0.29003000  1
  H  245  1  0.43566100  0.79778500  0.28935400  1
  H  271  1  0.92586100  0.81175900  0.82747400  1
  H  272  1  0.89128500  0.83615100  0.86150600  1
  H  273  1  0.96833100  0.89459400  0.80577900  1
  H  274  1  0.93406500  0.91890100  0.84041500  1
  H  275  1  0.88445900  0.95841800  0.86145500  1
  H  276  1  0.85003400  0.98284800  0.82732200  1
  H  277  1  0.80754200  0.90005800  0.80550100  1
  H  278  1  0.84166600  0.87571800  0.84023400  1
  H  279  1  0.82179300  0.89135000  0.89472200  1
  H  280  1  0.79661100  0.85681500  0.92728600  1
  H  281  1  0.88731700  0.82168200  0.95048900  1
  H  282  1  0.91234100  0.85551900  0.91707700  1
  H  283  1  0.95367400  0.90283400  0.89517800  1
  H  284  1  0.86318900  0.93921800  0.91682900  1
  H  285  1  0.88815200  0.97299200  0.95031500  1
  H  286  1  0.97881200  0.93707400  0.92812100  1
  H  289  1  0.79007600  0.94467500  0.77982600  1
  H  290  1  0.98597300  0.84999500  0.78018400  1
  H  292  1  0.83905200  0.79706400  0.96824900  1
  H  294  1  0.93591900  0.99635200  0.96979300  1
  H  320  1  0.84858900  0.48340200  0.33076700  1
  H  321  1  0.88644000  0.45781100  0.36105800  1
  H  322  1  0.80218700  0.40165900  0.31220600  1
  H  323  1  0.83998800  0.37605300  0.34279300  1
  H  324  1  0.88991200  0.33643000  0.36096000  1
  H  325  1  0.92779400  0.31087900  0.33065500  1
  H  326  1  0.97431800  0.39262900  0.31239600  1
  H  327  1  0.93649600  0.41818400  0.34298900  1
  H  328  1  0.95361800  0.40182900  0.39769000  1
  H  329  1  0.97840800  0.43627700  0.43069700  1
  H  330  1  0.88772100  0.47363800  0.45024300  1
  H  331  1  0.86318600  0.43972500  0.41668700  1
  H  332  1  0.82263500  0.39242500  0.39743700  1
  H  333  1  0.91293200  0.35440200  0.41672700  1
  H  334  1  0.88820000  0.32047700  0.45015500  1
  H  335  1  0.79765500  0.35797700  0.43030800  1
  H  338  1  0.00228500  0.34001400  0.31017700  1
  H  339  1  0.77417500  0.45438600  0.31029500  1
  H  341  1  0.93516900  0.49669600  0.47049700  1
  H  343  1  0.84063200  0.29753800  0.47032000  1
  H  369  1  0.35015800  0.31177400  0.93152600  1
  H  370  1  0.38475900  0.33611900  0.89749200  1
  H  371  1  0.30779200  0.39466100  0.95321000  1
  H  372  1  0.34208900  0.41892400  0.91856700  1
  H  373  1  0.39177700  0.45838000  0.89737700  1
  H  374  1  0.42631500  0.48281100  0.93141200  1
  H  375  1  0.46870600  0.39999900  0.95328200  1
  H  376  1  0.43446900  0.37565000  0.91865000  1
  H  377  1  0.45423400  0.39091700  0.86414900  1
  H  378  1  0.47916300  0.35613600  0.83166300  1
  H  379  1  0.38820000  0.32151300  0.80856400  1
  H  380  1  0.36343400  0.35557000  0.84190700  1
  H  381  1  0.32236000  0.40288300  0.86387600  1
  H  382  1  0.41287700  0.43904200  0.84197400  1
  H  383  1  0.38791100  0.47279700  0.80846600  1
  H  384  1  0.29722400  0.43709800  0.83091100  1
  H  387  1  0.48637400  0.44462900  0.97881600  1
  H  388  1  0.29004400  0.35006400  0.97876300  1
  H  390  1  0.43630300  0.29643500  0.79103900  1
  H  392  1  0.34014400  0.49622600  0.78905500  1
  H  399  1  0.04025000  0.97657200  0.98707600  1
  H  404  1  0.99953900  0.13967000  0.01801700  1
  H  405  1  0.01256400  0.11676900  0.04784900  1
  H  406  1  0.97103900  0.12612600  0.04401100  1
  H  415  1  0.53951800  0.81759400  0.27001000  1
  H  420  1  0.49904600  0.65392200  0.24156900  1
  H  421  1  0.51089300  0.67665400  0.21118700  1
  H  422  1  0.46958400  0.66708500  0.21631400  1
  H  431  1  0.73668700  0.31751700  0.48908500  1
  H  436  1  0.77699800  0.15368900  0.51638000  1
  H  437  1  0.76431900  0.17598800  0.54679200  1
  H  438  1  0.80577700  0.16659800  0.54243200  1
  H  447  1  0.23579100  0.47650900  0.77182700  1
  H  452  1  0.27649500  0.63956800  0.74066800  1
  H  453  1  0.26355400  0.61660600  0.71085100  1
  H  454  1  0.30506500  0.62598900  0.71475800  1
  H  463  1  0.48659500  0.22891200  0.73748400  1
  H  468  1  0.52160400  0.39496000  0.75222200  1
  H  469  1  0.50851000  0.37433900  0.78363200  1
  H  470  1  0.54973700  0.38489700  0.78008100  1
  H  479  1  0.28443000  0.73258900  0.52664100  1
  H  484  1  0.23986000  0.89207300  0.52882200  1
  H  485  1  0.27058700  0.87403800  0.50836800  1
  H  486  1  0.23640500  0.88926300  0.48952300  1
  H  495  1  0.78486800  0.56194600  0.23231500  1
  H  500  1  0.74061300  0.40246700  0.23062800  1
  H  501  1  0.77129400  0.42065600  0.25100800  1
  H  502  1  0.73718900  0.40536800  0.26992300  1
  H  511  1  0.51941600  0.97051600  0.51264200  1
  H  516  1  0.48486200  0.13255100  0.55348200  1
  H  517  1  0.49462900  0.14145400  0.51605400  1
  H  518  1  0.52298000  0.12246800  0.53925500  1
  H  527  1  0.02010700  0.82406900  0.74661300  1
  H  532  1  0.98515300  0.66223000  0.70560900  1
  H  533  1  0.99521800  0.65320200  0.74293900  1
  H  534  1  0.02339300  0.67224600  0.71960100  1
  H  543  1  0.25579300  0.32414200  0.01221500  1
  H  548  1  0.29092200  0.16242700  0.05367400  1
  H  549  1  0.28103000  0.15331800  0.01632400  1
  H  550  1  0.25272000  0.17235200  0.03953000  1
  H  559  1  0.99147200  0.23229800  0.23235800  1
  H  564  1  0.03579500  0.39180600  0.23051700  1
  H  565  1  0.00513700  0.37366100  0.25096600  1
  H  566  1  0.03931000  0.38891100  0.26980400  1
  H  575  1  0.78822700  0.73012800  0.02211800  1
  H  580  1  0.75329500  0.89587600  0.00651200  1
  H  581  1  0.76739900  0.87514500  0.97555600  1
  H  582  1  0.72610200  0.88581700  0.97785900  1
  H  591  1  0.52043800  0.47057100  0.01247200  1
  H  596  1  0.48515500  0.63231600  0.05355800  1
  H  597  1  0.49535500  0.64140400  0.01627500  1
  H  598  1  0.52345800  0.62235400  0.03968100  1
  H  607  1  0.75612700  0.97062100  0.74613800  1
  H  612  1  0.79091500  0.13259900  0.70545000  1
  H  613  1  0.78079500  0.14154000  0.74278700  1
  H  614  1  0.75268100  0.12249400  0.71938900  1
  H  623  1  0.29037100  0.06574900  0.23624600  1
  H  628  1  0.25452300  0.89979100  0.25092300  1
  H  629  1  0.26817300  0.92021600  0.28225300  1
  H  630  1  0.22681900  0.90996000  0.27911400  1
  H  639  1  0.03893100  0.47670300  0.49007100  1
  H  644  1  0.99931800  0.64060600  0.51816300  1
  H  645  1  0.01074600  0.61782500  0.54864900  1
  H  646  1  0.96955300  0.62764000  0.54321000  1
  H  674  1  0.09861100  0.46301300  0.21579800  1
  H  675  1  0.13563100  0.43216900  0.19000300  1
  H  676  1  0.05267100  0.48332300  0.13425200  1
  H  677  1  0.08968100  0.45213500  0.10840400  1
  H  678  1  0.14014400  0.43190000  0.06748100  1
  H  679  1  0.17253700  0.46737100  0.04246400  1
  H  680  1  0.21476900  0.49185000  0.12453700  1
  H  681  1  0.18312600  0.45528800  0.14956800  1
  H  682  1  0.20446600  0.40059900  0.13369100  1
  H  683  1  0.23051000  0.36558700  0.16533300  1
  H  684  1  0.14080900  0.34069700  0.20146200  1
  H  685  1  0.11493400  0.37615700  0.17042600  1
  H  686  1  0.07254100  0.39706600  0.12493600  1
  H  687  1  0.16251500  0.37742300  0.08640300  1
  H  688  1  0.13771400  0.34185800  0.05459000  1
  H  689  1  0.04764700  0.36204800  0.09276300  1
  H  692  1  0.21675400  0.52505500  0.07682800  1
  H  693  1  0.02547100  0.49164700  0.18494400  1
  H  695  1  0.18890400  0.31025800  0.21074600  1
  H  697  1  0.09041200  0.31090900  0.04322900  1
  H  723  1  0.60356100  0.86453600  0.04286500  1
  H  724  1  0.63594400  0.89994400  0.06798300  1
  H  725  1  0.56119400  0.83995700  0.12484100  1
  H  726  1  0.59284200  0.87644300  0.14997700  1
  H  727  1  0.64065000  0.89903800  0.19048200  1
  H  728  1  0.67770000  0.86807300  0.21607400  1
  H  729  1  0.72329400  0.84789300  0.13432500  1
  H  730  1  0.68625800  0.87922400  0.10868500  1
  H  731  1  0.70385400  0.93400300  0.12526800  1
  H  732  1  0.72882400  0.96915100  0.09326300  1
  H  733  1  0.63862800  0.99046000  0.05596900  1
  H  734  1  0.61378500  0.95457100  0.08738700  1
  H  735  1  0.57195200  0.93152800  0.13426400  1
  H  736  1  0.66164600  0.95492400  0.17129700  1
  H  737  1  0.63606200  0.99020200  0.20274100  1
  H  738  1  0.54622600  0.96656300  0.16608700  1
  H  741  1  0.75068100  0.83934600  0.18485000  1
  H  742  1  0.55928000  0.80677700  0.07716500  1
  H  744  1  0.68612100  0.02199480  0.04604500  1
  H  746  1  0.58831200  0.02032080  0.21345700  1
  H  772  1  0.67415600  0.36542200  0.71608900  1
  H  773  1  0.64159500  0.40070700  0.69112900  1
  H  774  1  0.71440200  0.33924600  0.63367500  1
  H  775  1  0.68258400  0.37564000  0.60863700  1
  H  776  1  0.63376100  0.40055900  0.56771600  1
  H  777  1  0.60120000  0.36526200  0.54279600  1
  H  778  1  0.56098700  0.33913800  0.62524400  1
  H  779  1  0.59280600  0.37555900  0.65024400  1
  H  780  1  0.57119900  0.43031800  0.63549800  1
  H  781  1  0.54573300  0.46547400  0.66726800  1
  H  782  1  0.63610800  0.49129100  0.70121900  1
  H  783  1  0.66147300  0.45558100  0.67005800  1
  H  784  1  0.70400100  0.43066300  0.62366000  1
  H  785  1  0.61384500  0.45531100  0.58843600  1
  H  786  1  0.63925800  0.49076700  0.55700600  1
  H  787  1  0.72948300  0.46576800  0.59189000  1
  H  790  1  0.55790000  0.30671900  0.57742400  1
  H  791  1  0.71736900  0.30682000  0.68151100  1
  H  793  1  0.58802600  0.52126700  0.71173500  1
  H  795  1  0.68719800  0.52012600  0.54517500  1
  H  821  1  0.17704800  0.96363400  0.54334500  1
  H  822  1  0.14009000  0.93267400  0.56909200  1
  H  823  1  0.22353300  0.98316600  0.62481200  1
  H  824  1  0.18658200  0.95187500  0.65060000  1
  H  825  1  0.13621600  0.93212400  0.69133900  1
  H  826  1  0.10376900  0.96756100  0.71637300  1
  H  827  1  0.06074600  0.99130300  0.63444000  1
  H  828  1  0.09245700  0.95478800  0.60941100  1
  H  829  1  0.07184100  0.89976100  0.62563400  1
  H  830  1  0.04600800  0.86468600  0.59391300  1
  H  831  1  0.13567300  0.84135300  0.55670600  1
  H  832  1  0.16135400  0.87667600  0.58803500  1
  H  833  1  0.20347900  0.89686500  0.63378200  1
  H  834  1  0.11360500  0.87751000  0.67265100  1
  H  835  1  0.13841600  0.84193200  0.70443500  1
  H  836  1  0.22839900  0.86181800  0.66593500  1
  H  839  1  0.05900400  0.02482980  0.68198700  1
  H  840  1  0.25047600  0.99189400  0.57413900  1
  H  842  1  0.08791500  0.81101700  0.54639200  1
  H  844  1  0.18566400  0.81084500  0.71563900  1
  H  870  1  0.42517600  0.25121800  0.43188500  1
  H  871  1  0.39077000  0.22687200  0.39766300  1
  H  872  1  0.46844400  0.16851800  0.45272600  1
  H  873  1  0.43432700  0.14426500  0.41790200  1
  H  874  1  0.38512400  0.10492800  0.39712600  1
  H  875  1  0.34723500  0.07952080  0.42748400  1
  H  876  1  0.30243900  0.16166700  0.44756200  1
  H  877  1  0.34027800  0.18711200  0.41690400  1
  H  878  1  0.32235100  0.17168800  0.36232900  1
  H  879  1  0.29765400  0.20652300  0.32980900  1
  H  880  1  0.38862800  0.24232700  0.30863700  1
  H  881  1  0.41313400  0.20824100  0.34213900  1
  H  882  1  0.45393800  0.16013000  0.36340300  1
  H  883  1  0.36326500  0.12435300  0.34141900  1
  H  884  1  0.38804300  0.09039880  0.30806200  1
  H  885  1  0.47893200  0.12565300  0.33051900  1
  H  888  1  0.27362400  0.10934200  0.44931000  1
  H  889  1  0.48561400  0.21304000  0.47880400  1
  H  891  1  0.34064900  0.26677900  0.29003000  1
  H  893  1  0.43566100  0.06626480  0.28935400  1
  H  919  1  0.92586100  0.08023880  0.82747400  1
  H  920  1  0.89128500  0.10463100  0.86150600  1
  H  921  1  0.96833100  0.16307400  0.80577900  1
  H  922  1  0.93406500  0.18738100  0.84041500  1
  H  923  1  0.88445900  0.22689800  0.86145500  1
  H  924  1  0.85003400  0.25132800  0.82732200  1
  H  925  1  0.80754200  0.16853800  0.80550100  1
  H  926  1  0.84166600  0.14419800  0.84023400  1
  H  927  1  0.82179300  0.15983000  0.89472200  1
  H  928  1  0.79661100  0.12529500  0.92728600  1
  H  929  1  0.88731700  0.09016180  0.95048900  1
  H  930  1  0.91234100  0.12399900  0.91707700  1
  H  931  1  0.95367400  0.17131400  0.89517800  1
  H  932  1  0.86318900  0.20769800  0.91682900  1
  H  933  1  0.88815200  0.24147200  0.95031500  1
  H  934  1  0.97881200  0.20555400  0.92812100  1
  H  937  1  0.79007600  0.21315500  0.77982600  1
  H  938  1  0.98597300  0.11847500  0.78018400  1
  H  940  1  0.83905200  0.06554380  0.96824900  1
  H  942  1  0.93591900  0.26483200  0.96979300  1
  H  968  1  0.84858900  0.75188200  0.33076700  1
  H  969  1  0.88644000  0.72629100  0.36105800  1
  H  970  1  0.80218700  0.67013900  0.31220600  1
  H  971  1  0.83998800  0.64453300  0.34279300  1
  H  972  1  0.88991200  0.60491000  0.36096000  1
  H  973  1  0.92779400  0.57935900  0.33065500  1
  H  974  1  0.97431800  0.66110900  0.31239600  1
  H  975  1  0.93649600  0.68666400  0.34298900  1
  H  976  1  0.95361800  0.67030900  0.39769000  1
  H  977  1  0.97840800  0.70475700  0.43069700  1
  H  978  1  0.88772100  0.74211800  0.45024300  1
  H  979  1  0.86318600  0.70820500  0.41668700  1
  H  980  1  0.82263500  0.66090500  0.39743700  1
  H  981  1  0.91293200  0.62288200  0.41672700  1
  H  982  1  0.88820000  0.58895700  0.45015500  1
  H  983  1  0.79765500  0.62645700  0.43030800  1
  H  986  1  0.00228500  0.60849400  0.31017700  1
  H  987  1  0.77417500  0.72286600  0.31029500  1
  H  989  1  0.93516900  0.76517600  0.47049700  1
  H  991  1  0.84063200  0.56601800  0.47032000  1
  H  1017  1  0.35015800  0.58025400  0.93152600  1
  H  1018  1  0.38475900  0.60459900  0.89749200  1
  H  1019  1  0.30779200  0.66314100  0.95321000  1
  H  1020  1  0.34208900  0.68740400  0.91856700  1
  H  1021  1  0.39177700  0.72686000  0.89737700  1
  H  1022  1  0.42631500  0.75129100  0.93141200  1
  H  1023  1  0.46870600  0.66847900  0.95328200  1
  H  1024  1  0.43446900  0.64413000  0.91865000  1
  H  1025  1  0.45423400  0.65939700  0.86414900  1
  H  1026  1  0.47916300  0.62461600  0.83166300  1
  H  1027  1  0.38820000  0.58999300  0.80856400  1
  H  1028  1  0.36343400  0.62405000  0.84190700  1
  H  1029  1  0.32236000  0.67136300  0.86387600  1
  H  1030  1  0.41287700  0.70752200  0.84197400  1
  H  1031  1  0.38791100  0.74127700  0.80846600  1
  H  1032  1  0.29722400  0.70557800  0.83091100  1
  H  1035  1  0.48637400  0.71310900  0.97881600  1
  H  1036  1  0.29004400  0.61854400  0.97876300  1
  H  1038  1  0.43630300  0.56491500  0.79103900  1
  H  1040  1  0.34014400  0.76470600  0.78905500  1
  H  1047  1  0.04025000  0.24505200  0.98707600  1
  H  1052  1  0.99953900  0.40815000  0.01801700  1
  H  1053  1  0.01256400  0.38524900  0.04784900  1
  H  1054  1  0.97103900  0.39460600  0.04401100  1
  H  1063  1  0.53951800  0.08607380  0.27001000  1
  H  1068  1  0.49904600  0.92240200  0.24156900  1
  H  1069  1  0.51089300  0.94513400  0.21118700  1
  H  1070  1  0.46958400  0.93556500  0.21631400  1
  H  1079  1  0.73668700  0.58599700  0.48908500  1
  H  1084  1  0.77699800  0.42216900  0.51638000  1
  H  1085  1  0.76431900  0.44446800  0.54679200  1
  H  1086  1  0.80577700  0.43507800  0.54243200  1
  H  1095  1  0.23579100  0.74498900  0.77182700  1
  H  1100  1  0.27649500  0.90804800  0.74066800  1
  H  1101  1  0.26355400  0.88508600  0.71085100  1
  H  1102  1  0.30506500  0.89446900  0.71475800  1
  H  1111  1  0.48659500  0.49739200  0.73748400  1
  H  1116  1  0.52160400  0.66344000  0.75222200  1
  H  1117  1  0.50851000  0.64281900  0.78363200  1
  H  1118  1  0.54973700  0.65337700  0.78008100  1
  H  1127  1  0.28443000  0.00106880  0.52664100  1
  H  1132  1  0.23986000  0.16055300  0.52882200  1
  H  1133  1  0.27058700  0.14251800  0.50836800  1
  H  1134  1  0.23640500  0.15774300  0.48952300  1
  H  1143  1  0.78486800  0.83042600  0.23231500  1
  H  1148  1  0.74061300  0.67094700  0.23062800  1
  H  1149  1  0.77129400  0.68913600  0.25100800  1
  H  1150  1  0.73718900  0.67384800  0.26992300  1
  H  1159  1  0.51941600  0.23899600  0.51264200  1
  H  1164  1  0.48486200  0.40103100  0.55348200  1
  H  1165  1  0.49462900  0.40993400  0.51605400  1
  H  1166  1  0.52298000  0.39094800  0.53925500  1
  H  1175  1  0.02010700  0.09254880  0.74661300  1
  H  1180  1  0.98515300  0.93071000  0.70560900  1
  H  1181  1  0.99521800  0.92168200  0.74293900  1
  H  1182  1  0.02339300  0.94072600  0.71960100  1
  H  1191  1  0.25579300  0.59262200  0.01221500  1
  H  1196  1  0.29092200  0.43090700  0.05367400  1
  H  1197  1  0.28103000  0.42179800  0.01632400  1
  H  1198  1  0.25272000  0.44083200  0.03953000  1
  H  1207  1  0.99147200  0.50077800  0.23235800  1
  H  1212  1  0.03579500  0.66028600  0.23051700  1
  H  1213  1  0.00513700  0.64214100  0.25096600  1
  H  1214  1  0.03931000  0.65739100  0.26980400  1
  H  1223  1  0.78822700  0.99860800  0.02211800  1
  H  1228  1  0.75329500  0.16435600  0.00651200  1
  H  1229  1  0.76739900  0.14362500  0.97555600  1
  H  1230  1  0.72610200  0.15429700  0.97785900  1
  H  1239  1  0.52043800  0.73905100  0.01247200  1
  H  1244  1  0.48515500  0.90079600  0.05355800  1
  H  1245  1  0.49535500  0.90988400  0.01627500  1
  H  1246  1  0.52345800  0.89083400  0.03968100  1
  H  1255  1  0.75612700  0.23910100  0.74613800  1
  H  1260  1  0.79091500  0.40107900  0.70545000  1
  H  1261  1  0.78079500  0.41002000  0.74278700  1
  H  1262  1  0.75268100  0.39097400  0.71938900  1
  H  1271  1  0.29037100  0.33422900  0.23624600  1
  H  1276  1  0.25452300  0.16827100  0.25092300  1
  H  1277  1  0.26817300  0.18869600  0.28225300  1
  H  1278  1  0.22681900  0.17844000  0.27911400  1
  H  1287  1  0.03893100  0.74518300  0.49007100  1
  H  1292  1  0.99931800  0.90908600  0.51816300  1
  H  1293  1  0.01074600  0.88630500  0.54864900  1
  H  1294  1  0.96955300  0.89612000  0.54321000  1
  H  1322  1  0.09861100  0.73149300  0.21579800  1
  H  1323  1  0.13563100  0.70064900  0.19000300  1
  H  1324  1  0.05267100  0.75180300  0.13425200  1
  H  1325  1  0.08968100  0.72061500  0.10840400  1
  H  1326  1  0.14014400  0.70038000  0.06748100  1
  H  1327  1  0.17253700  0.73585100  0.04246400  1
  H  1328  1  0.21476900  0.76033000  0.12453700  1
  H  1329  1  0.18312600  0.72376800  0.14956800  1
  H  1330  1  0.20446600  0.66907900  0.13369100  1
  H  1331  1  0.23051000  0.63406700  0.16533300  1
  H  1332  1  0.14080900  0.60917700  0.20146200  1
  H  1333  1  0.11493400  0.64463700  0.17042600  1
  H  1334  1  0.07254100  0.66554600  0.12493600  1
  H  1335  1  0.16251500  0.64590300  0.08640300  1
  H  1336  1  0.13771400  0.61033800  0.05459000  1
  H  1337  1  0.04764700  0.63052800  0.09276300  1
  H  1340  1  0.21675400  0.79353500  0.07682800  1
  H  1341  1  0.02547100  0.76012700  0.18494400  1
  H  1343  1  0.18890400  0.57873800  0.21074600  1
  H  1345  1  0.09041200  0.57938900  0.04322900  1
  H  1371  1  0.60356100  0.13301600  0.04286500  1
  H  1372  1  0.63594400  0.16842400  0.06798300  1
  H  1373  1  0.56119400  0.10843700  0.12484100  1
  H  1374  1  0.59284200  0.14492300  0.14997700  1
  H  1375  1  0.64065000  0.16751800  0.19048200  1
  H  1376  1  0.67770000  0.13655300  0.21607400  1
  H  1377  1  0.72329400  0.11637300  0.13432500  1
  H  1378  1  0.68625800  0.14770400  0.10868500  1
  H  1379  1  0.70385400  0.20248300  0.12526800  1
  H  1380  1  0.72882400  0.23763100  0.09326300  1
  H  1381  1  0.63862800  0.25894000  0.05596900  1
  H  1382  1  0.61378500  0.22305100  0.08738700  1
  H  1383  1  0.57195200  0.20000800  0.13426400  1
  H  1384  1  0.66164600  0.22340400  0.17129700  1
  H  1385  1  0.63606200  0.25868200  0.20274100  1
  H  1386  1  0.54622600  0.23504300  0.16608700  1
  H  1389  1  0.75068100  0.10782600  0.18485000  1
  H  1390  1  0.55928000  0.07525660  0.07716500  1
  H  1392  1  0.68612100  0.29047500  0.04604500  1
  H  1394  1  0.58831200  0.28880100  0.21345700  1
  H  1420  1  0.67415600  0.63390200  0.71608900  1
  H  1421  1  0.64159500  0.66918700  0.69112900  1
  H  1422  1  0.71440200  0.60772600  0.63367500  1
  H  1423  1  0.68258400  0.64412000  0.60863700  1
  H  1424  1  0.63376100  0.66903900  0.56771600  1
  H  1425  1  0.60120000  0.63374200  0.54279600  1
  H  1426  1  0.56098700  0.60761800  0.62524400  1
  H  1427  1  0.59280600  0.64403900  0.65024400  1
  H  1428  1  0.57119900  0.69879800  0.63549800  1
  H  1429  1  0.54573300  0.73395400  0.66726800  1
  H  1430  1  0.63610800  0.75977100  0.70121900  1
  H  1431  1  0.66147300  0.72406100  0.67005800  1
  H  1432  1  0.70400100  0.69914300  0.62366000  1
  H  1433  1  0.61384500  0.72379100  0.58843600  1
  H  1434  1  0.63925800  0.75924700  0.55700600  1
  H  1435  1  0.72948300  0.73424800  0.59189000  1
  H  1438  1  0.55790000  0.57519900  0.57742400  1
  H  1439  1  0.71736900  0.57530000  0.68151100  1
  H  1441  1  0.58802600  0.78974700  0.71173500  1
  H  1443  1  0.68719800  0.78860600  0.54517500  1
  H  1469  1  0.17704800  0.23211400  0.54334500  1
  H  1470  1  0.14009000  0.20115400  0.56909200  1
  H  1471  1  0.22353300  0.25164600  0.62481200  1
  H  1472  1  0.18658200  0.22035500  0.65060000  1
  H  1473  1  0.13621600  0.20060400  0.69133900  1
  H  1474  1  0.10376900  0.23604100  0.71637300  1
  H  1475  1  0.06074600  0.25978300  0.63444000  1
  H  1476  1  0.09245700  0.22326800  0.60941100  1
  H  1477  1  0.07184100  0.16824100  0.62563400  1
  H  1478  1  0.04600800  0.13316600  0.59391300  1
  H  1479  1  0.13567300  0.10983300  0.55670600  1
  H  1480  1  0.16135400  0.14515600  0.58803500  1
  H  1481  1  0.20347900  0.16534500  0.63378200  1
  H  1482  1  0.11360500  0.14599000  0.67265100  1
  H  1483  1  0.13841600  0.11041200  0.70443500  1
  H  1484  1  0.22839900  0.13029800  0.66593500  1
  H  1487  1  0.05900400  0.29331000  0.68198700  1
  H  1488  1  0.25047600  0.26037400  0.57413900  1
  H  1490  1  0.08791500  0.07949660  0.54639200  1
  H  1492  1  0.18566400  0.07932460  0.71563900  1
  H  1518  1  0.42517600  0.51969800  0.43188500  1
  H  1519  1  0.39077000  0.49535200  0.39766300  1
  H  1520  1  0.46844400  0.43699800  0.45272600  1
  H  1521  1  0.43432700  0.41274500  0.41790200  1
  H  1522  1  0.38512400  0.37340800  0.39712600  1
  H  1523  1  0.34723500  0.34800100  0.42748400  1
  H  1524  1  0.30243900  0.43014700  0.44756200  1
  H  1525  1  0.34027800  0.45559200  0.41690400  1
  H  1526  1  0.32235100  0.44016800  0.36232900  1
  H  1527  1  0.29765400  0.47500300  0.32980900  1
  H  1528  1  0.38862800  0.51080700  0.30863700  1
  H  1529  1  0.41313400  0.47672100  0.34213900  1
  H  1530  1  0.45393800  0.42861000  0.36340300  1
  H  1531  1  0.36326500  0.39283300  0.34141900  1
  H  1532  1  0.38804300  0.35887900  0.30806200  1
  H  1533  1  0.47893200  0.39413300  0.33051900  1
  H  1536  1  0.27362400  0.37782200  0.44931000  1
  H  1537  1  0.48561400  0.48152000  0.47880400  1
  H  1539  1  0.34064900  0.53525900  0.29003000  1
  H  1541  1  0.43566100  0.33474500  0.28935400  1
  H  1567  1  0.92586100  0.34871900  0.82747400  1
  H  1568  1  0.89128500  0.37311100  0.86150600  1
  H  1569  1  0.96833100  0.43155400  0.80577900  1
  H  1570  1  0.93406500  0.45586100  0.84041500  1
  H  1571  1  0.88445900  0.49537800  0.86145500  1
  H  1572  1  0.85003400  0.51980800  0.82732200  1
  H  1573  1  0.80754200  0.43701800  0.80550100  1
  H  1574  1  0.84166600  0.41267800  0.84023400  1
  H  1575  1  0.82179300  0.42831000  0.89472200  1
  H  1576  1  0.79661100  0.39377500  0.92728600  1
  H  1577  1  0.88731700  0.35864200  0.95048900  1
  H  1578  1  0.91234100  0.39247900  0.91707700  1
  H  1579  1  0.95367400  0.43979400  0.89517800  1
  H  1580  1  0.86318900  0.47617800  0.91682900  1
  H  1581  1  0.88815200  0.50995200  0.95031500  1
  H  1582  1  0.97881200  0.47403400  0.92812100  1
  H  1585  1  0.79007600  0.48163500  0.77982600  1
  H  1586  1  0.98597300  0.38695500  0.78018400  1
  H  1588  1  0.83905200  0.33402400  0.96824900  1
  H  1590  1  0.93591900  0.53331200  0.96979300  1
  H  1616  1  0.84858900  0.02036160  0.33076700  1
  H  1617  1  0.88644000  0.99477100  0.36105800  1
  H  1618  1  0.80218700  0.93861900  0.31220600  1
  H  1619  1  0.83998800  0.91301300  0.34279300  1
  H  1620  1  0.88991200  0.87339000  0.36096000  1
  H  1621  1  0.92779400  0.84783900  0.33065500  1
  H  1622  1  0.97431800  0.92958900  0.31239600  1
  H  1623  1  0.93649600  0.95514400  0.34298900  1
  H  1624  1  0.95361800  0.93878900  0.39769000  1
  H  1625  1  0.97840800  0.97323700  0.43069700  1
  H  1626  1  0.88772100  0.01059760  0.45024300  1
  H  1627  1  0.86318600  0.97668500  0.41668700  1
  H  1628  1  0.82263500  0.92938500  0.39743700  1
  H  1629  1  0.91293200  0.89136200  0.41672700  1
  H  1630  1  0.88820000  0.85743700  0.45015500  1
  H  1631  1  0.79765500  0.89493700  0.43030800  1
  H  1634  1  0.00228500  0.87697400  0.31017700  1
  H  1635  1  0.77417500  0.99134600  0.31029500  1
  H  1637  1  0.93516900  0.03365560  0.47049700  1
  H  1639  1  0.84063200  0.83449800  0.47032000  1
  H  1665  1  0.35015800  0.84873400  0.93152600  1
  H  1666  1  0.38475900  0.87307900  0.89749200  1
  H  1667  1  0.30779200  0.93162100  0.95321000  1
  H  1668  1  0.34208900  0.95588400  0.91856700  1
  H  1669  1  0.39177700  0.99534000  0.89737700  1
  H  1670  1  0.42631500  0.01977060  0.93141200  1
  H  1671  1  0.46870600  0.93695900  0.95328200  1
  H  1672  1  0.43446900  0.91261000  0.91865000  1
  H  1673  1  0.45423400  0.92787700  0.86414900  1
  H  1674  1  0.47916300  0.89309600  0.83166300  1
  H  1675  1  0.38820000  0.85847300  0.80856400  1
  H  1676  1  0.36343400  0.89253000  0.84190700  1
  H  1677  1  0.32236000  0.93984300  0.86387600  1
  H  1678  1  0.41287700  0.97600200  0.84197400  1
  H  1679  1  0.38791100  0.00975660  0.80846600  1
  H  1680  1  0.29722400  0.97405800  0.83091100  1
  H  1683  1  0.48637400  0.98158900  0.97881600  1
  H  1684  1  0.29004400  0.88702400  0.97876300  1
  H  1686  1  0.43630300  0.83339500  0.79103900  1
  H  1688  1  0.34014400  0.03318560  0.78905500  1
  H  1695  1  0.04025000  0.51353200  0.98707600  1
  H  1700  1  0.99953900  0.67663000  0.01801700  1
  H  1701  1  0.01256400  0.65372900  0.04784900  1
  H  1702  1  0.97103900  0.66308600  0.04401100  1
  H  1711  1  0.53951800  0.35455400  0.27001000  1
  H  1716  1  0.49904600  0.19088200  0.24156900  1
  H  1717  1  0.51089300  0.21361400  0.21118700  1
  H  1718  1  0.46958400  0.20404500  0.21631400  1
  H  1727  1  0.73668700  0.85447700  0.48908500  1
  H  1732  1  0.77699800  0.69064900  0.51638000  1
  H  1733  1  0.76431900  0.71294800  0.54679200  1
  H  1734  1  0.80577700  0.70355800  0.54243200  1
  H  1743  1  0.23579100  0.01346860  0.77182700  1
  H  1748  1  0.27649500  0.17652800  0.74066800  1
  H  1749  1  0.26355400  0.15356600  0.71085100  1
  H  1750  1  0.30506500  0.16294900  0.71475800  1
  H  1759  1  0.48659500  0.76587200  0.73748400  1
  H  1764  1  0.52160400  0.93192000  0.75222200  1
  H  1765  1  0.50851000  0.91129900  0.78363200  1
  H  1766  1  0.54973700  0.92185700  0.78008100  1
  H  1775  1  0.28443000  0.26954900  0.52664100  1
  H  1780  1  0.23986000  0.42903300  0.52882200  1
  H  1781  1  0.27058700  0.41099800  0.50836800  1
  H  1782  1  0.23640500  0.42622300  0.48952300  1
  H  1791  1  0.78486800  0.09890560  0.23231500  1
  H  1796  1  0.74061300  0.93942700  0.23062800  1
  H  1797  1  0.77129400  0.95761600  0.25100800  1
  H  1798  1  0.73718900  0.94232800  0.26992300  1
  H  1807  1  0.51941600  0.50747600  0.51264200  1
  H  1812  1  0.48486200  0.66951100  0.55348200  1
  H  1813  1  0.49462900  0.67841400  0.51605400  1
  H  1814  1  0.52298000  0.65942800  0.53925500  1
  H  1823  1  0.02010700  0.36102900  0.74661300  1
  H  1828  1  0.98515300  0.19919000  0.70560900  1
  H  1829  1  0.99521800  0.19016200  0.74293900  1
  H  1830  1  0.02339300  0.20920600  0.71960100  1
  H  1839  1  0.25579300  0.86110200  0.01221500  1
  H  1844  1  0.29092200  0.69938700  0.05367400  1
  H  1845  1  0.28103000  0.69027800  0.01632400  1
  H  1846  1  0.25272000  0.70931200  0.03953000  1
  H  1855  1  0.99147200  0.76925800  0.23235800  1
  H  1860  1  0.03579500  0.92876600  0.23051700  1
  H  1861  1  0.00513700  0.91062100  0.25096600  1
  H  1862  1  0.03931000  0.92587100  0.26980400  1
  H  1871  1  0.78822700  0.26708800  0.02211800  1
  H  1876  1  0.75329500  0.43283600  0.00651200  1
  H  1877  1  0.76739900  0.41210500  0.97555600  1
  H  1878  1  0.72610200  0.42277700  0.97785900  1
  H  1887  1  0.52043800  0.00753060  0.01247200  1
  H  1892  1  0.48515500  0.16927600  0.05355800  1
  H  1893  1  0.49535500  0.17836400  0.01627500  1
  H  1894  1  0.52345800  0.15931400  0.03968100  1
  H  1903  1  0.75612700  0.50758100  0.74613800  1
  H  1908  1  0.79091500  0.66955900  0.70545000  1
  H  1909  1  0.78079500  0.67850000  0.74278700  1
  H  1910  1  0.75268100  0.65945400  0.71938900  1
  H  1919  1  0.29037100  0.60270900  0.23624600  1
  H  1924  1  0.25452300  0.43675100  0.25092300  1
  H  1925  1  0.26817300  0.45717600  0.28225300  1
  H  1926  1  0.22681900  0.44692000  0.27911400  1
  H  1935  1  0.03893100  0.01366260  0.49007100  1
  H  1940  1  0.99931800  0.17756600  0.51816300  1
  H  1941  1  0.01074600  0.15478500  0.54864900  1
  H  1942  1  0.96955300  0.16460000  0.54321000  1
  C  1  1  0.08979500  0.08040500  0.06949500  1
  C  2  1  0.12339600  0.08535400  0.06887700  1
  C  3  1  0.13810000  0.10655700  0.08779500  1
  C  4  1  0.12029900  0.12467400  0.10808600  1
  C  5  1  0.08675700  0.11836700  0.10940600  1
  C  6  1  0.07182200  0.09718300  0.09048500  1
  C  7  1  0.13802400  0.14692800  0.12876800  1
  C  8  1  0.15666600  0.12538500  0.14942600  1
  C  9  1  0.13945200  0.10631000  0.16927100  1
  C  10  1  0.15480200  0.08516800  0.18775400  1
  C  11  1  0.18857400  0.08144600  0.18732500  1
  C  12  1  0.20614900  0.09969600  0.16728000  1
  C  13  1  0.19053300  0.12076200  0.14865000  1
  C  14  1  0.15935700  0.16918300  0.11136600  1
  C  15  1  0.11550100  0.16803500  0.14632000  1
  C  16  1  0.11794100  0.17356300  0.17764500  1
  C  17  1  0.09636500  0.19246200  0.19308500  1
  C  18  1  0.07145200  0.20760100  0.17781900  1
  C  19  1  0.07002200  0.20404000  0.14640000  1
  C  20  1  0.09197400  0.18544200  0.13111500  1
  C  21  1  0.15681000  0.17451700  0.08001500  1
  C  22  1  0.17584800  0.19590700  0.06496700  1
  C  23  1  0.19788800  0.21408700  0.08070400  1
  C  24  1  0.19977000  0.21017400  0.11204700  1
  C  25  1  0.18097300  0.18842800  0.12683400  1
  C  42  1  0.04785800  0.22413600  0.19276100  1
  C  43  1  0.07612200  0.05853300  0.05096600  1
  C  46  1  0.20264000  0.05909500  0.20497300  1
  C  48  1  0.21517600  0.23685300  0.06660300  1
  C  50  1  0.58822500  0.71307500  0.18844900  1
  C  51  1  0.62196000  0.70905900  0.18886100  1
  C  52  1  0.63714200  0.68801500  0.17014100  1
  C  53  1  0.61976900  0.66919900  0.15016500  1
  C  54  1  0.58596300  0.67415900  0.14934800  1
  C  55  1  0.57054300  0.69524400  0.16809900  1
  C  56  1  0.63820900  0.64765800  0.12934100  1
  C  57  1  0.65601000  0.66991900  0.10873400  1
  C  58  1  0.63822400  0.68831500  0.08868500  1
  C  59  1  0.65294600  0.70969500  0.06999000  1
  C  60  1  0.68658000  0.71443300  0.07051800  1
  C  61  1  0.70460600  0.69722100  0.09110000  1
  C  62  1  0.68961700  0.67597600  0.10991300  1
  C  63  1  0.66065000  0.62634500  0.14673200  1
  C  64  1  0.61669900  0.62562500  0.11184400  1
  C  65  1  0.61926500  0.62034400  0.08048300  1
  C  66  1  0.60022800  0.59899400  0.06537100  1
  C  67  1  0.57815000  0.58079300  0.08104100  1
  C  68  1  0.57621700  0.58468100  0.11238900  1
  C  69  1  0.59500800  0.60639300  0.12724000  1
  C  70  1  0.65827000  0.62068500  0.17803900  1
  C  71  1  0.67986000  0.60170500  0.19335700  1
  C  72  1  0.70471700  0.58660100  0.17797600  1
  C  73  1  0.70601300  0.59021400  0.14655900  1
  C  74  1  0.68403600  0.60888900  0.13139700  1
  C  91  1  0.56091000  0.55799900  0.06690600  1
  C  92  1  0.57429400  0.73514900  0.20657100  1
  C  95  1  0.70021800  0.73669700  0.05248300  1
  C  97  1  0.72834300  0.57000900  0.19280500  1
  C  99  1  0.68725600  0.21298800  0.57039200  1
  C  100  1  0.65346100  0.20933700  0.57052100  1
  C  101  1  0.63838200  0.18820700  0.58923700  1
  C  102  1  0.65591600  0.16894500  0.60865900  1
  C  103  1  0.68978500  0.17361300  0.60899500  1
  C  104  1  0.70509500  0.19475300  0.59025200  1
  C  105  1  0.63764900  0.14716500  0.62940600  1
  C  106  1  0.61936600  0.16896000  0.65011700  1
  C  107  1  0.63692500  0.18837400  0.66936900  1
  C  108  1  0.62187800  0.20964500  0.68793400  1
  C  109  1  0.58807400  0.21315000  0.68821200  1
  C  110  1  0.57015800  0.19459900  0.66871600  1
  C  111  1  0.58546000  0.17342600  0.64999800  1
  C  112  1  0.61568200  0.12545500  0.61191900  1
  C  113  1  0.65966200  0.12553500  0.64693700  1
  C  114  1  0.65787600  0.12082800  0.67844100  1
  C  115  1  0.67703700  0.09953600  0.69348700  1
  C  116  1  0.69848500  0.08084000  0.67764700  1
  C  117  1  0.69981400  0.08429800  0.64622600  1
  C  118  1  0.68093000  0.10596800  0.63143500  1
  C  119  1  0.61747600  0.12070200  0.58042200  1
  C  120  1  0.59831900  0.09939400  0.56539800  1
  C  121  1  0.57688300  0.08070600  0.58126100  1
  C  122  1  0.57556600  0.08418400  0.61267700  1
  C  123  1  0.59445000  0.10587100  0.62744600  1
  C  140  1  0.71573400  0.05804700  0.69176200  1
  C  141  1  0.70120400  0.23500700  0.55220400  1
  C  144  1  0.57420700  0.23552600  0.70597800  1
  C  146  1  0.55960200  0.05793100  0.56715400  1
  C  148  1  0.18630100  0.58033700  0.68936800  1
  C  149  1  0.15271700  0.58536800  0.69008700  1
  C  150  1  0.13800600  0.60657600  0.67117700  1
  C  151  1  0.15579000  0.62463100  0.65081700  1
  C  152  1  0.18930000  0.61821000  0.64937200  1
  C  153  1  0.20424700  0.59703200  0.66829000  1
  C  154  1  0.13805600  0.64687700  0.63014800  1
  C  155  1  0.11956000  0.62530200  0.60941700  1
  C  156  1  0.13686400  0.60655100  0.58933300  1
  C  157  1  0.12162700  0.58547600  0.57068700  1
  C  158  1  0.08790600  0.58137900  0.57128000  1
  C  159  1  0.07030200  0.59912100  0.59176500  1
  C  160  1  0.08578200  0.62022400  0.61045300  1
  C  161  1  0.11661900  0.66903600  0.64755900  1
  C  162  1  0.16052500  0.66810700  0.61268600  1
  C  163  1  0.15788300  0.67393300  0.58143100  1
  C  164  1  0.17942600  0.69289900  0.56602900  1
  C  165  1  0.20449300  0.70783500  0.58127800  1
  C  166  1  0.20607700  0.70403000  0.61266600  1
  C  167  1  0.18414400  0.68538100  0.62791800  1
  C  168  1  0.11938300  0.67458200  0.67885700  1
  C  169  1  0.10033400  0.69596800  0.69390300  1
  C  170  1  0.07803400  0.71391200  0.67821300  1
  C  171  1  0.07593000  0.70979100  0.64690600  1
  C  172  1  0.09476100  0.68806600  0.63212000  1
  C  189  1  0.22808200  0.72439400  0.56634000  1
  C  190  1  0.19996700  0.55845100  0.70788700  1
  C  193  1  0.07392700  0.55926500  0.55324500  1
  C  195  1  0.06070100  0.73667200  0.69228600  1
  C  197  1  0.43631300  0.83536500  0.31613500  1
  C  198  1  0.40251300  0.83628000  0.31979300  1
  C  199  1  0.38777900  0.85652400  0.33967400  1
  C  200  1  0.40573100  0.87651900  0.35796600  1
  C  201  1  0.43949700  0.87660800  0.35272600  1
  C  202  1  0.45445500  0.85642800  0.33271100  1
  C  203  1  0.38799800  0.89753000  0.37982000  1
  C  204  1  0.37056000  0.91873300  0.35790300  1
  C  205  1  0.38865900  0.93899800  0.34003400  1
  C  206  1  0.37409500  0.95931100  0.32007700  1
  C  207  1  0.34034800  0.96006700  0.31596500  1
  C  208  1  0.32210300  0.93880800  0.33217200  1
  C  209  1  0.33689100  0.91848000  0.35211500  1
  C  210  1  0.36550100  0.88036300  0.40127200  1
  C  211  1  0.41006800  0.91438600  0.40184500  1
  C  212  1  0.40778600  0.94559900  0.40799500  1
  C  213  1  0.42798900  0.96020400  0.42878400  1
  C  214  1  0.45123500  0.94423600  0.44549500  1
  C  215  1  0.45258400  0.91290700  0.44083000  1
  C  216  1  0.43231900  0.89848900  0.42002700  1
  C  217  1  0.36763400  0.84904000  0.40701100  1
  C  218  1  0.34563600  0.83382600  0.42567900  1
  C  219  1  0.32080900  0.84943800  0.44051700  1
  C  220  1  0.31994600  0.88088800  0.43714700  1
  C  221  1  0.34230300  0.89590500  0.41876100  1
  C  238  1  0.47174300  0.95781700  0.46647200  1
  C  239  1  0.44998200  0.81391400  0.29702800  1
  C  242  1  0.32669100  0.98155000  0.29688000  1
  C  244  1  0.29570000  0.83476300  0.45506000  1
  C  246  1  0.93633300  0.95920200  0.94238800  1
  C  247  1  0.90253500  0.95855300  0.93859400  1
  C  248  1  0.88769300  0.93843000  0.91864100  1
  C  249  1  0.90554600  0.91829900  0.90042500  1
  C  250  1  0.93929700  0.91799700  0.90575800  1
  C  251  1  0.95435400  0.93804100  0.92583000  1
  C  252  1  0.88779400  0.89727900  0.87858800  1
  C  253  1  0.86999800  0.87623500  0.90038000  1
  C  254  1  0.88782500  0.85621300  0.91875300  1
  C  255  1  0.87295300  0.83603900  0.93864700  1
  C  256  1  0.83913400  0.83518900  0.94216900  1
  C  257  1  0.82111300  0.85617000  0.92539100  1
  C  258  1  0.83620300  0.87633800  0.90547000  1
  C  259  1  0.86555200  0.91431400  0.85679200  1
  C  260  1  0.91011700  0.88028200  0.85684800  1
  C  261  1  0.90818100  0.84897900  0.85105800  1
  C  262  1  0.92847500  0.83434100  0.83036000  1
  C  263  1  0.95151400  0.85033500  0.81342200  1
  C  264  1  0.95261100  0.88170900  0.81782000  1
  C  265  1  0.93225900  0.89615800  0.83851800  1
  C  266  1  0.86757700  0.94560800  0.85096400  1
  C  267  1  0.84737000  0.96027100  0.83021300  1
  C  268  1  0.82436100  0.94430300  0.81321600  1
  C  269  1  0.82322100  0.91292900  0.81760300  1
  C  270  1  0.84348900  0.89845800  0.83836100  1
  C  287  1  0.97210900  0.83673700  0.79252300  1
  C  288  1  0.95018200  0.98041100  0.96165600  1
  C  291  1  0.82521700  0.81382400  0.96121300  1
  C  293  1  0.80387000  0.95792200  0.79224500  1
  C  295  1  0.84006700  0.33498900  0.44332700  1
  C  296  1  0.87378000  0.33526800  0.43892200  1
  C  297  1  0.88848600  0.35547100  0.41897100  1
  C  298  1  0.87055600  0.37606200  0.40133700  1
  C  299  1  0.83696100  0.37683100  0.40743300  1
  C  300  1  0.82203100  0.35668400  0.42748700  1
  C  301  1  0.88816100  0.39710400  0.37940000  1
  C  302  1  0.90566100  0.41813700  0.40142200  1
  C  303  1  0.88762500  0.43867100  0.41903200  1
  C  304  1  0.90221300  0.45887400  0.43905100  1
  C  305  1  0.93590700  0.45919900  0.44358200  1
  C  306  1  0.95404200  0.43753900  0.42778900  1
  C  307  1  0.93922500  0.41738700  0.40766200  1
  C  308  1  0.91042700  0.38005100  0.35771800  1
  C  309  1  0.86599200  0.41417200  0.35764400  1
  C  310  1  0.86865400  0.44536300  0.35143800  1
  C  311  1  0.84667700  0.46066000  0.33282300  1
  C  312  1  0.82135800  0.44522200  0.31852600  1
  C  313  1  0.82004300  0.41382800  0.32225600  1
  C  314  1  0.84239200  0.39871200  0.34056900  1
  C  315  1  0.90774800  0.34887800  0.35142600  1
  C  316  1  0.92975600  0.33360800  0.33281600  1
  C  317  1  0.95510400  0.34906200  0.31858000  1
  C  318  1  0.95644100  0.38044700  0.32239500  1
  C  319  1  0.93408900  0.39552600  0.34073400  1
  C  336  1  0.79626000  0.46008700  0.30417400  1
  C  337  1  0.82634700  0.31363100  0.46251700  1
  C  340  1  0.94950000  0.48057600  0.46282300  1
  C  342  1  0.98019000  0.33423700  0.30415400  1
  C  344  1  0.33971800  0.45911800  0.81652000  1
  C  345  1  0.37352000  0.45841500  0.82025200  1
  C  346  1  0.38836500  0.43831800  0.84022900  1
  C  347  1  0.37051200  0.41825100  0.85851500  1
  C  348  1  0.33674600  0.41799800  0.85323900  1
  C  349  1  0.32168900  0.43802700  0.83315500  1
  C  350  1  0.38827700  0.39722500  0.88033800  1
  C  351  1  0.40592300  0.37609700  0.85851700  1
  C  352  1  0.38795400  0.35612000  0.84021600  1
  C  353  1  0.40267200  0.33581400  0.82036200  1
  C  354  1  0.43647900  0.33474500  0.81683600  1
  C  355  1  0.45465700  0.35566200  0.83355500  1
  C  356  1  0.43971800  0.37597400  0.85343000  1
  C  357  1  0.41060000  0.41424800  0.90208000  1
  C  358  1  0.36597500  0.38027200  0.90213400  1
  C  359  1  0.36789100  0.34897400  0.90795100  1
  C  360  1  0.34757800  0.33436000  0.92864400  1
  C  361  1  0.32454600  0.35038200  0.94556300  1
  C  362  1  0.32349500  0.38175800  0.94117100  1
  C  363  1  0.34386800  0.39618200  0.92047300  1
  C  364  1  0.40866600  0.44556000  0.90784600  1
  C  365  1  0.42892900  0.46022500  0.92855900  1
  C  366  1  0.45195200  0.44426000  0.94554000  1
  C  367  1  0.45302200  0.41287200  0.94119300  1
  C  368  1  0.43268500  0.39839700  0.92049100  1
  C  385  1  0.30392800  0.33680100  0.96644800  1
  C  386  1  0.32587100  0.48031000  0.79722800  1
  C  389  1  0.45022800  0.31321700  0.79786800  1
  C  391  1  0.47250800  0.45788100  0.96647100  1
  C  393  1  0.02995600  0.03973500  0.02479400  1
  C  395  1  0.02822200  0.99487100  0.99498100  1
  C  396  1  0.99577600  0.99995700  0.98748600  1
  C  398  1  0.99726900  0.04507900  0.01736400  1
  C  400  1  0.98083900  0.07008300  0.02727100  1
  C  403  1  0.99307100  0.12054600  0.03189100  1
  C  409  1  0.52862800  0.75382600  0.23343200  1
  C  411  1  0.52737800  0.79915000  0.26260700  1
  C  412  1  0.49511700  0.79410400  0.27076400  1
  C  414  1  0.49612900  0.74851400  0.24155300  1
  C  416  1  0.47957400  0.72332700  0.23230900  1
  C  419  1  0.49197700  0.67289300  0.22773800  1
  C  425  1  0.74710500  0.25367300  0.52563400  1
  C  427  1  0.74871200  0.29902600  0.49653700  1
  C  428  1  0.78100600  0.29388000  0.48854800  1
  C  430  1  0.77963800  0.24827000  0.51768900  1
  C  432  1  0.79602900  0.22300700  0.52696300  1
  C  435  1  0.78365300  0.17249600  0.53060700  1
  C  441  1  0.24612200  0.53964400  0.73407000  1
  C  443  1  0.24782900  0.49479900  0.76391200  1
  C  444  1  0.28027700  0.49987100  0.77140500  1
  C  446  1  0.27880800  0.54498000  0.74150000  1
  C  448  1  0.29525200  0.56997100  0.73158200  1
  C  451  1  0.28300600  0.62042300  0.72684100  1
  C  457  1  0.49576100  0.29475700  0.77061000  1
  C  459  1  0.49803600  0.24824700  0.74344200  1
  C  460  1  0.52951500  0.25439600  0.73356200  1
  C  462  1  0.52751200  0.30109500  0.76085800  1
  C  464  1  0.54310000  0.32736800  0.76824100  1
  C  467  1  0.52837800  0.37741500  0.76793700  1
  C  473  1  0.27874800  0.79753200  0.49112300  1
  C  475  1  0.27377600  0.75194000  0.51962700  1
  C  476  1  0.24169800  0.75879300  0.52739700  1
  C  478  1  0.24645800  0.80453700  0.49905700  1
  C  480  1  0.23152700  0.83092200  0.49147200  1
  C  483  1  0.24461900  0.87765100  0.50966800  1
  C  489  1  0.77930100  0.49705900  0.26793100  1
  C  491  1  0.77423300  0.54261700  0.23941400  1
  C  492  1  0.74210200  0.53578500  0.23182100  1
  C  494  1  0.74695900  0.49007100  0.26017900  1
  C  496  1  0.73207500  0.46368200  0.26783300  1
  C  499  1  0.74533600  0.41695300  0.24974200  1
  C  505  1  0.52722900  0.04302600  0.52535600  1
  C  507  1  0.51483300  0.99277700  0.50998400  1
  C  508  1  0.49201000  0.00319000  0.48898000  1
  C  510  1  0.50448000  0.05383500  0.50428300  1
  C  512  1  0.49788400  0.08406200  0.50112800  1
  C  515  1  0.49750200  0.12466200  0.53363500  1
  C  521  1  0.02809900  0.75155300  0.73395200  1
  C  523  1  0.01553400  0.80180100  0.74925100  1
  C  524  1  0.99259700  0.79137900  0.77014500  1
  C  526  1  0.00523300  0.74074200  0.75492000  1
  C  528  1  0.99862000  0.71052200  0.75803600  1
  C  531  1  0.99795900  0.67004700  0.72539200  1
  C  537  1  0.24794000  0.25164600  0.02503000  1
  C  539  1  0.26042800  0.30187800  0.00964400  1
  C  540  1  0.28345100  0.29145000  0.98883700  1
  C  542  1  0.27089000  0.24082400  0.00415000  1
  C  544  1  0.27757000  0.21060800  0.00111600  1
  C  547  1  0.27818100  0.17018900  0.03383300  1
  C  553  1  0.99711300  0.29720200  0.26793600  1
  C  555  1  0.00212400  0.25163300  0.23942100  1
  C  556  1  0.03422900  0.25847200  0.23173600  1
  C  558  1  0.02943200  0.30419600  0.26009600  1
  C  560  1  0.04433000  0.33058800  0.26771700  1
  C  563  1  0.03109700  0.37733000  0.24964400  1
  C  569  1  0.77942200  0.79565000  0.98829600  1
  C  571  1  0.77685400  0.74940500  0.01586700  1
  C  572  1  0.74526600  0.75564900  0.02539100  1
  C  574  1  0.74757900  0.80209000  0.99771700  1
  C  576  1  0.73211400  0.82832700  0.99001400  1
  C  579  1  0.74701200  0.87831100  0.99064700  1
  C  585  1  0.52834900  0.54308700  0.02520000  1
  C  587  1  0.51585100  0.49283700  0.00984100  1
  C  588  1  0.49293400  0.50324700  0.98892000  1
  C  590  1  0.50550400  0.55388900  0.00420800  1
  C  592  1  0.49887000  0.58410600  0.00110900  1
  C  595  1  0.49804500  0.62453700  0.03380800  1
  C  601  1  0.74819200  0.04313700  0.73350900  1
  C  603  1  0.76067600  0.99288700  0.74882100  1
  C  604  1  0.78349000  0.00329900  0.76983400  1
  C  606  1  0.77092900  0.05394600  0.75459300  1
  C  608  1  0.77748400  0.08417400  0.75777000  1
  C  611  1  0.77810400  0.12472200  0.72520600  1
  C  617  1  0.28117900  0.99999900  0.26955100  1
  C  619  1  0.27892100  0.04643900  0.24226500  1
  C  620  1  0.24740800  0.04031200  0.23245600  1
  C  622  1  0.24939400  0.99368300  0.25988200  1
  C  624  1  0.23375200  0.96747300  0.26738600  1
  C  627  1  0.24808900  0.91733200  0.26676400  1
  C  633  1  0.02821600  0.54062200  0.52642600  1
  C  635  1  0.02684500  0.49520800  0.49740100  1
  C  636  1  0.99462700  0.50034800  0.48915600  1
  C  638  1  0.99575900  0.54603200  0.51821700  1
  C  640  1  0.97929800  0.57132200  0.52732700  1
  C  643  1  0.99199900  0.62168900  0.53195400  1
  C  649  1  0.08979500  0.34888500  0.06949500  1
  C  650  1  0.12339600  0.35383400  0.06887700  1
  C  651  1  0.13810000  0.37503700  0.08779500  1
  C  652  1  0.12029900  0.39315400  0.10808600  1
  C  653  1  0.08675700  0.38684700  0.10940600  1
  C  654  1  0.07182200  0.36566300  0.09048500  1
  C  655  1  0.13802400  0.41540800  0.12876800  1
  C  656  1  0.15666600  0.39386500  0.14942600  1
  C  657  1  0.13945200  0.37479000  0.16927100  1
  C  658  1  0.15480200  0.35364800  0.18775400  1
  C  659  1  0.18857400  0.34992600  0.18732500  1
  C  660  1  0.20614900  0.36817600  0.16728000  1
  C  661  1  0.19053300  0.38924200  0.14865000  1
  C  662  1  0.15935700  0.43766300  0.11136600  1
  C  663  1  0.11550100  0.43651500  0.14632000  1
  C  664  1  0.11794100  0.44204300  0.17764500  1
  C  665  1  0.09636500  0.46094200  0.19308500  1
  C  666  1  0.07145200  0.47608100  0.17781900  1
  C  667  1  0.07002200  0.47252000  0.14640000  1
  C  668  1  0.09197400  0.45392200  0.13111500  1
  C  669  1  0.15681000  0.44299700  0.08001500  1
  C  670  1  0.17584800  0.46438700  0.06496700  1
  C  671  1  0.19788800  0.48256700  0.08070400  1
  C  672  1  0.19977000  0.47865400  0.11204700  1
  C  673  1  0.18097300  0.45690800  0.12683400  1
  C  690  1  0.04785800  0.49261600  0.19276100  1
  C  691  1  0.07612200  0.32701300  0.05096600  1
  C  694  1  0.20264000  0.32757500  0.20497300  1
  C  696  1  0.21517600  0.50533300  0.06660300  1
  C  698  1  0.58822500  0.98155500  0.18844900  1
  C  699  1  0.62196000  0.97753900  0.18886100  1
  C  700  1  0.63714200  0.95649500  0.17014100  1
  C  701  1  0.61976900  0.93767900  0.15016500  1
  C  702  1  0.58596300  0.94263900  0.14934800  1
  C  703  1  0.57054300  0.96372400  0.16809900  1
  C  704  1  0.63820900  0.91613800  0.12934100  1
  C  705  1  0.65601000  0.93839900  0.10873400  1
  C  706  1  0.63822400  0.95679500  0.08868500  1
  C  707  1  0.65294600  0.97817500  0.06999000  1
  C  708  1  0.68658000  0.98291300  0.07051800  1
  C  709  1  0.70460600  0.96570100  0.09110000  1
  C  710  1  0.68961700  0.94445600  0.10991300  1
  C  711  1  0.66065000  0.89482500  0.14673200  1
  C  712  1  0.61669900  0.89410500  0.11184400  1
  C  713  1  0.61926500  0.88882400  0.08048300  1
  C  714  1  0.60022800  0.86747400  0.06537100  1
  C  715  1  0.57815000  0.84927300  0.08104100  1
  C  716  1  0.57621700  0.85316100  0.11238900  1
  C  717  1  0.59500800  0.87487300  0.12724000  1
  C  718  1  0.65827000  0.88916500  0.17803900  1
  C  719  1  0.67986000  0.87018500  0.19335700  1
  C  720  1  0.70471700  0.85508100  0.17797600  1
  C  721  1  0.70601300  0.85869400  0.14655900  1
  C  722  1  0.68403600  0.87736900  0.13139700  1
  C  739  1  0.56091000  0.82647900  0.06690600  1
  C  740  1  0.57429400  0.00362880  0.20657100  1
  C  743  1  0.70021800  0.00517680  0.05248300  1
  C  745  1  0.72834300  0.83848900  0.19280500  1
  C  747  1  0.68725600  0.48146800  0.57039200  1
  C  748  1  0.65346100  0.47781700  0.57052100  1
  C  749  1  0.63838200  0.45668700  0.58923700  1
  C  750  1  0.65591600  0.43742500  0.60865900  1
  C  751  1  0.68978500  0.44209300  0.60899500  1
  C  752  1  0.70509500  0.46323300  0.59025200  1
  C  753  1  0.63764900  0.41564500  0.62940600  1
  C  754  1  0.61936600  0.43744000  0.65011700  1
  C  755  1  0.63692500  0.45685400  0.66936900  1
  C  756  1  0.62187800  0.47812500  0.68793400  1
  C  757  1  0.58807400  0.48163000  0.68821200  1
  C  758  1  0.57015800  0.46307900  0.66871600  1
  C  759  1  0.58546000  0.44190600  0.64999800  1
  C  760  1  0.61568200  0.39393500  0.61191900  1
  C  761  1  0.65966200  0.39401500  0.64693700  1
  C  762  1  0.65787600  0.38930800  0.67844100  1
  C  763  1  0.67703700  0.36801600  0.69348700  1
  C  764  1  0.69848500  0.34932000  0.67764700  1
  C  765  1  0.69981400  0.35277800  0.64622600  1
  C  766  1  0.68093000  0.37444800  0.63143500  1
  C  767  1  0.61747600  0.38918200  0.58042200  1
  C  768  1  0.59831900  0.36787400  0.56539800  1
  C  769  1  0.57688300  0.34918600  0.58126100  1
  C  770  1  0.57556600  0.35266400  0.61267700  1
  C  771  1  0.59445000  0.37435100  0.62744600  1
  C  788  1  0.71573400  0.32652700  0.69176200  1
  C  789  1  0.70120400  0.50348700  0.55220400  1
  C  792  1  0.57420700  0.50400600  0.70597800  1
  C  794  1  0.55960200  0.32641100  0.56715400  1
  C  796  1  0.18630100  0.84881700  0.68936800  1
  C  797  1  0.15271700  0.85384800  0.69008700  1
  C  798  1  0.13800600  0.87505600  0.67117700  1
  C  799  1  0.15579000  0.89311100  0.65081700  1
  C  800  1  0.18930000  0.88669000  0.64937200  1
  C  801  1  0.20424700  0.86551200  0.66829000  1
  C  802  1  0.13805600  0.91535700  0.63014800  1
  C  803  1  0.11956000  0.89378200  0.60941700  1
  C  804  1  0.13686400  0.87503100  0.58933300  1
  C  805  1  0.12162700  0.85395600  0.57068700  1
  C  806  1  0.08790600  0.84985900  0.57128000  1
  C  807  1  0.07030200  0.86760100  0.59176500  1
  C  808  1  0.08578200  0.88870400  0.61045300  1
  C  809  1  0.11661900  0.93751600  0.64755900  1
  C  810  1  0.16052500  0.93658700  0.61268600  1
  C  811  1  0.15788300  0.94241300  0.58143100  1
  C  812  1  0.17942600  0.96137900  0.56602900  1
  C  813  1  0.20449300  0.97631500  0.58127800  1
  C  814  1  0.20607700  0.97251000  0.61266600  1
  C  815  1  0.18414400  0.95386100  0.62791800  1
  C  816  1  0.11938300  0.94306200  0.67885700  1
  C  817  1  0.10033400  0.96444800  0.69390300  1
  C  818  1  0.07803400  0.98239200  0.67821300  1
  C  819  1  0.07593000  0.97827100  0.64690600  1
  C  820  1  0.09476100  0.95654600  0.63212000  1
  C  837  1  0.22808200  0.99287400  0.56634000  1
  C  838  1  0.19996700  0.82693100  0.70788700  1
  C  841  1  0.07392700  0.82774500  0.55324500  1
  C  843  1  0.06070100  0.00515180  0.69228600  1
  C  845  1  0.43631300  0.10384500  0.31613500  1
  C  846  1  0.40251300  0.10476000  0.31979300  1
  C  847  1  0.38777900  0.12500400  0.33967400  1
  C  848  1  0.40573100  0.14499900  0.35796600  1
  C  849  1  0.43949700  0.14508800  0.35272600  1
  C  850  1  0.45445500  0.12490800  0.33271100  1
  C  851  1  0.38799800  0.16601000  0.37982000  1
  C  852  1  0.37056000  0.18721300  0.35790300  1
  C  853  1  0.38865900  0.20747800  0.34003400  1
  C  854  1  0.37409500  0.22779100  0.32007700  1
  C  855  1  0.34034800  0.22854700  0.31596500  1
  C  856  1  0.32210300  0.20728800  0.33217200  1
  C  857  1  0.33689100  0.18696000  0.35211500  1
  C  858  1  0.36550100  0.14884300  0.40127200  1
  C  859  1  0.41006800  0.18286600  0.40184500  1
  C  860  1  0.40778600  0.21407900  0.40799500  1
  C  861  1  0.42798900  0.22868400  0.42878400  1
  C  862  1  0.45123500  0.21271600  0.44549500  1
  C  863  1  0.45258400  0.18138700  0.44083000  1
  C  864  1  0.43231900  0.16696900  0.42002700  1
  C  865  1  0.36763400  0.11752000  0.40701100  1
  C  866  1  0.34563600  0.10230600  0.42567900  1
  C  867  1  0.32080900  0.11791800  0.44051700  1
  C  868  1  0.31994600  0.14936800  0.43714700  1
  C  869  1  0.34230300  0.16438500  0.41876100  1
  C  886  1  0.47174300  0.22629700  0.46647200  1
  C  887  1  0.44998200  0.08239380  0.29702800  1
  C  890  1  0.32669100  0.25003000  0.29688000  1
  C  892  1  0.29570000  0.10324300  0.45506000  1
  C  894  1  0.93633300  0.22768200  0.94238800  1
  C  895  1  0.90253500  0.22703300  0.93859400  1
  C  896  1  0.88769300  0.20691000  0.91864100  1
  C  897  1  0.90554600  0.18677900  0.90042500  1
  C  898  1  0.93929700  0.18647700  0.90575800  1
  C  899  1  0.95435400  0.20652100  0.92583000  1
  C  900  1  0.88779400  0.16575900  0.87858800  1
  C  901  1  0.86999800  0.14471500  0.90038000  1
  C  902  1  0.88782500  0.12469300  0.91875300  1
  C  903  1  0.87295300  0.10451900  0.93864700  1
  C  904  1  0.83913400  0.10366900  0.94216900  1
  C  905  1  0.82111300  0.12465000  0.92539100  1
  C  906  1  0.83620300  0.14481800  0.90547000  1
  C  907  1  0.86555200  0.18279400  0.85679200  1
  C  908  1  0.91011700  0.14876200  0.85684800  1
  C  909  1  0.90818100  0.11745900  0.85105800  1
  C  910  1  0.92847500  0.10282100  0.83036000  1
  C  911  1  0.95151400  0.11881500  0.81342200  1
  C  912  1  0.95261100  0.15018900  0.81782000  1
  C  913  1  0.93225900  0.16463800  0.83851800  1
  C  914  1  0.86757700  0.21408800  0.85096400  1
  C  915  1  0.84737000  0.22875100  0.83021300  1
  C  916  1  0.82436100  0.21278300  0.81321600  1
  C  917  1  0.82322100  0.18140900  0.81760300  1
  C  918  1  0.84348900  0.16693800  0.83836100  1
  C  935  1  0.97210900  0.10521700  0.79252300  1
  C  936  1  0.95018200  0.24889100  0.96165600  1
  C  939  1  0.82521700  0.08230380  0.96121300  1
  C  941  1  0.80387000  0.22640200  0.79224500  1
  C  943  1  0.84006700  0.60346900  0.44332700  1
  C  944  1  0.87378000  0.60374800  0.43892200  1
  C  945  1  0.88848600  0.62395100  0.41897100  1
  C  946  1  0.87055600  0.64454200  0.40133700  1
  C  947  1  0.83696100  0.64531100  0.40743300  1
  C  948  1  0.82203100  0.62516400  0.42748700  1
  C  949  1  0.88816100  0.66558400  0.37940000  1
  C  950  1  0.90566100  0.68661700  0.40142200  1
  C  951  1  0.88762500  0.70715100  0.41903200  1
  C  952  1  0.90221300  0.72735400  0.43905100  1
  C  953  1  0.93590700  0.72767900  0.44358200  1
  C  954  1  0.95404200  0.70601900  0.42778900  1
  C  955  1  0.93922500  0.68586700  0.40766200  1
  C  956  1  0.91042700  0.64853100  0.35771800  1
  C  957  1  0.86599200  0.68265200  0.35764400  1
  C  958  1  0.86865400  0.71384300  0.35143800  1
  C  959  1  0.84667700  0.72914000  0.33282300  1
  C  960  1  0.82135800  0.71370200  0.31852600  1
  C  961  1  0.82004300  0.68230800  0.32225600  1
  C  962  1  0.84239200  0.66719200  0.34056900  1
  C  963  1  0.90774800  0.61735800  0.35142600  1
  C  964  1  0.92975600  0.60208800  0.33281600  1
  C  965  1  0.95510400  0.61754200  0.31858000  1
  C  966  1  0.95644100  0.64892700  0.32239500  1
  C  967  1  0.93408900  0.66400600  0.34073400  1
  C  984  1  0.79626000  0.72856700  0.30417400  1
  C  985  1  0.82634700  0.58211100  0.46251700  1
  C  988  1  0.94950000  0.74905600  0.46282300  1
  C  990  1  0.98019000  0.60271700  0.30415400  1
  C  992  1  0.33971800  0.72759800  0.81652000  1
  C  993  1  0.37352000  0.72689500  0.82025200  1
  C  994  1  0.38836500  0.70679800  0.84022900  1
  C  995  1  0.37051200  0.68673100  0.85851500  1
  C  996  1  0.33674600  0.68647800  0.85323900  1
  C  997  1  0.32168900  0.70650700  0.83315500  1
  C  998  1  0.38827700  0.66570500  0.88033800  1
  C  999  1  0.40592300  0.64457700  0.85851700  1
  C  1000  1  0.38795400  0.62460000  0.84021600  1
  C  1001  1  0.40267200  0.60429400  0.82036200  1
  C  1002  1  0.43647900  0.60322500  0.81683600  1
  C  1003  1  0.45465700  0.62414200  0.83355500  1
  C  1004  1  0.43971800  0.64445400  0.85343000  1
  C  1005  1  0.41060000  0.68272800  0.90208000  1
  C  1006  1  0.36597500  0.64875200  0.90213400  1
  C  1007  1  0.36789100  0.61745400  0.90795100  1
  C  1008  1  0.34757800  0.60284000  0.92864400  1
  C  1009  1  0.32454600  0.61886200  0.94556300  1
  C  1010  1  0.32349500  0.65023800  0.94117100  1
  C  1011  1  0.34386800  0.66466200  0.92047300  1
  C  1012  1  0.40866600  0.71404000  0.90784600  1
  C  1013  1  0.42892900  0.72870500  0.92855900  1
  C  1014  1  0.45195200  0.71274000  0.94554000  1
  C  1015  1  0.45302200  0.68135200  0.94119300  1
  C  1016  1  0.43268500  0.66687700  0.92049100  1
  C  1033  1  0.30392800  0.60528100  0.96644800  1
  C  1034  1  0.32587100  0.74879000  0.79722800  1
  C  1037  1  0.45022800  0.58169700  0.79786800  1
  C  1039  1  0.47250800  0.72636100  0.96647100  1
  C  1041  1  0.02995600  0.30821500  0.02479400  1
  C  1043  1  0.02822200  0.26335100  0.99498100  1
  C  1044  1  0.99577600  0.26843700  0.98748600  1
  C  1046  1  0.99726900  0.31355900  0.01736400  1
  C  1048  1  0.98083900  0.33856300  0.02727100  1
  C  1051  1  0.99307100  0.38902600  0.03189100  1
  C  1057  1  0.52862800  0.02230580  0.23343200  1
  C  1059  1  0.52737800  0.06762980  0.26260700  1
  C  1060  1  0.49511700  0.06258380  0.27076400  1
  C  1062  1  0.49612900  0.01699380  0.24155300  1
  C  1064  1  0.47957400  0.99180700  0.23230900  1
  C  1067  1  0.49197700  0.94137300  0.22773800  1
  C  1073  1  0.74710500  0.52215300  0.52563400  1
  C  1075  1  0.74871200  0.56750600  0.49653700  1
  C  1076  1  0.78100600  0.56236000  0.48854800  1
  C  1078  1  0.77963800  0.51675000  0.51768900  1
  C  1080  1  0.79602900  0.49148700  0.52696300  1
  C  1083  1  0.78365300  0.44097600  0.53060700  1
  C  1089  1  0.24612200  0.80812400  0.73407000  1
  C  1091  1  0.24782900  0.76327900  0.76391200  1
  C  1092  1  0.28027700  0.76835100  0.77140500  1
  C  1094  1  0.27880800  0.81346000  0.74150000  1
  C  1096  1  0.29525200  0.83845100  0.73158200  1
  C  1099  1  0.28300600  0.88890300  0.72684100  1
  C  1105  1  0.49576100  0.56323700  0.77061000  1
  C  1107  1  0.49803600  0.51672700  0.74344200  1
  C  1108  1  0.52951500  0.52287600  0.73356200  1
  C  1110  1  0.52751200  0.56957500  0.76085800  1
  C  1112  1  0.54310000  0.59584800  0.76824100  1
  C  1115  1  0.52837800  0.64589500  0.76793700  1
  C  1121  1  0.27874800  0.06601180  0.49112300  1
  C  1123  1  0.27377600  0.02041980  0.51962700  1
  C  1124  1  0.24169800  0.02727280  0.52739700  1
  C  1126  1  0.24645800  0.07301680  0.49905700  1
  C  1128  1  0.23152700  0.09940180  0.49147200  1
  C  1131  1  0.24461900  0.14613100  0.50966800  1
  C  1137  1  0.77930100  0.76553900  0.26793100  1
  C  1139  1  0.77423300  0.81109700  0.23941400  1
  C  1140  1  0.74210200  0.80426500  0.23182100  1
  C  1142  1  0.74695900  0.75855100  0.26017900  1
  C  1144  1  0.73207500  0.73216200  0.26783300  1
  C  1147  1  0.74533600  0.68543300  0.24974200  1
  C  1153  1  0.52722900  0.31150600  0.52535600  1
  C  1155  1  0.51483300  0.26125700  0.50998400  1
  C  1156  1  0.49201000  0.27167000  0.48898000  1
  C  1158  1  0.50448000  0.32231500  0.50428300  1
  C  1160  1  0.49788400  0.35254200  0.50112800  1
  C  1163  1  0.49750200  0.39314200  0.53363500  1
  C  1169  1  0.02809900  0.02003280  0.73395200  1
  C  1171  1  0.01553400  0.07028080  0.74925100  1
  C  1172  1  0.99259700  0.05985880  0.77014500  1
  C  1174  1  0.00523300  0.00922180  0.75492000  1
  C  1176  1  0.99862000  0.97900200  0.75803600  1
  C  1179  1  0.99795900  0.93852700  0.72539200  1
  C  1185  1  0.24794000  0.52012600  0.02503000  1
  C  1187  1  0.26042800  0.57035800  0.00964400  1
  C  1188  1  0.28345100  0.55993000  0.98883700  1
  C  1190  1  0.27089000  0.50930400  0.00415000  1
  C  1192  1  0.27757000  0.47908800  0.00111600  1
  C  1195  1  0.27818100  0.43866900  0.03383300  1
  C  1201  1  0.99711300  0.56568200  0.26793600  1
  C  1203  1  0.00212400  0.52011300  0.23942100  1
  C  1204  1  0.03422900  0.52695200  0.23173600  1
  C  1206  1  0.02943200  0.57267600  0.26009600  1
  C  1208  1  0.04433000  0.59906800  0.26771700  1
  C  1211  1  0.03109700  0.64581000  0.24964400  1
  C  1217  1  0.77942200  0.06412980  0.98829600  1
  C  1219  1  0.77685400  0.01788480  0.01586700  1
  C  1220  1  0.74526600  0.02412880  0.02539100  1
  C  1222  1  0.74757900  0.07056980  0.99771700  1
  C  1224  1  0.73211400  0.09680680  0.99001400  1
  C  1227  1  0.74701200  0.14679100  0.99064700  1
  C  1233  1  0.52834900  0.81156700  0.02520000  1
  C  1235  1  0.51585100  0.76131700  0.00984100  1
  C  1236  1  0.49293400  0.77172700  0.98892000  1
  C  1238  1  0.50550400  0.82236900  0.00420800  1
  C  1240  1  0.49887000  0.85258600  0.00110900  1
  C  1243  1  0.49804500  0.89301700  0.03380800  1
  C  1249  1  0.74819200  0.31161700  0.73350900  1
  C  1251  1  0.76067600  0.26136700  0.74882100  1
  C  1252  1  0.78349000  0.27177900  0.76983400  1
  C  1254  1  0.77092900  0.32242600  0.75459300  1
  C  1256  1  0.77748400  0.35265400  0.75777000  1
  C  1259  1  0.77810400  0.39320200  0.72520600  1
  C  1265  1  0.28117900  0.26847900  0.26955100  1
  C  1267  1  0.27892100  0.31491900  0.24226500  1
  C  1268  1  0.24740800  0.30879200  0.23245600  1
  C  1270  1  0.24939400  0.26216300  0.25988200  1
  C  1272  1  0.23375200  0.23595300  0.26738600  1
  C  1275  1  0.24808900  0.18581200  0.26676400  1
  C  1281  1  0.02821600  0.80910200  0.52642600  1
  C  1283  1  0.02684500  0.76368800  0.49740100  1
  C  1284  1  0.99462700  0.76882800  0.48915600  1
  C  1286  1  0.99575900  0.81451200  0.51821700  1
  C  1288  1  0.97929800  0.83980200  0.52732700  1
  C  1291  1  0.99199900  0.89016900  0.53195400  1
  C  1297  1  0.08979500  0.61736500  0.06949500  1
  C  1298  1  0.12339600  0.62231400  0.06887700  1
  C  1299  1  0.13810000  0.64351700  0.08779500  1
  C  1300  1  0.12029900  0.66163400  0.10808600  1
  C  1301  1  0.08675700  0.65532700  0.10940600  1
  C  1302  1  0.07182200  0.63414300  0.09048500  1
  C  1303  1  0.13802400  0.68388800  0.12876800  1
  C  1304  1  0.15666600  0.66234500  0.14942600  1
  C  1305  1  0.13945200  0.64327000  0.16927100  1
  C  1306  1  0.15480200  0.62212800  0.18775400  1
  C  1307  1  0.18857400  0.61840600  0.18732500  1
  C  1308  1  0.20614900  0.63665600  0.16728000  1
  C  1309  1  0.19053300  0.65772200  0.14865000  1
  C  1310  1  0.15935700  0.70614300  0.11136600  1
  C  1311  1  0.11550100  0.70499500  0.14632000  1
  C  1312  1  0.11794100  0.71052300  0.17764500  1
  C  1313  1  0.09636500  0.72942200  0.19308500  1
  C  1314  1  0.07145200  0.74456100  0.17781900  1
  C  1315  1  0.07002200  0.74100000  0.14640000  1
  C  1316  1  0.09197400  0.72240200  0.13111500  1
  C  1317  1  0.15681000  0.71147700  0.08001500  1
  C  1318  1  0.17584800  0.73286700  0.06496700  1
  C  1319  1  0.19788800  0.75104700  0.08070400  1
  C  1320  1  0.19977000  0.74713400  0.11204700  1
  C  1321  1  0.18097300  0.72538800  0.12683400  1
  C  1338  1  0.04785800  0.76109600  0.19276100  1
  C  1339  1  0.07612200  0.59549300  0.05096600  1
  C  1342  1  0.20264000  0.59605500  0.20497300  1
  C  1344  1  0.21517600  0.77381300  0.06660300  1
  C  1346  1  0.58822500  0.25003500  0.18844900  1
  C  1347  1  0.62196000  0.24601900  0.18886100  1
  C  1348  1  0.63714200  0.22497500  0.17014100  1
  C  1349  1  0.61976900  0.20615900  0.15016500  1
  C  1350  1  0.58596300  0.21111900  0.14934800  1
  C  1351  1  0.57054300  0.23220400  0.16809900  1
  C  1352  1  0.63820900  0.18461800  0.12934100  1
  C  1353  1  0.65601000  0.20687900  0.10873400  1
  C  1354  1  0.63822400  0.22527500  0.08868500  1
  C  1355  1  0.65294600  0.24665500  0.06999000  1
  C  1356  1  0.68658000  0.25139300  0.07051800  1
  C  1357  1  0.70460600  0.23418100  0.09110000  1
  C  1358  1  0.68961700  0.21293600  0.10991300  1
  C  1359  1  0.66065000  0.16330500  0.14673200  1
  C  1360  1  0.61669900  0.16258500  0.11184400  1
  C  1361  1  0.61926500  0.15730400  0.08048300  1
  C  1362  1  0.60022800  0.13595400  0.06537100  1
  C  1363  1  0.57815000  0.11775300  0.08104100  1
  C  1364  1  0.57621700  0.12164100  0.11238900  1
  C  1365  1  0.59500800  0.14335300  0.12724000  1
  C  1366  1  0.65827000  0.15764500  0.17803900  1
  C  1367  1  0.67986000  0.13866500  0.19335700  1
  C  1368  1  0.70471700  0.12356100  0.17797600  1
  C  1369  1  0.70601300  0.12717400  0.14655900  1
  C  1370  1  0.68403600  0.14584900  0.13139700  1
  C  1387  1  0.56091000  0.09495860  0.06690600  1
  C  1388  1  0.57429400  0.27210900  0.20657100  1
  C  1391  1  0.70021800  0.27365700  0.05248300  1
  C  1393  1  0.72834300  0.10696900  0.19280500  1
  C  1395  1  0.68725600  0.74994800  0.57039200  1
  C  1396  1  0.65346100  0.74629700  0.57052100  1
  C  1397  1  0.63838200  0.72516700  0.58923700  1
  C  1398  1  0.65591600  0.70590500  0.60865900  1
  C  1399  1  0.68978500  0.71057300  0.60899500  1
  C  1400  1  0.70509500  0.73171300  0.59025200  1
  C  1401  1  0.63764900  0.68412500  0.62940600  1
  C  1402  1  0.61936600  0.70592000  0.65011700  1
  C  1403  1  0.63692500  0.72533400  0.66936900  1
  C  1404  1  0.62187800  0.74660500  0.68793400  1
  C  1405  1  0.58807400  0.75011000  0.68821200  1
  C  1406  1  0.57015800  0.73155900  0.66871600  1
  C  1407  1  0.58546000  0.71038600  0.64999800  1
  C  1408  1  0.61568200  0.66241500  0.61191900  1
  C  1409  1  0.65966200  0.66249500  0.64693700  1
  C  1410  1  0.65787600  0.65778800  0.67844100  1
  C  1411  1  0.67703700  0.63649600  0.69348700  1
  C  1412  1  0.69848500  0.61780000  0.67764700  1
  C  1413  1  0.69981400  0.62125800  0.64622600  1
  C  1414  1  0.68093000  0.64292800  0.63143500  1
  C  1415  1  0.61747600  0.65766200  0.58042200  1
  C  1416  1  0.59831900  0.63635400  0.56539800  1
  C  1417  1  0.57688300  0.61766600  0.58126100  1
  C  1418  1  0.57556600  0.62114400  0.61267700  1
  C  1419  1  0.59445000  0.64283100  0.62744600  1
  C  1436  1  0.71573400  0.59500700  0.69176200  1
  C  1437  1  0.70120400  0.77196700  0.55220400  1
  C  1440  1  0.57420700  0.77248600  0.70597800  1
  C  1442  1  0.55960200  0.59489100  0.56715400  1
  C  1444  1  0.18630100  0.11729700  0.68936800  1
  C  1445  1  0.15271700  0.12232800  0.69008700  1
  C  1446  1  0.13800600  0.14353600  0.67117700  1
  C  1447  1  0.15579000  0.16159100  0.65081700  1
  C  1448  1  0.18930000  0.15517000  0.64937200  1
  C  1449  1  0.20424700  0.13399200  0.66829000  1
  C  1450  1  0.13805600  0.18383700  0.63014800  1
  C  1451  1  0.11956000  0.16226200  0.60941700  1
  C  1452  1  0.13686400  0.14351100  0.58933300  1
  C  1453  1  0.12162700  0.12243600  0.57068700  1
  C  1454  1  0.08790600  0.11833900  0.57128000  1
  C  1455  1  0.07030200  0.13608100  0.59176500  1
  C  1456  1  0.08578200  0.15718400  0.61045300  1
  C  1457  1  0.11661900  0.20599600  0.64755900  1
  C  1458  1  0.16052500  0.20506700  0.61268600  1
  C  1459  1  0.15788300  0.21089300  0.58143100  1
  C  1460  1  0.17942600  0.22985900  0.56602900  1
  C  1461  1  0.20449300  0.24479500  0.58127800  1
  C  1462  1  0.20607700  0.24099000  0.61266600  1
  C  1463  1  0.18414400  0.22234100  0.62791800  1
  C  1464  1  0.11938300  0.21154200  0.67885700  1
  C  1465  1  0.10033400  0.23292800  0.69390300  1
  C  1466  1  0.07803400  0.25087200  0.67821300  1
  C  1467  1  0.07593000  0.24675100  0.64690600  1
  C  1468  1  0.09476100  0.22502600  0.63212000  1
  C  1485  1  0.22808200  0.26135400  0.56634000  1
  C  1486  1  0.19996700  0.09541060  0.70788700  1
  C  1489  1  0.07392700  0.09622460  0.55324500  1
  C  1491  1  0.06070100  0.27363200  0.69228600  1
  C  1493  1  0.43631300  0.37232500  0.31613500  1
  C  1494  1  0.40251300  0.37324000  0.31979300  1
  C  1495  1  0.38777900  0.39348400  0.33967400  1
  C  1496  1  0.40573100  0.41347900  0.35796600  1
  C  1497  1  0.43949700  0.41356800  0.35272600  1
  C  1498  1  0.45445500  0.39338800  0.33271100  1
  C  1499  1  0.38799800  0.43449000  0.37982000  1
  C  1500  1  0.37056000  0.45569300  0.35790300  1
  C  1501  1  0.38865900  0.47595800  0.34003400  1
  C  1502  1  0.37409500  0.49627100  0.32007700  1
  C  1503  1  0.34034800  0.49702700  0.31596500  1
  C  1504  1  0.32210300  0.47576800  0.33217200  1
  C  1505  1  0.33689100  0.45544000  0.35211500  1
  C  1506  1  0.36550100  0.41732300  0.40127200  1
  C  1507  1  0.41006800  0.45134600  0.40184500  1
  C  1508  1  0.40778600  0.48255900  0.40799500  1
  C  1509  1  0.42798900  0.49716400  0.42878400  1
  C  1510  1  0.45123500  0.48119600  0.44549500  1
  C  1511  1  0.45258400  0.44986700  0.44083000  1
  C  1512  1  0.43231900  0.43544900  0.42002700  1
  C  1513  1  0.36763400  0.38600000  0.40701100  1
  C  1514  1  0.34563600  0.37078600  0.42567900  1
  C  1515  1  0.32080900  0.38639800  0.44051700  1
  C  1516  1  0.31994600  0.41784800  0.43714700  1
  C  1517  1  0.34230300  0.43286500  0.41876100  1
  C  1534  1  0.47174300  0.49477700  0.46647200  1
  C  1535  1  0.44998200  0.35087400  0.29702800  1
  C  1538  1  0.32669100  0.51851000  0.29688000  1
  C  1540  1  0.29570000  0.37172300  0.45506000  1
  C  1542  1  0.93633300  0.49616200  0.94238800  1
  C  1543  1  0.90253500  0.49551300  0.93859400  1
  C  1544  1  0.88769300  0.47539000  0.91864100  1
  C  1545  1  0.90554600  0.45525900  0.90042500  1
  C  1546  1  0.93929700  0.45495700  0.90575800  1
  C  1547  1  0.95435400  0.47500100  0.92583000  1
  C  1548  1  0.88779400  0.43423900  0.87858800  1
  C  1549  1  0.86999800  0.41319500  0.90038000  1
  C  1550  1  0.88782500  0.39317300  0.91875300  1
  C  1551  1  0.87295300  0.37299900  0.93864700  1
  C  1552  1  0.83913400  0.37214900  0.94216900  1
  C  1553  1  0.82111300  0.39313000  0.92539100  1
  C  1554  1  0.83620300  0.41329800  0.90547000  1
  C  1555  1  0.86555200  0.45127400  0.85679200  1
  C  1556  1  0.91011700  0.41724200  0.85684800  1
  C  1557  1  0.90818100  0.38593900  0.85105800  1
  C  1558  1  0.92847500  0.37130100  0.83036000  1
  C  1559  1  0.95151400  0.38729500  0.81342200  1
  C  1560  1  0.95261100  0.41866900  0.81782000  1
  C  1561  1  0.93225900  0.43311800  0.83851800  1
  C  1562  1  0.86757700  0.48256800  0.85096400  1
  C  1563  1  0.84737000  0.49723100  0.83021300  1
  C  1564  1  0.82436100  0.48126300  0.81321600  1
  C  1565  1  0.82322100  0.44988900  0.81760300  1
  C  1566  1  0.84348900  0.43541800  0.83836100  1
  C  1583  1  0.97210900  0.37369700  0.79252300  1
  C  1584  1  0.95018200  0.51737100  0.96165600  1
  C  1587  1  0.82521700  0.35078400  0.96121300  1
  C  1589  1  0.80387000  0.49488200  0.79224500  1
  C  1591  1  0.84006700  0.87194900  0.44332700  1
  C  1592  1  0.87378000  0.87222800  0.43892200  1
  C  1593  1  0.88848600  0.89243100  0.41897100  1
  C  1594  1  0.87055600  0.91302200  0.40133700  1
  C  1595  1  0.83696100  0.91379100  0.40743300  1
  C  1596  1  0.82203100  0.89364400  0.42748700  1
  C  1597  1  0.88816100  0.93406400  0.37940000  1
  C  1598  1  0.90566100  0.95509700  0.40142200  1
  C  1599  1  0.88762500  0.97563100  0.41903200  1
  C  1600  1  0.90221300  0.99583400  0.43905100  1
  C  1601  1  0.93590700  0.99615900  0.44358200  1
  C  1602  1  0.95404200  0.97449900  0.42778900  1
  C  1603  1  0.93922500  0.95434700  0.40766200  1
  C  1604  1  0.91042700  0.91701100  0.35771800  1
  C  1605  1  0.86599200  0.95113200  0.35764400  1
  C  1606  1  0.86865400  0.98232300  0.35143800  1
  C  1607  1  0.84667700  0.99762000  0.33282300  1
  C  1608  1  0.82135800  0.98218200  0.31852600  1
  C  1609  1  0.82004300  0.95078800  0.32225600  1
  C  1610  1  0.84239200  0.93567200  0.34056900  1
  C  1611  1  0.90774800  0.88583800  0.35142600  1
  C  1612  1  0.92975600  0.87056800  0.33281600  1
  C  1613  1  0.95510400  0.88602200  0.31858000  1
  C  1614  1  0.95644100  0.91740700  0.32239500  1
  C  1615  1  0.93408900  0.93248600  0.34073400  1
  C  1632  1  0.79626000  0.99704700  0.30417400  1
  C  1633  1  0.82634700  0.85059100  0.46251700  1
  C  1636  1  0.94950000  0.01753560  0.46282300  1
  C  1638  1  0.98019000  0.87119700  0.30415400  1
  C  1640  1  0.33971800  0.99607800  0.81652000  1
  C  1641  1  0.37352000  0.99537500  0.82025200  1
  C  1642  1  0.38836500  0.97527800  0.84022900  1
  C  1643  1  0.37051200  0.95521100  0.85851500  1
  C  1644  1  0.33674600  0.95495800  0.85323900  1
  C  1645  1  0.32168900  0.97498700  0.83315500  1
  C  1646  1  0.38827700  0.93418500  0.88033800  1
  C  1647  1  0.40592300  0.91305700  0.85851700  1
  C  1648  1  0.38795400  0.89308000  0.84021600  1
  C  1649  1  0.40267200  0.87277400  0.82036200  1
  C  1650  1  0.43647900  0.87170500  0.81683600  1
  C  1651  1  0.45465700  0.89262200  0.83355500  1
  C  1652  1  0.43971800  0.91293400  0.85343000  1
  C  1653  1  0.41060000  0.95120800  0.90208000  1
  C  1654  1  0.36597500  0.91723200  0.90213400  1
  C  1655  1  0.36789100  0.88593400  0.90795100  1
  C  1656  1  0.34757800  0.87132000  0.92864400  1
  C  1657  1  0.32454600  0.88734200  0.94556300  1
  C  1658  1  0.32349500  0.91871800  0.94117100  1
  C  1659  1  0.34386800  0.93314200  0.92047300  1
  C  1660  1  0.40866600  0.98252000  0.90784600  1
  C  1661  1  0.42892900  0.99718500  0.92855900  1
  C  1662  1  0.45195200  0.98122000  0.94554000  1
  C  1663  1  0.45302200  0.94983200  0.94119300  1
  C  1664  1  0.43268500  0.93535700  0.92049100  1
  C  1681  1  0.30392800  0.87376100  0.96644800  1
  C  1682  1  0.32587100  0.01726960  0.79722800  1
  C  1685  1  0.45022800  0.85017700  0.79786800  1
  C  1687  1  0.47250800  0.99484100  0.96647100  1
  C  1689  1  0.02995600  0.57669500  0.02479400  1
  C  1691  1  0.02822200  0.53183100  0.99498100  1
  C  1692  1  0.99577600  0.53691700  0.98748600  1
  C  1694  1  0.99726900  0.58203900  0.01736400  1
  C  1696  1  0.98083900  0.60704300  0.02727100  1
  C  1699  1  0.99307100  0.65750600  0.03189100  1
  C  1705  1  0.52862800  0.29078600  0.23343200  1
  C  1707  1  0.52737800  0.33611000  0.26260700  1
  C  1708  1  0.49511700  0.33106400  0.27076400  1
  C  1710  1  0.49612900  0.28547400  0.24155300  1
  C  1712  1  0.47957400  0.26028700  0.23230900  1
  C  1715  1  0.49197700  0.20985300  0.22773800  1
  C  1721  1  0.74710500  0.79063300  0.52563400  1
  C  1723  1  0.74871200  0.83598600  0.49653700  1
  C  1724  1  0.78100600  0.83084000  0.48854800  1
  C  1726  1  0.77963800  0.78523000  0.51768900  1
  C  1728  1  0.79602900  0.75996700  0.52696300  1
  C  1731  1  0.78365300  0.70945600  0.53060700  1
  C  1737  1  0.24612200  0.07660360  0.73407000  1
  C  1739  1  0.24782900  0.03175860  0.76391200  1
  C  1740  1  0.28027700  0.03683060  0.77140500  1
  C  1742  1  0.27880800  0.08193960  0.74150000  1
  C  1744  1  0.29525200  0.10693100  0.73158200  1
  C  1747  1  0.28300600  0.15738300  0.72684100  1
  C  1753  1  0.49576100  0.83171700  0.77061000  1
  C  1755  1  0.49803600  0.78520700  0.74344200  1
  C  1756  1  0.52951500  0.79135600  0.73356200  1
  C  1758  1  0.52751200  0.83805500  0.76085800  1
  C  1760  1  0.54310000  0.86432800  0.76824100  1
  C  1763  1  0.52837800  0.91437500  0.76793700  1
  C  1769  1  0.27874800  0.33449200  0.49112300  1
  C  1771  1  0.27377600  0.28890000  0.51962700  1
  C  1772  1  0.24169800  0.29575300  0.52739700  1
  C  1774  1  0.24645800  0.34149700  0.49905700  1
  C  1776  1  0.23152700  0.36788200  0.49147200  1
  C  1779  1  0.24461900  0.41461100  0.50966800  1
  C  1785  1  0.77930100  0.03401860  0.26793100  1
  C  1787  1  0.77423300  0.07957660  0.23941400  1
  C  1788  1  0.74210200  0.07274460  0.23182100  1
  C  1790  1  0.74695900  0.02703060  0.26017900  1
  C  1792  1  0.73207500  0.00064160  0.26783300  1
  C  1795  1  0.74533600  0.95391300  0.24974200  1
  C  1801  1  0.52722900  0.57998600  0.52535600  1
  C  1803  1  0.51483300  0.52973700  0.50998400  1
  C  1804  1  0.49201000  0.54015000  0.48898000  1
  C  1806  1  0.50448000  0.59079500  0.50428300  1
  C  1808  1  0.49788400  0.62102200  0.50112800  1
  C  1811  1  0.49750200  0.66162200  0.53363500  1
  C  1817  1  0.02809900  0.28851300  0.73395200  1
  C  1819  1  0.01553400  0.33876100  0.74925100  1
  C  1820  1  0.99259700  0.32833900  0.77014500  1
  C  1822  1  0.00523300  0.27770200  0.75492000  1
  C  1824  1  0.99862000  0.24748200  0.75803600  1
  C  1827  1  0.99795900  0.20700700  0.72539200  1
  C  1833  1  0.24794000  0.78860600  0.02503000  1
  C  1835  1  0.26042800  0.83883800  0.00964400  1
  C  1836  1  0.28345100  0.82841000  0.98883700  1
  C  1838  1  0.27089000  0.77778400  0.00415000  1
  C  1840  1  0.27757000  0.74756800  0.00111600  1
  C  1843  1  0.27818100  0.70714900  0.03383300  1
  C  1849  1  0.99711300  0.83416200  0.26793600  1
  C  1851  1  0.00212400  0.78859300  0.23942100  1
  C  1852  1  0.03422900  0.79543200  0.23173600  1
  C  1854  1  0.02943200  0.84115600  0.26009600  1
  C  1856  1  0.04433000  0.86754800  0.26771700  1
  C  1859  1  0.03109700  0.91429000  0.24964400  1
  C  1865  1  0.77942200  0.33261000  0.98829600  1
  C  1867  1  0.77685400  0.28636500  0.01586700  1
  C  1868  1  0.74526600  0.29260900  0.02539100  1
  C  1870  1  0.74757900  0.33905000  0.99771700  1
  C  1872  1  0.73211400  0.36528700  0.99001400  1
  C  1875  1  0.74701200  0.41527100  0.99064700  1
  C  1881  1  0.52834900  0.08004660  0.02520000  1
  C  1883  1  0.51585100  0.02979660  0.00984100  1
  C  1884  1  0.49293400  0.04020660  0.98892000  1
  C  1886  1  0.50550400  0.09084860  0.00420800  1
  C  1888  1  0.49887000  0.12106600  0.00110900  1
  C  1891  1  0.49804500  0.16149700  0.03380800  1
  C  1897  1  0.74819200  0.58009700  0.73350900  1
  C  1899  1  0.76067600  0.52984700  0.74882100  1
  C  1900  1  0.78349000  0.54025900  0.76983400  1
  C  1902  1  0.77092900  0.59090600  0.75459300  1
  C  1904  1  0.77748400  0.62113400  0.75777000  1
  C  1907  1  0.77810400  0.66168200  0.72520600  1
  C  1913  1  0.28117900  0.53695900  0.26955100  1
  C  1915  1  0.27892100  0.58339900  0.24226500  1
  C  1916  1  0.24740800  0.57727200  0.23245600  1
  C  1918  1  0.24939400  0.53064300  0.25988200  1
  C  1920  1  0.23375200  0.50443300  0.26738600  1
  C  1923  1  0.24808900  0.45429200  0.26676400  1
  C  1929  1  0.02821600  0.07758160  0.52642600  1
  C  1931  1  0.02684500  0.03216760  0.49740100  1
  C  1932  1  0.99462700  0.03730760  0.48915600  1
  C  1934  1  0.99575900  0.08299160  0.51821700  1
  C  1936  1  0.97929800  0.10828200  0.52732700  1
  C  1939  1  0.99199900  0.15864900  0.53195400  1
  N  394  1  0.04375600  0.01462900  0.01307900  1
  N  397  1  0.98203900  0.02506800  0.99911100  1
  N  407  1  0.04642500  0.05848900  0.04261000  1
  N  408  1  0.98003600  0.98087000  0.96956700  1
  N  410  1  0.54257600  0.77914600  0.24454000  1
  N  413  1  0.48122400  0.76878000  0.25976500  1
  N  423  1  0.54486500  0.73478200  0.21570100  1
  N  424  1  0.47968500  0.81345300  0.28865100  1
  N  426  1  0.73331800  0.27905300  0.51449600  1
  N  429  1  0.79473800  0.26849300  0.49957300  1
  N  439  1  0.73071200  0.23468500  0.54328900  1
  N  440  1  0.79658500  0.31316100  0.47071000  1
  N  442  1  0.23230600  0.51455200  0.74580300  1
  N  445  1  0.29402800  0.52496900  0.75976600  1
  N  455  1  0.22966300  0.55840000  0.71624500  1
  N  456  1  0.29601000  0.48078900  0.78933900  1
  N  458  1  0.48268300  0.26833200  0.76131400  1
  N  461  1  0.54258800  0.28076000  0.74285200  1
  N  471  1  0.47958400  0.31366900  0.78852000  1
  N  472  1  0.54514900  0.23481700  0.71609300  1
  N  474  1  0.29063100  0.77135500  0.50215100  1
  N  477  1  0.22975600  0.78490000  0.51655300  1
  N  487  1  0.29943400  0.81394100  0.47476100  1
  N  488  1  0.22214600  0.74159400  0.54383500  1
  N  490  1  0.79117000  0.52320400  0.25681900  1
  N  493  1  0.73018300  0.50970200  0.24274400  1
  N  503  1  0.80004200  0.48060800  0.28416800  1
  N  504  1  0.72249600  0.55297000  0.21544800  1
  N  506  1  0.53132600  0.01281200  0.52699600  1
  N  509  1  0.48811300  0.03335200  0.48741400  1
  N  519  1  0.54490400  0.06175100  0.54205100  1
  N  520  1  0.47407300  0.98632700  0.47060700  1
  N  522  1  0.03215400  0.78177700  0.73233000  1
  N  525  1  0.98873300  0.76121100  0.77169500  1
  N  535  1  0.04589100  0.73283300  0.71733300  1
  N  536  1  0.97454200  0.80822400  0.78844900  1
  N  538  1  0.24380600  0.28186300  0.02656900  1
  N  541  1  0.28739000  0.26128700  0.98736500  1
  N  551  1  0.23013900  0.23294000  0.04164800  1
  N  552  1  0.30151400  0.30828800  0.97054300  1
  N  554  1  0.98523000  0.27104600  0.25686100  1
  N  557  1  0.04616500  0.28456600  0.24262100  1
  N  567  1  0.97640300  0.31364700  0.28421900  1
  N  568  1  0.05379300  0.24129200  0.21529800  1
  N  570  1  0.79239600  0.76931300  0.99794800  1
  N  573  1  0.73229400  0.78193800  0.01577600  1
  N  583  1  0.79578900  0.81439300  0.97035900  1
  N  584  1  0.72951400  0.73627600  0.04296500  1
  N  586  1  0.53242500  0.51286300  0.02680400  1
  N  589  1  0.48905000  0.53341800  0.98739200  1
  N  599  1  0.54608000  0.56182500  0.04186600  1
  N  600  1  0.47491400  0.48639300  0.97057800  1
  N  602  1  0.74414800  0.01292000  0.73183500  1
  N  605  1  0.78733700  0.03346800  0.77143600  1
  N  615  1  0.73050700  0.06187000  0.71682500  1
  N  616  1  0.80145400  0.98643900  0.78820000  1
  N  618  1  0.29427900  0.02637900  0.26016100  1
  N  621  1  0.23431200  0.01399300  0.24185500  1
  N  631  1  0.29733900  0.98112700  0.28751300  1
  N  632  1  0.23172000  0.05989600  0.21502500  1
  N  634  1  0.04208700  0.51521700  0.51543400  1
  N  637  1  0.98081500  0.52576400  0.50003200  1
  N  647  1  0.04450000  0.55967500  0.54411000  1
  N  648  1  0.97919200  0.48103900  0.47123500  1
  N  1042  1  0.04375600  0.28310900  0.01307900  1
  N  1045  1  0.98203900  0.29354800  0.99911100  1
  N  1055  1  0.04642500  0.32696900  0.04261000  1
  N  1056  1  0.98003600  0.24935000  0.96956700  1
  N  1058  1  0.54257600  0.04762580  0.24454000  1
  N  1061  1  0.48122400  0.03725980  0.25976500  1
  N  1071  1  0.54486500  0.00326180  0.21570100  1
  N  1072  1  0.47968500  0.08193280  0.28865100  1
  N  1074  1  0.73331800  0.54753300  0.51449600  1
  N  1077  1  0.79473800  0.53697300  0.49957300  1
  N  1087  1  0.73071200  0.50316500  0.54328900  1
  N  1088  1  0.79658500  0.58164100  0.47071000  1
  N  1090  1  0.23230600  0.78303200  0.74580300  1
  N  1093  1  0.29402800  0.79344900  0.75976600  1
  N  1103  1  0.22966300  0.82688000  0.71624500  1
  N  1104  1  0.29601000  0.74926900  0.78933900  1
  N  1106  1  0.48268300  0.53681200  0.76131400  1
  N  1109  1  0.54258800  0.54924000  0.74285200  1
  N  1119  1  0.47958400  0.58214900  0.78852000  1
  N  1120  1  0.54514900  0.50329700  0.71609300  1
  N  1122  1  0.29063100  0.03983480  0.50215100  1
  N  1125  1  0.22975600  0.05337980  0.51655300  1
  N  1135  1  0.29943400  0.08242080  0.47476100  1
  N  1136  1  0.22214600  0.01007380  0.54383500  1
  N  1138  1  0.79117000  0.79168400  0.25681900  1
  N  1141  1  0.73018300  0.77818200  0.24274400  1
  N  1151  1  0.80004200  0.74908800  0.28416800  1
  N  1152  1  0.72249600  0.82145000  0.21544800  1
  N  1154  1  0.53132600  0.28129200  0.52699600  1
  N  1157  1  0.48811300  0.30183200  0.48741400  1
  N  1167  1  0.54490400  0.33023100  0.54205100  1
  N  1168  1  0.47407300  0.25480700  0.47060700  1
  N  1170  1  0.03215400  0.05025680  0.73233000  1
  N  1173  1  0.98873300  0.02969080  0.77169500  1
  N  1183  1  0.04589100  0.00131280  0.71733300  1
  N  1184  1  0.97454200  0.07670380  0.78844900  1
  N  1186  1  0.24380600  0.55034300  0.02656900  1
  N  1189  1  0.28739000  0.52976700  0.98736500  1
  N  1199  1  0.23013900  0.50142000  0.04164800  1
  N  1200  1  0.30151400  0.57676800  0.97054300  1
  N  1202  1  0.98523000  0.53952600  0.25686100  1
  N  1205  1  0.04616500  0.55304600  0.24262100  1
  N  1215  1  0.97640300  0.58212700  0.28421900  1
  N  1216  1  0.05379300  0.50977200  0.21529800  1
  N  1218  1  0.79239600  0.03779280  0.99794800  1
  N  1221  1  0.73229400  0.05041780  0.01577600  1
  N  1231  1  0.79578900  0.08287280  0.97035900  1
  N  1232  1  0.72951400  0.00475580  0.04296500  1
  N  1234  1  0.53242500  0.78134300  0.02680400  1
  N  1237  1  0.48905000  0.80189800  0.98739200  1
  N  1247  1  0.54608000  0.83030500  0.04186600  1
  N  1248  1  0.47491400  0.75487300  0.97057800  1
  N  1250  1  0.74414800  0.28140000  0.73183500  1
  N  1253  1  0.78733700  0.30194800  0.77143600  1
  N  1263  1  0.73050700  0.33035000  0.71682500  1
  N  1264  1  0.80145400  0.25491900  0.78820000  1
  N  1266  1  0.29427900  0.29485900  0.26016100  1
  N  1269  1  0.23431200  0.28247300  0.24185500  1
  N  1279  1  0.29733900  0.24960700  0.28751300  1
  N  1280  1  0.23172000  0.32837600  0.21502500  1
  N  1282  1  0.04208700  0.78369700  0.51543400  1
  N  1285  1  0.98081500  0.79424400  0.50003200  1
  N  1295  1  0.04450000  0.82815500  0.54411000  1
  N  1296  1  0.97919200  0.74951900  0.47123500  1
  N  1690  1  0.04375600  0.55158900  0.01307900  1
  N  1693  1  0.98203900  0.56202800  0.99911100  1
  N  1703  1  0.04642500  0.59544900  0.04261000  1
  N  1704  1  0.98003600  0.51783000  0.96956700  1
  N  1706  1  0.54257600  0.31610600  0.24454000  1
  N  1709  1  0.48122400  0.30574000  0.25976500  1
  N  1719  1  0.54486500  0.27174200  0.21570100  1
  N  1720  1  0.47968500  0.35041300  0.28865100  1
  N  1722  1  0.73331800  0.81601300  0.51449600  1
  N  1725  1  0.79473800  0.80545300  0.49957300  1
  N  1735  1  0.73071200  0.77164500  0.54328900  1
  N  1736  1  0.79658500  0.85012100  0.47071000  1
  N  1738  1  0.23230600  0.05151160  0.74580300  1
  N  1741  1  0.29402800  0.06192860  0.75976600  1
  N  1751  1  0.22966300  0.09535960  0.71624500  1
  N  1752  1  0.29601000  0.01774860  0.78933900  1
  N  1754  1  0.48268300  0.80529200  0.76131400  1
  N  1757  1  0.54258800  0.81772000  0.74285200  1
  N  1767  1  0.47958400  0.85062900  0.78852000  1
  N  1768  1  0.54514900  0.77177700  0.71609300  1
  N  1770  1  0.29063100  0.30831500  0.50215100  1
  N  1773  1  0.22975600  0.32186000  0.51655300  1
  N  1783  1  0.29943400  0.35090100  0.47476100  1
  N  1784  1  0.22214600  0.27855400  0.54383500  1
  N  1786  1  0.79117000  0.06016360  0.25681900  1
  N  1789  1  0.73018300  0.04666160  0.24274400  1
  N  1799  1  0.80004200  0.01756760  0.28416800  1
  N  1800  1  0.72249600  0.08992960  0.21544800  1
  N  1802  1  0.53132600  0.54977200  0.52699600  1
  N  1805  1  0.48811300  0.57031200  0.48741400  1
  N  1815  1  0.54490400  0.59871100  0.54205100  1
  N  1816  1  0.47407300  0.52328700  0.47060700  1
  N  1818  1  0.03215400  0.31873700  0.73233000  1
  N  1821  1  0.98873300  0.29817100  0.77169500  1
  N  1831  1  0.04589100  0.26979300  0.71733300  1
  N  1832  1  0.97454200  0.34518400  0.78844900  1
  N  1834  1  0.24380600  0.81882300  0.02656900  1
  N  1837  1  0.28739000  0.79824700  0.98736500  1
  N  1847  1  0.23013900  0.76990000  0.04164800  1
  N  1848  1  0.30151400  0.84524800  0.97054300  1
  N  1850  1  0.98523000  0.80800600  0.25686100  1
  N  1853  1  0.04616500  0.82152600  0.24262100  1
  N  1863  1  0.97640300  0.85060700  0.28421900  1
  N  1864  1  0.05379300  0.77825200  0.21529800  1
  N  1866  1  0.79239600  0.30627300  0.99794800  1
  N  1869  1  0.73229400  0.31889800  0.01577600  1
  N  1879  1  0.79578900  0.35135300  0.97035900  1
  N  1880  1  0.72951400  0.27323600  0.04296500  1
  N  1882  1  0.53242500  0.04982260  0.02680400  1
  N  1885  1  0.48905000  0.07037760  0.98739200  1
  N  1895  1  0.54608000  0.09878460  0.04186600  1
  N  1896  1  0.47491400  0.02335260  0.97057800  1
  N  1898  1  0.74414800  0.54988000  0.73183500  1
  N  1901  1  0.78733700  0.57042800  0.77143600  1
  N  1911  1  0.73050700  0.59883000  0.71682500  1
  N  1912  1  0.80145400  0.52339900  0.78820000  1
  N  1914  1  0.29427900  0.56333900  0.26016100  1
  N  1917  1  0.23431200  0.55095300  0.24185500  1
  N  1927  1  0.29733900  0.51808700  0.28751300  1
  N  1928  1  0.23172000  0.59685600  0.21502500  1
  N  1930  1  0.04208700  0.05217660  0.51543400  1
  N  1933  1  0.98081500  0.06272360  0.50003200  1
  N  1943  1  0.04450000  0.09663460  0.54411000  1
  N  1944  1  0.97919200  0.01799860  0.47123500  1
  O  401  1  0.95217300  0.06679100  0.03253100  1
  O  402  1  0.98851200  0.09515300  0.01257500  1
  O  417  1  0.45073500  0.72639200  0.22776500  1
  O  418  1  0.48788700  0.69841600  0.24697400  1
  O  433  1  0.82475600  0.22609300  0.53206800  1
  O  434  1  0.78812300  0.19828200  0.51180000  1
  O  449  1  0.32393000  0.56668200  0.72637400  1
  O  450  1  0.28753600  0.59506700  0.74621400  1
  O  465  1  0.57190100  0.32532600  0.77347200  1
  O  466  1  0.53460800  0.35059400  0.75113000  1
  O  481  1  0.20820500  0.82823900  0.47505500  1
  O  482  1  0.22760900  0.85000400  0.51417000  1
  O  497  1  0.70873000  0.46636700  0.28422100  1
  O  498  1  0.72821800  0.44453300  0.24518500  1
  O  513  1  0.48767300  0.09240000  0.47683300  1
  O  514  1  0.48367600  0.09644600  0.52497800  1
  O  529  1  0.98851200  0.70216100  0.78236100  1
  O  530  1  0.98422700  0.69824400  0.73423400  1
  O  545  1  0.28778600  0.20221100  0.97684300  1
  O  546  1  0.29189100  0.19839500  0.02499300  1
  O  561  1  0.06769300  0.32790800  0.28408500  1
  O  562  1  0.04816400  0.34972600  0.24505700  1
  O  577  1  0.70344000  0.82620800  0.98423700  1
  O  578  1  0.74013000  0.85154600  0.00732700  1
  O  593  1  0.48884100  0.59248700  0.97676200  1
  O  594  1  0.48437600  0.59634000  0.02488300  1
  O  609  1  0.78751500  0.09252200  0.78212800  1
  O  610  1  0.79188200  0.09653200  0.73400800  1
  O  625  1  0.20502900  0.96966800  0.27291600  1
  O  626  1  0.24187800  0.94425400  0.25011100  1
  O  641  1  0.95040600  0.56843400  0.53169000  1
  O  642  1  0.98789400  0.59617700  0.51270700  1
  O  1049  1  0.95217300  0.33527100  0.03253100  1
  O  1050  1  0.98851200  0.36363300  0.01257500  1
  O  1065  1  0.45073500  0.99487200  0.22776500  1
  O  1066  1  0.48788700  0.96689600  0.24697400  1
  O  1081  1  0.82475600  0.49457300  0.53206800  1
  O  1082  1  0.78812300  0.46676200  0.51180000  1
  O  1097  1  0.32393000  0.83516200  0.72637400  1
  O  1098  1  0.28753600  0.86354700  0.74621400  1
  O  1113  1  0.57190100  0.59380600  0.77347200  1
  O  1114  1  0.53460800  0.61907400  0.75113000  1
  O  1129  1  0.20820500  0.09671880  0.47505500  1
  O  1130  1  0.22760900  0.11848400  0.51417000  1
  O  1145  1  0.70873000  0.73484700  0.28422100  1
  O  1146  1  0.72821800  0.71301300  0.24518500  1
  O  1161  1  0.48767300  0.36088000  0.47683300  1
  O  1162  1  0.48367600  0.36492600  0.52497800  1
  O  1177  1  0.98851200  0.97064100  0.78236100  1
  O  1178  1  0.98422700  0.96672400  0.73423400  1
  O  1193  1  0.28778600  0.47069100  0.97684300  1
  O  1194  1  0.29189100  0.46687500  0.02499300  1
  O  1209  1  0.06769300  0.59638800  0.28408500  1
  O  1210  1  0.04816400  0.61820600  0.24505700  1
  O  1225  1  0.70344000  0.09468780  0.98423700  1
  O  1226  1  0.74013000  0.12002600  0.00732700  1
  O  1241  1  0.48884100  0.86096700  0.97676200  1
  O  1242  1  0.48437600  0.86482000  0.02488300  1
  O  1257  1  0.78751500  0.36100200  0.78212800  1
  O  1258  1  0.79188200  0.36501200  0.73400800  1
  O  1273  1  0.20502900  0.23814800  0.27291600  1
  O  1274  1  0.24187800  0.21273400  0.25011100  1
  O  1289  1  0.95040600  0.83691400  0.53169000  1
  O  1290  1  0.98789400  0.86465700  0.51270700  1
  O  1697  1  0.95217300  0.60375100  0.03253100  1
  O  1698  1  0.98851200  0.63211300  0.01257500  1
  O  1713  1  0.45073500  0.26335200  0.22776500  1
  O  1714  1  0.48788700  0.23537600  0.24697400  1
  O  1729  1  0.82475600  0.76305300  0.53206800  1
  O  1730  1  0.78812300  0.73524200  0.51180000  1
  O  1745  1  0.32393000  0.10364200  0.72637400  1
  O  1746  1  0.28753600  0.13202700  0.74621400  1
  O  1761  1  0.57190100  0.86228600  0.77347200  1
  O  1762  1  0.53460800  0.88755400  0.75113000  1
  O  1777  1  0.20820500  0.36519900  0.47505500  1
  O  1778  1  0.22760900  0.38696400  0.51417000  1
  O  1793  1  0.70873000  0.00332660  0.28422100  1
  O  1794  1  0.72821800  0.98149300  0.24518500  1
  O  1809  1  0.48767300  0.62936000  0.47683300  1
  O  1810  1  0.48367600  0.63340600  0.52497800  1
  O  1825  1  0.98851200  0.23912100  0.78236100  1
  O  1826  1  0.98422700  0.23520400  0.73423400  1
  O  1841  1  0.28778600  0.73917100  0.97684300  1
  O  1842  1  0.29189100  0.73535500  0.02499300  1
  O  1857  1  0.06769300  0.86486800  0.28408500  1
  O  1858  1  0.04816400  0.88668600  0.24505700  1
  O  1873  1  0.70344000  0.36316800  0.98423700  1
  O  1874  1  0.74013000  0.38850600  0.00732700  1
  O  1889  1  0.48884100  0.12944700  0.97676200  1
  O  1890  1  0.48437600  0.13330000  0.02488300  1
  O  1905  1  0.78751500  0.62948200  0.78212800  1
  O  1906  1  0.79188200  0.63349200  0.73400800  1
  O  1921  1  0.20502900  0.50662800  0.27291600  1
  O  1922  1  0.24187800  0.48121400  0.25011100  1
  O  1937  1  0.95040600  0.10539400  0.53169000  1
  O  1938  1  0.98789400  0.13313700  0.51270700  1
