# generated using pymatgen
data_H16C25
_symmetry_space_group_name_H-M   'P 1'
_cell_length_a   38.69496767
_cell_length_b   38.69496767
_cell_length_c   38.69496767
_cell_angle_alpha   109.47122063
_cell_angle_beta   109.47122063
_cell_angle_gamma   109.47122063
_symmetry_Int_Tables_number   1
_chemical_formula_structural   H16C25
_chemical_formula_sum   'H384 C600'
_cell_volume   44600.68959605
_cell_formula_units_Z   24
loop_
 _symmetry_equiv_pos_site_id
 _symmetry_equiv_pos_as_xyz
  1  'x, y, z'
loop_
 _atom_site_type_symbol
 _atom_site_label
 _atom_site_symmetry_multiplicity
 _atom_site_fract_x
 _atom_site_fract_y
 _atom_site_fract_z
 _atom_site_occupancy
  C  1  1  0.37650750  0.72661700  0.87332450  1
  C  2  1  0.37133750  0.75975900  0.86920150  1
  C  3  1  0.34632650  0.75359050  0.82948200  1
  C  4  1  0.32657650  0.71472750  0.79143900  1
  C  5  1  0.33276950  0.68194400  0.79592650  1
  C  6  1  0.35744800  0.68778250  0.83585450  1
  C  7  1  0.29400050  0.70719050  0.75002200  1
  C  8  1  0.25470400  0.69295250  0.75473450  1
  C  9  1  0.23110000  0.65019400  0.74382700  1
  C  10  1  0.19639700  0.63606400  0.74991400  1
  C  11  1  0.18386000  0.66424750  0.76831650  1
  C  12  1  0.20861300  0.70746000  0.78192700  1
  C  13  1  0.24346950  0.72145850  0.77564600  1
  C  14  1  0.30820850  0.74649750  0.74532700  1
  C  15  1  0.28646050  0.67463100  0.70859250  1
  C  16  1  0.24761000  0.65492700  0.67055200  1
  C  17  1  0.24146700  0.62998700  0.63082300  1
  C  18  1  0.27455500  0.62469800  0.62668800  1
  C  19  1  0.31335500  0.64366000  0.66416700  1
  C  20  1  0.31922550  0.66840550  0.70409300  1
  C  21  1  0.35094900  0.77005900  0.75615600  1
  C  22  1  0.36507600  0.80477850  0.75009350  1
  C  23  1  0.33689300  0.81733600  0.73173800  1
  C  24  1  0.29369150  0.79261600  0.71818450  1
  C  25  1  0.27970400  0.75776300  0.72447200  1
  C  42  1  0.12576700  0.49794000  0.85122100  1
  C  43  1  0.13095400  0.49901000  0.88954300  1
  C  44  1  0.15593700  0.48427300  0.90837500  1
  C  45  1  0.17569700  0.46597100  0.88928300  1
  C  46  1  0.16951250  0.46428800  0.85031250  1
  C  47  1  0.14482200  0.47951700  0.83145100  1
  C  48  1  0.20828750  0.45716200  0.91433950  1
  C  49  1  0.24759150  0.50116050  0.93939800  1
  C  50  1  0.27118750  0.51386650  0.92023800  1
  C  51  1  0.30588300  0.55465800  0.94079200  1
  C  52  1  0.31841700  0.58561150  0.98150350  1
  C  53  1  0.29365600  0.57448000  0.99995900  1
  C  54  1  0.25880900  0.53333800  0.97911200  1
  C  55  1  0.19408900  0.43829200  0.93946200  1
  C  56  1  0.21582050  0.42327650  0.88931900  1
  C  57  1  0.25465050  0.42404550  0.90846600  1
  C  58  1  0.26080950  0.39047350  0.88965700  1
  C  59  1  0.22770700  0.35323550  0.85129850  1
  C  60  1  0.18888850  0.35189400  0.83150950  1
  C  61  1  0.18304750  0.38598100  0.85035050  1
  C  62  1  0.15135950  0.40635050  0.92028400  1
  C  63  1  0.13723600  0.38616200  0.94087900  1
  C  64  1  0.16541800  0.39601250  0.98162850  1
  C  65  1  0.20861750  0.42565950  0.00010300  1
  C  66  1  0.22259450  0.44592150  0.97922200  1
  C  83  1  0.64785000  0.77339300  0.64878200  1
  C  84  1  0.61059700  0.74025750  0.61045850  1
  C  85  1  0.57702450  0.74640650  0.59163600  1
  C  86  1  0.57782100  0.78526350  0.61072750  1
  C  87  1  0.61512750  0.81805700  0.64967650  1
  C  88  1  0.64919200  0.81221050  0.66857450  1
  C  89  1  0.54395850  0.79280000  0.58567150  1
  C  90  1  0.56289900  0.80705000  0.56061800  1
  C  91  1  0.59476050  0.84981050  0.57978000  1
  C  92  1  0.61500200  0.86395700  0.55923200  1
  C  93  1  0.60525750  0.83578450  0.51852600  1
  C  94  1  0.57567350  0.79256450  0.50006700  1
  C  95  1  0.55537350  0.77855850  0.52090800  1
  C  96  1  0.49996300  0.75348000  0.56055000  1
  C  97  1  0.53509300  0.82535450  0.61069450  1
  C  98  1  0.51670800  0.84503200  0.59154400  1
  C  99  1  0.50194750  0.87000100  0.61035150  1
  C  100  1  0.50305100  0.87523450  0.64869750  1
  C  101  1  0.52156150  0.85626750  0.66852900  1
  C  102  1  0.53677900  0.83156100  0.64966900  1
  C  103  1  0.48719700  0.72993950  0.57973450  1
  C  104  1  0.44640900  0.69522700  0.55914600  1
  C  105  1  0.41550850  0.68265850  0.51839600  1
  C  106  1  0.42669000  0.70736600  0.49990900  1
  C  107  1  0.46783350  0.74222000  0.52078650  1
  C  124  1  0.85443100  0.00208150  0.62669450  1
  C  125  1  0.89167850  0.00098700  0.63082950  1
  C  126  1  0.92524150  0.01573300  0.67055750  1
  C  127  1  0.92443850  0.03406350  0.70860800  1
  C  128  1  0.88713650  0.03571400  0.70408750  1
  C  129  1  0.85306600  0.02050050  0.66416350  1
  C  130  1  0.95831700  0.04286200  0.74999900  1
  C  131  1  0.93940000  0.99885850  0.74529650  1
  C  132  1  0.90750750  0.98614450  0.75615400  1
  C  133  1  0.88726900  0.94535300  0.75005500  1
  C  134  1  0.89704500  0.91440750  0.73165550  1
  C  135  1  0.92665000  0.92554600  0.71804600  1
  C  136  1  0.94694450  0.96668800  0.72434150  1
  C  137  1  0.00231800  0.06178950  0.75469650  1
  C  138  1  0.96716300  0.07672950  0.79141850  1
  C  139  1  0.98552950  0.07594750  0.82947300  1
  C  140  1  0.00031900  0.10952550  0.86920550  1
  C  141  1  0.99917800  0.14675450  0.87334650  1
  C  142  1  0.98067650  0.14808500  0.83587250  1
  C  143  1  0.96545650  0.11401050  0.79594200  1
  C  144  1  0.01505700  0.09368900  0.74385700  1
  C  145  1  0.05584700  0.11388700  0.74993700  1
  C  146  1  0.08675000  0.10404050  0.76827550  1
  C  147  1  0.07557250  0.07438100  0.78181150  1
  C  148  1  0.03443200  0.05412200  0.77553500  1
  C  165  1  0.50317650  0.12667750  0.85328600  1
  C  166  1  0.50210250  0.13081700  0.89054250  1
  C  167  1  0.51685250  0.17054700  0.92410350  1
  C  168  1  0.53518200  0.20859550  0.92329650  1
  C  169  1  0.53680750  0.20407000  0.88598350  1
  C  170  1  0.52156750  0.16414000  0.85190450  1
  C  171  1  0.54399300  0.24999300  0.95717500  1
  C  172  1  0.49999100  0.24530050  0.93826350  1
  C  173  1  0.48728550  0.25617350  0.90638200  1
  C  174  1  0.44649900  0.25009050  0.88615450  1
  C  175  1  0.41554000  0.23165600  0.89590000  1
  C  176  1  0.42667150  0.21803250  0.92549400  1
  C  177  1  0.46781300  0.22432600  0.94578900  1
  C  178  1  0.56292200  0.25469250  0.00117750  1
  C  179  1  0.57788000  0.29139700  0.96600700  1
  C  180  1  0.57710300  0.32944900  0.98441000  1
  C  181  1  0.61067400  0.36918350  0.99918550  1
  C  182  1  0.64790700  0.37332750  0.99804650  1
  C  183  1  0.64924600  0.33585100  0.97956800  1
  C  184  1  0.61515350  0.29591550  0.96429500  1
  C  185  1  0.59482650  0.24386050  0.01391900  1
  C  186  1  0.61502700  0.24994350  0.05471050  1
  C  187  1  0.60517650  0.26827800  0.08561050  1
  C  188  1  0.57550600  0.28180250  0.07442850  1
  C  189  1  0.55524500  0.27552150  0.03328850  1
  C  206  1  0.27452450  0.14874300  0.64670650  1
  C  207  1  0.24140900  0.11039600  0.60946600  1
  C  208  1  0.24755350  0.09158600  0.57588350  1
  C  209  1  0.28642200  0.11069700  0.57671400  1
  C  210  1  0.31921050  0.14966100  0.61399950  1
  C  211  1  0.31335450  0.16852800  0.64806650  1
  C  212  1  0.29396250  0.08567250  0.54282900  1
  C  213  1  0.30818200  0.06057500  0.56172600  1
  C  214  1  0.35093500  0.07974750  0.59360750  1
  C  215  1  0.36507550  0.05918400  0.61383150  1
  C  216  1  0.33689300  0.01847300  0.60407300  1
  C  217  1  0.29367850  0.00001350  0.57447900  1
  C  218  1  0.27967900  0.02086600  0.55419300  1
  C  219  1  0.25465850  0.06059850  0.49882600  1
  C  220  1  0.32653400  0.11074150  0.53400550  1
  C  221  1  0.34621250  0.09158450  0.51562600  1
  C  222  1  0.37115850  0.11038250  0.50084400  1
  C  223  1  0.37641000  0.14874000  0.50196300  1
  C  224  1  0.35741250  0.16855300  0.52044250  1
  C  225  1  0.33272600  0.14970800  0.53568400  1
  C  226  1  0.23107700  0.07975900  0.48609300  1
  C  227  1  0.19634700  0.05915950  0.44531550  1
  C  228  1  0.18379100  0.01841700  0.41440300  1
  C  229  1  0.20851650  0.99994150  0.42557200  1
  C  230  1  0.24338150  0.02081850  0.46670800  1
  C  247  1  0.99912450  0.35127750  0.12466600  1
  C  248  1  0.00021100  0.38961050  0.12987650  1
  C  249  1  0.98545600  0.40842750  0.15484650  1
  C  250  1  0.96715050  0.38930150  0.17458200  1
  C  251  1  0.96542250  0.35031200  0.16836450  1
  C  252  1  0.98065700  0.33146400  0.14367000  1
  C  253  1  0.95829300  0.41432500  0.20714900  1
  C  254  1  0.00228950  0.43942000  0.24646350  1
  C  255  1  0.01500150  0.42024250  0.27003600  1
  C  256  1  0.05579200  0.44080550  0.30473850  1
  C  257  1  0.08674400  0.48151700  0.31726800  1
  C  258  1  0.07560050  0.49998500  0.29252550  1
  C  259  1  0.03445900  0.47913500  0.25767800  1
  C  260  1  0.93936050  0.43939650  0.19292000  1
  C  261  1  0.92440050  0.38925800  0.21465550  1
  C  262  1  0.92518600  0.40841500  0.25349500  1
  C  263  1  0.89160100  0.38962700  0.25964400  1
  C  264  1  0.85436300  0.35126800  0.22654500  1
  C  265  1  0.85301600  0.33146850  0.18772550  1
  C  266  1  0.88710650  0.35029750  0.18188200  1
  C  267  1  0.90746750  0.42023950  0.15018100  1
  C  268  1  0.88726750  0.44082900  0.13606050  1
  C  269  1  0.89711200  0.48157650  0.16424450  1
  C  270  1  0.92676600  0.50005650  0.20744250  1
  C  271  1  0.94702250  0.47917700  0.22142550  1
  C  288  1  0.22777250  0.37333150  0.37536600  1
  C  289  1  0.26088600  0.36920300  0.37013600  1
  C  290  1  0.25473600  0.32947650  0.34517350  1
  C  291  1  0.21587350  0.29143650  0.32543200  1
  C  292  1  0.18308850  0.29593750  0.33161400  1
  C  293  1  0.18895000  0.33586050  0.35634650  1
  C  294  1  0.20832750  0.25001350  0.29285600  1
  C  295  1  0.19408000  0.25471700  0.25355600  1
  C  296  1  0.15131900  0.24380200  0.22995300  1
  C  297  1  0.13718350  0.24989850  0.19525800  1
  C  298  1  0.16536300  0.26831800  0.18272500  1
  C  299  1  0.20857600  0.28191550  0.20746350  1
  C  300  1  0.22258100  0.27563200  0.24231700  1
  C  301  1  0.24763200  0.24531250  0.30706350  1
  C  302  1  0.17575650  0.20860800  0.28534150  1
  C  303  1  0.15610900  0.17055750  0.24650950  1
  C  304  1  0.13115050  0.13081900  0.24034050  1
  C  305  1  0.12588950  0.12667450  0.27343600  1
  C  306  1  0.14484350  0.16414450  0.31223900  1
  C  307  1  0.16954250  0.20407950  0.31810000  1
  C  308  1  0.27118600  0.25613300  0.34980300  1
  C  309  1  0.30589850  0.25005750  0.36392900  1
  C  310  1  0.31847000  0.23172000  0.33575000  1
  C  311  1  0.29376800  0.21819300  0.29255300  1
  C  312  1  0.25891050  0.22447600  0.27856450  1
  C  329  1  0.64987600  0.14669250  0.27337150  1
  C  330  1  0.61156400  0.10943000  0.24023600  1
  C  331  1  0.59272300  0.07587850  0.24640450  1
  C  332  1  0.61183600  0.07669700  0.28526600  1
  C  333  1  0.65081150  0.11397050  0.31805100  1
  C  334  1  0.66964950  0.14806050  0.31221200  1
  C  335  1  0.58680050  0.04281850  0.29280600  1
  C  336  1  0.56174200  0.06176600  0.30704600  1
  C  337  1  0.58089600  0.09361350  0.34980550  1
  C  338  1  0.56032450  0.11383650  0.36393500  1
  C  339  1  0.51961000  0.10406450  0.33575250  1
  C  340  1  0.50115250  0.07446550  0.29253700  1
  C  341  1  0.52200500  0.05417800  0.27854000  1
  C  342  1  0.56169500  0.99881350  0.25349750  1
  C  343  1  0.61182100  0.03394500  0.32536100  1
  C  344  1  0.59267750  0.01560350  0.34506400  1
  C  345  1  0.61146850  0.00079850  0.36998700  1
  C  346  1  0.64983050  0.00192900  0.37524450  1
  C  347  1  0.66968550  0.02047700  0.35630950  1
  C  348  1  0.65080950  0.03567000  0.33157850  1
  C  349  1  0.58087050  0.98608050  0.22993200  1
  C  350  1  0.56027600  0.94529850  0.19521050  1
  C  351  1  0.51953500  0.91438650  0.18265650  1
  C  352  1  0.50105650  0.92555200  0.20737950  1
  C  353  1  0.52192650  0.96669450  0.24223500  1
  C  370  1  0.62780100  0.35327100  0.50202400  1
  C  371  1  0.63192300  0.39053300  0.50097800  1
  C  372  1  0.67164950  0.42410600  0.51573450  1
  C  373  1  0.70970750  0.42330950  0.53403900  1
  C  374  1  0.70520000  0.38601900  0.53571300  1
  C  375  1  0.66527450  0.35192250  0.52046600  1
  C  376  1  0.75110950  0.45716950  0.54284800  1
  C  377  1  0.74641500  0.43823000  0.49885200  1
  C  378  1  0.75730200  0.40636300  0.48614400  1
  C  379  1  0.75120450  0.38612600  0.44535150  1
  C  380  1  0.73278550  0.39588450  0.41439900  1
  C  381  1  0.71916300  0.42547800  0.42553400  1
  C  382  1  0.72545800  0.44577100  0.46667600  1
  C  383  1  0.75578850  0.50116600  0.56172050  1
  C  384  1  0.79253100  0.46603450  0.57673350  1
  C  385  1  0.83059100  0.48441650  0.57596550  1
  C  386  1  0.87032600  0.49922450  0.60955550  1
  C  387  1  0.87445900  0.49810100  0.64679000  1
  C  388  1  0.83698500  0.47962300  0.64812400  1
  C  389  1  0.79705300  0.46436550  0.61403050  1
  C  390  1  0.74500550  0.51393750  0.59366600  1
  C  391  1  0.75108400  0.55472650  0.61386050  1
  C  392  1  0.76942400  0.58562450  0.60401050  1
  C  393  1  0.78296600  0.57444100  0.57435500  1
  C  394  1  0.77666950  0.53329350  0.55409100  1
  C  411  1  0.87445950  0.87536100  0.22659050  1
  C  412  1  0.87033950  0.87018200  0.25972750  1
  C  413  1  0.83061400  0.84521100  0.25357400  1
  C  414  1  0.79255500  0.82545250  0.21471750  1
  C  415  1  0.79706900  0.83161200  0.18192600  1
  C  416  1  0.83698850  0.85632850  0.18776800  1
  C  417  1  0.75115250  0.79286000  0.20717850  1
  C  418  1  0.75585500  0.75356150  0.19294450  1
  C  419  1  0.74498300  0.72996650  0.15019450  1
  C  420  1  0.75109000  0.69527750  0.13606750  1
  C  421  1  0.76950600  0.68275150  0.16425250  1
  C  422  1  0.78311450  0.70750700  0.20746350  1
  C  423  1  0.77680850  0.74234750  0.22145000  1
  C  424  1  0.74646750  0.80705850  0.24649000  1
  C  425  1  0.70973300  0.78531450  0.17460850  1
  C  426  1  0.67167700  0.74648150  0.15492050  1
  C  427  1  0.63194500  0.74031500  0.12994500  1
  C  428  1  0.62780650  0.77342250  0.12470800  1
  C  429  1  0.66528200  0.81223400  0.14370100  1
  C  430  1  0.70520700  0.81808500  0.16841300  1
  C  431  1  0.75725100  0.84978650  0.27004050  1
  C  432  1  0.75117600  0.86390800  0.30475300  1
  C  433  1  0.73281900  0.83571600  0.31730100  1
  C  434  1  0.71927750  0.79252050  0.29258300  1
  C  435  1  0.72557400  0.77854750  0.25773250  1
  C  452  1  0.85237850  0.62463850  0.99795600  1
  C  453  1  0.89071000  0.62985250  0.99903150  1
  C  454  1  0.90951950  0.65483000  0.98427450  1
  C  455  1  0.89038400  0.67455200  0.96594900  1
  C  456  1  0.85143950  0.66838900  0.96431350  1
  C  457  1  0.83259000  0.64368450  0.97953650  1
  C  458  1  0.91545750  0.70714600  0.95714950  1
  C  459  1  0.94054350  0.74644900  0.00115450  1
  C  460  1  0.92136650  0.77002350  0.01386400  1
  C  461  1  0.94191900  0.80471300  0.05466100  1
  C  462  1  0.98263350  0.81725100  0.08560950  1
  C  463  1  0.00109750  0.79250200  0.07447250  1
  C  464  1  0.98025350  0.75765900  0.03332950  1
  C  465  1  0.94053800  0.69292600  0.93822400  1
  C  466  1  0.89042850  0.71468850  0.92327600  1
  C  467  1  0.90957400  0.75352100  0.92404800  1
  C  468  1  0.89078700  0.75965900  0.89045500  1
  C  469  1  0.85242800  0.72655750  0.85322450  1
  C  470  1  0.83258500  0.68776600  0.85191200  1
  C  471  1  0.85144150  0.68192500  0.88599650  1
  C  472  1  0.92138250  0.65019000  0.90631850  1
  C  473  1  0.94198250  0.63608350  0.88612400  1
  C  474  1  0.98273150  0.66427450  0.89598100  1
  C  475  1  0.00120700  0.70746900  0.92564400  1
  C  476  1  0.98031950  0.72144100  0.94589750  1
  C  493  1  0.62579150  0.27339600  0.12668350  1
  C  494  1  0.63100600  0.24027800  0.13082100  1
  C  495  1  0.65598750  0.24644800  0.17055350  1
  C  496  1  0.67570550  0.28530350  0.20860300  1
  C  497  1  0.66955400  0.31808950  0.20407650  1
  C  498  1  0.64486350  0.31223850  0.16414700  1
  C  499  1  0.70828850  0.29281800  0.25000150  1
  C  500  1  0.74760050  0.30703900  0.24531250  1
  C  501  1  0.77118250  0.34979300  0.25618850  1
  C  502  1  0.80588800  0.36393250  0.25010650  1
  C  503  1  0.81841100  0.33575100  0.23167300  1
  C  504  1  0.79365250  0.29253550  0.21804900  1
  C  505  1  0.75880200  0.27853600  0.22434100  1
  C  506  1  0.69406000  0.25351400  0.25469900  1
  C  507  1  0.71579850  0.32538850  0.29140200  1
  C  508  1  0.75462550  0.34504300  0.32945950  1
  C  509  1  0.76077900  0.36999150  0.36919150  1
  C  510  1  0.72768250  0.37526100  0.37332850  1
  C  511  1  0.68887100  0.35626400  0.33585000  1
  C  512  1  0.68303600  0.33160850  0.29591550  1
  C  513  1  0.65132100  0.22993200  0.24385600  1
  C  514  1  0.63719900  0.19521250  0.24992150  1
  C  515  1  0.66538600  0.18265450  0.26826550  1
  C  516  1  0.70858500  0.20737550  0.28181350  1
  C  517  1  0.72256600  0.24223850  0.27553750  1
  C  534  1  0.87650050  0.50203850  0.14874300  1
  C  535  1  0.87127700  0.50094150  0.11040250  1
  C  536  1  0.84632250  0.51571450  0.09159400  1
  C  537  1  0.82656350  0.53399150  0.11070400  1
  C  538  1  0.83275350  0.53568850  0.14967700  1
  C  539  1  0.85745450  0.52046250  0.16852800  1
  C  540  1  0.79399400  0.54284900  0.08567900  1
  C  541  1  0.75467950  0.49885100  0.06058450  1
  C  542  1  0.73109900  0.48614300  0.07975700  1
  C  543  1  0.69639400  0.44535400  0.05919300  1
  C  544  1  0.68386450  0.41440250  0.01848300  1
  C  545  1  0.70862150  0.42553750  0.00002500  1
  C  546  1  0.74347500  0.46667700  0.02087700  1
  C  547  1  0.80821950  0.56177800  0.06060350  1
  C  548  1  0.78649200  0.57674150  0.11075050  1
  C  549  1  0.74765550  0.57596050  0.09159500  1
  C  550  1  0.74150800  0.60954500  0.11039200  1
  C  551  1  0.77461600  0.64678600  0.14874400  1
  C  552  1  0.81342800  0.64811950  0.16855550  1
  C  553  1  0.81926700  0.61403100  0.14971200  1
  C  554  1  0.85095950  0.59367650  0.07976100  1
  C  555  1  0.86507950  0.61385950  0.05916000  1
  C  556  1  0.83688700  0.60402650  0.01842050  1
  C  557  1  0.79369100  0.57437050  0.99994250  1
  C  558  1  0.77971250  0.55411150  0.02082400  1
  C  575  1  0.35442550  0.22660550  0.35126600  1
  C  576  1  0.39167300  0.25972550  0.38959950  1
  C  577  1  0.42524300  0.25356850  0.40841650  1
  C  578  1  0.42441950  0.21470650  0.38929000  1
  C  579  1  0.38715600  0.18193600  0.35029900  1
  C  580  1  0.35308350  0.18779100  0.33144050  1
  C  581  1  0.45829600  0.20715700  0.41431300  1
  C  582  1  0.43939450  0.19294650  0.43941300  1
  C  583  1  0.40749800  0.15019850  0.42023550  1
  C  584  1  0.38727050  0.13606700  0.44080250  1
  C  585  1  0.39703850  0.16425200  0.48151550  1
  C  586  1  0.42665750  0.20746150  0.49998300  1
  C  587  1  0.44694750  0.22145050  0.47912800  1
  C  588  1  0.50230300  0.24645400  0.43938300  1
  C  589  1  0.46711450  0.17457750  0.38924600  1
  C  590  1  0.48548100  0.15489200  0.40840400  1
  C  591  1  0.50028050  0.12995550  0.38961900  1
  C  592  1  0.49916500  0.12469750  0.35126250  1
  C  593  1  0.48071550  0.14371900  0.33146050  1
  C  594  1  0.46545200  0.16839100  0.35028700  1
  C  595  1  0.51504200  0.27003550  0.42022550  1
  C  596  1  0.55583300  0.30474200  0.44081500  1
  C  597  1  0.58673550  0.31730000  0.48156050  1
  C  598  1  0.57556100  0.29257650  0.50003550  1
  C  599  1  0.53442050  0.25771850  0.47915700  1
  C  616  1  0.14783550  0.99797450  0.37333100  1
  C  617  1  0.11058950  0.99906900  0.36919750  1
  C  618  1  0.07701550  0.98430200  0.32946850  1
  C  619  1  0.07784550  0.96601150  0.29143300  1
  C  620  1  0.11513550  0.96433950  0.29594000  1
  C  621  1  0.14919600  0.97953150  0.33586450  1
  C  622  1  0.04397000  0.95715750  0.25000650  1
  C  623  1  0.06291650  0.00116150  0.25470400  1
  C  624  1  0.09475650  0.01384650  0.24378100  1
  C  625  1  0.11499050  0.05464050  0.24987900  1
  C  626  1  0.10523050  0.08559350  0.26830100  1
  C  627  1  0.07562700  0.07445400  0.28191200  1
  C  628  1  0.05533850  0.03331550  0.27562700  1
  C  629  1  0.99996200  0.93825150  0.24530050  1
  C  630  1  0.03514050  0.92326200  0.20860850  1
  C  631  1  0.01673200  0.92402700  0.17054900  1
  C  632  1  0.00195600  0.89045100  0.13081700  1
  C  633  1  0.00306200  0.85320900  0.12668500  1
  C  634  1  0.02157000  0.85188550  0.16416150  1
  C  635  1  0.03682750  0.88597800  0.20409350  1
  C  636  1  0.98722250  0.90633250  0.25612000  1
  C  637  1  0.94643350  0.88613300  0.25004050  1
  C  638  1  0.91553050  0.89598050  0.23170200  1
  C  639  1  0.92670700  0.92564550  0.21817150  1
  C  640  1  0.96784800  0.94591550  0.22445850  1
  C  657  1  0.49909500  0.87331600  0.14670000  1
  C  658  1  0.50014300  0.86919300  0.10943700  1
  C  659  1  0.48543450  0.82947400  0.07588550  1
  C  660  1  0.46713950  0.79143100  0.07670350  1
  C  661  1  0.46543600  0.79591800  0.11397700  1
  C  662  1  0.48068550  0.83584550  0.14806600  1
  C  663  1  0.45829900  0.75001250  0.04282350  1
  C  664  1  0.50230500  0.75472150  0.06177450  1
  C  665  1  0.51499550  0.74380650  0.09362000  1
  C  666  1  0.55578700  0.74989850  0.11384550  1
  C  667  1  0.58673350  0.76831350  0.10407800  1
  C  668  1  0.57559550  0.78192650  0.07447700  1
  C  669  1  0.53445650  0.77564000  0.05418950  1
  C  670  1  0.43940150  0.74532000  0.99882050  1
  C  671  1  0.42440400  0.70858550  0.03395050  1
  C  672  1  0.42520750  0.67054100  0.01560850  1
  C  673  1  0.39160900  0.63081200  0.00080200  1
  C  674  1  0.35437850  0.62668550  0.00193400  1
  C  675  1  0.35307200  0.66416750  0.02048050  1
  C  676  1  0.38714000  0.70409100  0.03567400  1
  C  677  1  0.40749350  0.75615200  0.98608750  1
  C  678  1  0.38730700  0.75009000  0.94530500  1
  C  679  1  0.39713900  0.73173450  0.91439550  1
  C  680  1  0.42678350  0.71817800  0.92556250  1
  C  681  1  0.44705200  0.72446300  0.96670300  1
  C  698  1  0.72772950  0.85122200  0.35327550  1
  C  699  1  0.76086500  0.88954000  0.39052900  1
  C  700  1  0.75471700  0.90836850  0.42410050  1
  C  701  1  0.71586300  0.88927650  0.42330850  1
  C  702  1  0.68307550  0.85031000  0.38601950  1
  C  703  1  0.68890300  0.83145200  0.35192600  1
  C  704  1  0.70832900  0.91433500  0.45717300  1
  C  705  1  0.69408150  0.93939050  0.43823200  1
  C  706  1  0.65132550  0.92023300  0.40637050  1
  C  707  1  0.63718650  0.94078900  0.38613350  1
  C  708  1  0.66536200  0.98149900  0.39588800  1
  C  709  1  0.70858000  0.99995150  0.42547250  1
  C  710  1  0.72258050  0.97910500  0.44576750  1
  C  711  1  0.74764800  0.93945550  0.50116550  1
  C  712  1  0.67577600  0.88931350  0.46604150  1
  C  713  1  0.65609700  0.90846450  0.48442550  1
  C  714  1  0.63117350  0.88968050  0.49923500  1
  C  715  1  0.62591500  0.85132250  0.49810950  1
  C  716  1  0.64491100  0.83150950  0.47962750  1
  C  717  1  0.66958350  0.85034800  0.46437050  1
  C  718  1  0.77119900  0.92027800  0.51393500  1
  C  719  1  0.80590950  0.94087150  0.55472400  1
  C  720  1  0.81847200  0.98161950  0.58562150  1
  C  721  1  0.79375300  0.00009700  0.57444100  1
  C  722  1  0.75890100  0.97921700  0.53329500  1
  C  739  1  0.00320800  0.64878350  0.87538750  1
  C  740  1  0.00214050  0.61046000  0.87019650  1
  C  741  1  0.01688700  0.59163850  0.84522050  1
  C  742  1  0.03518300  0.61073500  0.82545900  1
  C  743  1  0.03682650  0.64968400  0.83161650  1
  C  744  1  0.02164250  0.66856950  0.85635100  1
  C  745  1  0.04398900  0.58567950  0.79286250  1
  C  746  1  0.99999050  0.56062300  0.75356050  1
  C  747  1  0.98728450  0.57978400  0.72996750  1
  C  748  1  0.94649100  0.55923100  0.69527600  1
  C  749  1  0.91553700  0.51852150  0.68274250  1
  C  750  1  0.92666800  0.50006550  0.70750250  1
  C  751  1  0.96781250  0.52090950  0.74234500  1
  C  752  1  0.06286750  0.56056100  0.80705650  1
  C  753  1  0.07786850  0.61070550  0.78532400  1
  C  754  1  0.07709850  0.59156050  0.74649400  1
  C  755  1  0.11065850  0.61037500  0.74032450  1
  C  756  1  0.14789650  0.64873400  0.77342650  1
  C  757  1  0.14923200  0.66854250  0.81223950  1
  C  758  1  0.11516150  0.64967650  0.81809300  1
  C  759  1  0.09481750  0.57974150  0.84978300  1
  C  760  1  0.11501850  0.55915350  0.86390300  1
  C  761  1  0.10517200  0.51840750  0.83571550  1
  C  762  1  0.07550800  0.49992600  0.79252100  1
  C  763  1  0.05524000  0.52080300  0.77854900  1
  C  780  1  0.77454200  0.62669800  0.62462100  1
  C  781  1  0.74142750  0.63083600  0.62984250  1
  C  782  1  0.74759450  0.67056550  0.65482400  1
  C  783  1  0.78645350  0.70861400  0.67455050  1
  C  784  1  0.81923750  0.70408900  0.66839150  1
  C  785  1  0.81338000  0.66416350  0.64367850  1
  C  786  1  0.79397150  0.75000500  0.70714350  1
  C  787  1  0.80818850  0.74530650  0.74644900  1
  C  788  1  0.85094150  0.75617400  0.77002750  1
  C  789  1  0.86507800  0.75007500  0.80472000  1
  C  790  1  0.83690000  0.73166500  0.81725800  1
  C  791  1  0.79368500  0.71804500  0.79250400  1
  C  792  1  0.77968550  0.72433700  0.75765350  1
  C  793  1  0.75467250  0.75471150  0.69292700  1
  C  794  1  0.82654200  0.79142050  0.71468550  1
  C  795  1  0.84622950  0.82948100  0.75351450  1
  C  796  1  0.87115600  0.86921250  0.75965350  1
  C  797  1  0.87640550  0.87333600  0.72654550  1
  C  798  1  0.85746250  0.83585550  0.68775800  1
  C  799  1  0.83276400  0.79593150  0.68191850  1
  C  800  1  0.73109150  0.74388100  0.65019150  1
  C  801  1  0.69638200  0.74996550  0.63608050  1
  C  802  1  0.68382300  0.76829800  0.66427300  1
  C  803  1  0.70854250  0.78183000  0.70746850  1
  C  804  1  0.74340400  0.77555050  0.72144050  1
  C  821  1  0.35240100  0.85328000  0.72660600  1
  C  822  1  0.39072500  0.89053950  0.75972650  1
  C  823  1  0.40953300  0.92410200  0.75355500  1
  C  824  1  0.39039300  0.92329200  0.71469800  1
  C  825  1  0.35145450  0.88598000  0.68191550  1
  C  826  1  0.33261650  0.85189900  0.68776450  1
  C  827  1  0.41545950  0.95716850  0.70717900  1
  C  828  1  0.44054800  0.93825550  0.69295650  1
  C  829  1  0.42136700  0.90637300  0.65020100  1
  C  830  1  0.44192500  0.88614400  0.63605400  1
  C  831  1  0.48263150  0.89589000  0.66423250  1
  C  832  1  0.50109550  0.92548500  0.70744850  1
  C  833  1  0.48025200  0.94578150  0.72145350  1
  C  834  1  0.44053450  0.00117050  0.74648000  1
  C  835  1  0.39040450  0.96600100  0.67460750  1
  C  836  1  0.40958250  0.98440200  0.65495550  1
  C  837  1  0.39078700  0.99917750  0.62999650  1
  C  838  1  0.35241700  0.99803900  0.62471500  1
  C  839  1  0.33259850  0.97956150  0.64371200  1
  C  840  1  0.35141950  0.96429050  0.66837800  1
  C  841  1  0.42137450  0.01391650  0.77005600  1
  C  842  1  0.44196700  0.05470300  0.80476700  1
  C  843  1  0.48271750  0.08560250  0.81733100  1
  C  844  1  0.50120300  0.07442100  0.79262100  1
  C  845  1  0.48032300  0.03328050  0.75776250  1
  C  862  1  0.37444000  0.64669750  0.49794050  1
  C  863  1  0.37031650  0.60946050  0.49905700  1
  C  864  1  0.33059300  0.57588350  0.48429950  1
  C  865  1  0.29255450  0.57671250  0.46602500  1
  C  866  1  0.29704600  0.61399000  0.46433000  1
  C  867  1  0.33696750  0.64805850  0.47952800  1
  C  868  1  0.25113150  0.54282550  0.45716700  1
  C  869  1  0.25581200  0.56172200  0.50116300  1
  C  870  1  0.24494000  0.59360250  0.51387450  1
  C  871  1  0.25101950  0.61382150  0.55466200  1
  C  872  1  0.26944200  0.60406100  0.58561300  1
  C  873  1  0.28306650  0.57447050  0.57447600  1
  C  874  1  0.27678000  0.55418700  0.53333600  1
  C  875  1  0.24643400  0.49882400  0.43823500  1
  C  876  1  0.20973650  0.53400150  0.42327200  1
  C  877  1  0.17167900  0.51562450  0.42404950  1
  C  878  1  0.13194750  0.50083950  0.39046600  1
  C  879  1  0.12781950  0.50196050  0.35322900  1
  C  880  1  0.16529750  0.52043900  0.35189850  1
  C  881  1  0.20522300  0.53567700  0.38598400  1
  C  882  1  0.25728450  0.48609350  0.40634300  1
  C  883  1  0.25123650  0.44531500  0.38616450  1
  C  884  1  0.23288300  0.41440300  0.39599300  1
  C  885  1  0.21932650  0.42556850  0.42563800  1
  C  886  1  0.22559600  0.46670400  0.44589700  1
  C  903  1  0.12781600  0.12465450  0.77337750  1
  C  904  1  0.13194750  0.12986900  0.74025850  1
  C  905  1  0.17167350  0.15484400  0.74641550  1
  C  906  1  0.20970950  0.17458150  0.78527700  1
  C  907  1  0.20522000  0.16836850  0.81805150  1
  C  908  1  0.16528800  0.14368900  0.81220800  1
  C  909  1  0.25113700  0.20714950  0.79282350  1
  C  910  1  0.24645900  0.24646700  0.80704700  1
  C  911  1  0.25733150  0.27004350  0.84980200  1
  C  912  1  0.25124950  0.30474800  0.86394850  1
  C  913  1  0.23282050  0.31727700  0.83577050  1
  C  914  1  0.21920850  0.29253150  0.79255600  1
  C  915  1  0.22549700  0.25768150  0.77855150  1
  C  916  1  0.25583850  0.19292200  0.75352250  1
  C  917  1  0.29253650  0.21465350  0.82539400  1
  C  918  1  0.33059100  0.25348850  0.84506850  1
  C  919  1  0.37032600  0.25963250  0.86999950  1
  C  920  1  0.37446100  0.22652800  0.87524800  1
  C  921  1  0.33698550  0.18771650  0.85624900  1
  C  922  1  0.29705350  0.18187950  0.83158500  1
  C  923  1  0.24500000  0.15018400  0.72994500  1
  C  924  1  0.25107950  0.13606400  0.69523550  1
  C  925  1  0.26941300  0.16424550  0.68266750  1
  C  926  1  0.28294850  0.20744250  0.70738000  1
  C  927  1  0.27667550  0.22142700  0.74224350  1
  C  944  1  0.14990800  0.37539400  0.00207900  1
  C  945  1  0.11155550  0.37015300  0.00096350  1
  C  946  1  0.09273250  0.34518250  0.01571500  1
  C  947  1  0.11184650  0.32543350  0.03400800  1
  C  948  1  0.15081200  0.33161050  0.03568850  1
  C  949  1  0.16969300  0.35635100  0.02051000  1
  C  950  1  0.08681250  0.29285900  0.04285250  1
  C  951  1  0.06175450  0.25355800  0.99884750  1
  C  952  1  0.08090650  0.22994800  0.98615850  1
  C  953  1  0.06033800  0.19524700  0.94536800  1
  C  954  1  0.01962600  0.18271900  0.91442000  1
  C  955  1  0.00116150  0.20746800  0.92556350  1
  C  956  1  0.02201750  0.24232600  0.96669850  1
  C  957  1  0.06171500  0.30707000  0.06176100  1
  C  958  1  0.11186700  0.28534400  0.07674300  1
  C  959  1  0.09268400  0.24651500  0.07596400  1
  C  960  1  0.11147800  0.24034750  0.10953350  1
  C  961  1  0.14983600  0.27343950  0.14677250  1
  C  962  1  0.16965750  0.31225500  0.14811750  1
  C  963  1  0.15083700  0.31810650  0.11403050  1
  C  964  1  0.08089950  0.34980800  0.09367650  1
  C  965  1  0.06031200  0.36393600  0.11387500  1
  C  966  1  0.01956350  0.33575850  0.10403400  1
  C  967  1  0.00106900  0.29256000  0.07436800  1
  C  968  1  0.02193650  0.27856950  0.05409800  1
  H  26  1  0.21283250  0.61703000  0.60463550  1
  H  27  1  0.22334950  0.65976400  0.67112550  1
  H  28  1  0.33867200  0.64204550  0.66252650  1
  H  29  1  0.34870250  0.68375850  0.72986400  1
  H  30  1  0.37274700  0.76210650  0.76884750  1
  H  31  1  0.39628050  0.82030750  0.75852600  1
  H  32  1  0.27203550  0.80006200  0.70397050  1
  H  33  1  0.24803650  0.74031650  0.71317800  1
  H  34  1  0.26094250  0.75313450  0.78698900  1
  H  35  1  0.20119150  0.72912100  0.79618250  1
  H  36  1  0.18082550  0.60483950  0.74140000  1
  H  37  1  0.23902350  0.62839000  0.73108050  1
  H  38  1  0.31738150  0.65245450  0.77016400  1
  H  39  1  0.34152350  0.77787050  0.82891900  1
  H  40  1  0.38426900  0.78837950  0.89539650  1
  H  41  1  0.35911250  0.66248350  0.83749600  1
  H  67  1  0.28943400  0.39290800  0.90535300  1
  H  68  1  0.27892000  0.44888000  0.93755500  1
  H  69  1  0.16359600  0.32497200  0.80452100  1
  H  70  1  0.15357850  0.38228450  0.83619800  1
  H  71  1  0.12955600  0.39723250  0.89053050  1
  H  72  1  0.10603150  0.36339400  0.92520650  1
  H  73  1  0.23027800  0.43310400  0.02920300  1
  H  74  1  0.25426100  0.46629600  0.99344000  1
  H  75  1  0.24133800  0.52721600  0.99331800  1
  H  76  1  0.30107000  0.59616250  0.02903350  1
  H  77  1  0.32144950  0.56170400  0.92513250  1
  H  78  1  0.26327300  0.49318850  0.89051750  1
  H  79  1  0.18494850  0.45396250  0.83624700  1
  H  80  1  0.16077850  0.48856700  0.93748250  1
  H  81  1  0.11804450  0.51229700  0.90524250  1
  H  82  1  0.14323050  0.47955850  0.80453000  1
  H  108  1  0.48865700  0.88290250  0.59464050  1
  H  109  1  0.51244400  0.84020350  0.56244750  1
  H  110  1  0.52158250  0.85791850  0.69548900  1
  H  111  1  0.54724000  0.81624850  0.66382350  1
  H  112  1  0.50783150  0.73789150  0.60949000  1
  H  113  1  0.43931100  0.67970300  0.57482400  1
  H  114  1  0.40503600  0.69992200  0.47080400  1
  H  115  1  0.47399650  0.75965850  0.50656000  1
  H  116  1  0.53505050  0.74687950  0.50670100  1
  H  117  1  0.56829400  0.77090650  0.47099650  1
  H  118  1  0.63770550  0.89518400  0.57489550  1
  H  119  1  0.60379600  0.87161350  0.60949950  1
  H  120  1  0.61884550  0.84754650  0.66376100  1
  H  121  1  0.55220700  0.72213900  0.56253300  1
  H  122  1  0.60818550  0.71164700  0.59475650  1
  H  123  1  0.67617250  0.83754900  0.69546650  1
  H  149  1  0.01355300  0.10707550  0.89539150  1
  H  150  1  0.98978700  0.05111150  0.82890250  1
  H  151  1  0.98072800  0.17505150  0.83751750  1
  H  152  1  0.95509850  0.11775550  0.77018900  1
  H  153  1  0.99441700  0.10279500  0.73116100  1
  H  154  1  0.06293250  0.13662850  0.74146600  1
  H  155  1  0.09722500  0.06692650  0.79601550  1
  H  156  1  0.02827550  0.03374200  0.78682150  1
  H  157  1  0.96728150  0.97281650  0.71300400  1
  H  158  1  0.93404300  0.90386300  0.70377900  1
  H  159  1  0.86455100  0.93829850  0.75855850  1
  H  160  1  0.89845000  0.00681700  0.76890200  1
  H  161  1  0.88342200  0.04610550  0.72985850  1
  H  162  1  0.95005800  0.01144100  0.67111700  1
  H  163  1  0.89410050  0.98769500  0.60463850  1
  H  164  1  0.82610850  0.02048800  0.66250550  1
  H  190  1  0.60823750  0.39536950  0.01244700  1
  H  191  1  0.55227400  0.32888050  0.98868050  1
  H  192  1  0.67619350  0.33750600  0.97955350  1
  H  193  1  0.61888600  0.27015650  0.95391050  1
  H  194  1  0.60393300  0.23116600  0.99327700  1
  H  195  1  0.63777650  0.24148300  0.06180150  1
  H  196  1  0.56804950  0.29600350  0.09607900  1
  H  197  1  0.53485850  0.28680200  0.02712950  1
  H  198  1  0.47394200  0.21298650  0.96612450  1
  H  199  1  0.40498150  0.20374850  0.93287200  1
  H  200  1  0.43943700  0.25856850  0.86341750  1
  H  201  1  0.50795900  0.26892650  0.89732950  1
  H  202  1  0.54721900  0.22983350  0.88226650  1
  H  203  1  0.51258200  0.17111050  0.94893250  1
  H  204  1  0.48882350  0.10462750  0.89297100  1
  H  205  1  0.52159500  0.16248350  0.82496150  1
  H  231  1  0.38404750  0.09466300  0.48753950  1
  H  232  1  0.34134050  0.06246500  0.51131150  1
  H  233  1  0.35907950  0.19551500  0.52046050  1
  H  234  1  0.31738200  0.16383450  0.54611350  1
  H  235  1  0.23902750  0.10950950  0.50674000  1
  H  236  1  0.18081000  0.07482800  0.43822300  1
  H  237  1  0.20107050  0.97083800  0.40391450  1
  H  238  1  0.26082650  0.00659650  0.47285900  1
  H  239  1  0.24800350  0.00666150  0.53385900  1
  H  240  1  0.27201550  0.97094200  0.56709250  1
  H  241  1  0.39629450  0.07485650  0.63656500  1
  H  242  1  0.37274100  0.10947700  0.60266900  1
  H  243  1  0.34869100  0.16378300  0.61771100  1
  H  244  1  0.22328400  0.06249200  0.55105300  1
  H  245  1  0.21277700  0.09472600  0.60702800  1
  H  246  1  0.33865100  0.19548100  0.67501700  1
  H  272  1  0.89403550  0.40533700  0.28826550  1
  H  273  1  0.94999650  0.43753250  0.27774500  1
  H  274  1  0.82608850  0.30448650  0.16243400  1
  H  275  1  0.88340550  0.33616600  0.15240750  1
  H  276  1  0.89836950  0.39049400  0.12837750  1
  H  277  1  0.86452850  0.42517350  0.10484600  1
  H  278  1  0.93421700  0.52916100  0.22910000  1
  H  279  1  0.96740100  0.49339900  0.25309300  1
  H  280  1  0.02833200  0.49333900  0.24020600  1
  H  281  1  0.09728750  0.52905550  0.29993200  1
  H  282  1  0.06285700  0.42513250  0.32028050  1
  H  283  1  0.99433550  0.39051350  0.26211100  1
  H  284  1  0.95507500  0.33622400  0.18377500  1
  H  285  1  0.98968900  0.43750750  0.15964950  1
  H  286  1  0.01344500  0.40528100  0.11691600  1
  H  287  1  0.98069050  0.30453350  0.14204800  1
  H  313  1  0.11825250  0.10463900  0.21172150  1
  H  314  1  0.16095600  0.17113450  0.22225450  1
  H  315  1  0.14318350  0.16249900  0.33753850  1
  H  316  1  0.18487200  0.22984950  0.34757250  1
  H  317  1  0.26323050  0.26882250  0.37159900  1
  H  318  1  0.32143500  0.25850350  0.39513650  1
  H  319  1  0.30121100  0.20397550  0.27089750  1
  H  320  1  0.24146450  0.21318000  0.24689550  1
  H  321  1  0.25425800  0.28698200  0.25979100  1
  H  322  1  0.23023450  0.29618750  0.20004900  1
  H  323  1  0.10595850  0.24138450  0.17969300  1
  H  324  1  0.12951700  0.23105350  0.23787750  1
  H  325  1  0.15360750  0.27016900  0.31625750  1
  H  326  1  0.27901950  0.32890700  0.34038050  1
  H  327  1  0.28952700  0.39539100  0.38311200  1
  H  328  1  0.16364000  0.33750100  0.35798100  1
  H  354  1  0.59579100  0.98756300  0.38294300  1
  H  355  1  0.56358400  0.01134650  0.34023650  1
  H  356  1  0.69661400  0.02045050  0.35792050  1
  H  357  1  0.66493550  0.04609700  0.31623050  1
  H  358  1  0.61062200  0.00672350  0.23788250  1
  H  359  1  0.57594550  0.93820250  0.17967500  1
  H  360  1  0.47195550  0.90389250  0.19993500  1
  H  361  1  0.50770900  0.97284700  0.25968500  1
  H  362  1  0.50780100  0.03384650  0.24686450  1
  H  363  1  0.47207050  0.06706000  0.27087750  1
  H  364  1  0.57597950  0.13654550  0.39516100  1
  H  365  1  0.61062050  0.10266800  0.37160950  1
  H  366  1  0.66491300  0.11769800  0.34754200  1
  H  367  1  0.56364000  0.05103300  0.22212400  1
  H  368  1  0.59587250  0.10700300  0.21161450  1
  H  369  1  0.69661000  0.17500100  0.33751000  1
  H  395  1  0.89651250  0.51244600  0.60710250  1
  H  396  1  0.83002150  0.48865300  0.55111950  1
  H  397  1  0.83861500  0.47955050  0.67504350  1
  H  398  1  0.77127950  0.45389900  0.61772250  1
  H  399  1  0.73231650  0.49330350  0.60278400  1
  H  400  1  0.74265450  0.56183050  0.63663400  1
  H  401  1  0.79718300  0.59609250  0.56690750  1
  H  402  1  0.78795750  0.52713250  0.53371200  1
  H  403  1  0.71411450  0.46610450  0.47280100  1
  H  404  1  0.70490100  0.43287600  0.40385400  1
  H  405  1  0.75972750  0.36342100  0.43830350  1
  H  406  1  0.77006400  0.39731900  0.50682200  1
  H  407  1  0.73095900  0.38227550  0.54604450  1
  H  408  1  0.67220150  0.44892450  0.51145000  1
  H  409  1  0.60572700  0.39294800  0.48768900  1
  H  410  1  0.66363900  0.32495850  0.52041950  1
  H  436  1  0.60575500  0.71169950  0.11704050  1
  H  437  1  0.67224300  0.72221400  0.15974600  1
  H  438  1  0.66364600  0.83754250  0.14206050  1
  H  439  1  0.73097700  0.84756000  0.18374100  1
  H  440  1  0.76994700  0.87159100  0.26209600  1
  H  441  1  0.75960650  0.89511050  0.32028400  1
  H  442  1  0.70505750  0.77085800  0.30001850  1
  H  443  1  0.71429150  0.74688300  0.24028850  1
  H  444  1  0.78814300  0.75981800  0.25312400  1
  H  445  1  0.79737300  0.70009200  0.22912800  1
  H  446  1  0.74258000  0.67970750  0.10484250  1
  H  447  1  0.73222450  0.73787850  0.12838200  1
  H  448  1  0.77129750  0.81622400  0.15244050  1
  H  449  1  0.83005950  0.84037850  0.27784100  1
  H  450  1  0.89653450  0.88309450  0.28834100  1
  H  451  1  0.83862500  0.85793300  0.16244600  1
  H  477  1  0.90646700  0.78829050  0.89289650  1
  H  478  1  0.93866600  0.77779150  0.94888450  1
  H  479  1  0.80567000  0.66244000  0.82494700  1
  H  480  1  0.83733900  0.65243200  0.88226300  1
  H  481  1  0.89163600  0.62838200  0.89721100  1
  H  482  1  0.92633150  0.60487100  0.86337850  1
  H  483  1  0.03031550  0.72913300  0.93310550  1
  H  484  1  0.99454000  0.75310600  0.96628200  1
  H  485  1  0.99445950  0.74018950  0.02720000  1
  H  486  1  0.03017000  0.79991250  0.09615650  1
  H  487  1  0.92625350  0.82027000  0.06171450  1
  H  488  1  0.89164100  0.76210550  0.99319150  1
  H  489  1  0.83733000  0.68376650  0.95392550  1
  H  490  1  0.93862350  0.65967600  0.98855650  1
  H  491  1  0.90642450  0.61695150  0.01231900  1
  H  492  1  0.80564950  0.64204350  0.97955800  1
  H  518  1  0.78940100  0.38291800  0.39538200  1
  H  519  1  0.77889050  0.34020950  0.32889500  1
  H  520  1  0.66357400  0.35792450  0.33749950  1
  H  521  1  0.65354800  0.31623200  0.27015300  1
  H  522  1  0.62951900  0.23787900  0.23116000  1
  H  523  1  0.60599000  0.17966250  0.24146250  1
  H  524  1  0.73024500  0.19993150  0.29602250  1
  H  525  1  0.75423450  0.25968450  0.28682800  1
  H  526  1  0.74133150  0.24686000  0.21299750  1
  H  527  1  0.80105500  0.27087100  0.20376400  1
  H  528  1  0.82142950  0.39514900  0.25858450  1
  H  529  1  0.76326150  0.37159850  0.26893900  1
  H  530  1  0.68490500  0.34757050  0.22984250  1
  H  531  1  0.66082200  0.22218250  0.17111750  1
  H  532  1  0.61809850  0.21166100  0.10463350  1
  H  533  1  0.64317900  0.33752750  0.16249250  1
  H  559  1  0.71289950  0.60712950  0.09467400  1
  H  560  1  0.72340500  0.55115550  0.06247650  1
  H  561  1  0.83872400  0.67506400  0.19551200  1
  H  562  1  0.84874200  0.61773150  0.16383850  1
  H  563  1  0.87276200  0.60278200  0.10950800  1
  H  564  1  0.89628350  0.63662400  0.07482550  1
  H  565  1  0.77202900  0.56692150  0.97084050  1
  H  566  1  0.74804550  0.53373300  0.00660250  1
  H  567  1  0.76094300  0.47280500  0.00667100  1
  H  568  1  0.70121350  0.40385250  0.97095300  1
  H  569  1  0.68084800  0.43829550  0.07486450  1
  H  570  1  0.73902200  0.50681200  0.10948500  1
  H  571  1  0.81736350  0.54606100  0.16377850  1
  H  572  1  0.84149500  0.51144750  0.06249750  1
  H  573  1  0.88423900  0.48770900  0.09473200  1
  H  574  1  0.85910150  0.52045350  0.19547500  1
  H  600  1  0.51355350  0.11704450  0.40532900  1
  H  601  1  0.48978450  0.15975800  0.43751950  1
  H  602  1  0.48066650  0.14203100  0.30448250  1
  H  603  1  0.45502650  0.18373600  0.33615650  1
  H  604  1  0.49439150  0.26209600  0.39048050  1
  H  605  1  0.56291650  0.32030500  0.42516250  1
  H  606  1  0.59721550  0.30002250  0.52914100  1
  H  607  1  0.52826500  0.24027250  0.49337850  1
  H  608  1  0.46728600  0.25312550  0.49333150  1
  H  609  1  0.43404600  0.22912700  0.52905400  1
  H  610  1  0.36452650  0.10485300  0.42512850  1
  H  611  1  0.39842900  0.12839300  0.39050500  1
  H  612  1  0.38341100  0.15243650  0.33621350  1
  H  613  1  0.45009150  0.27784600  0.43749850  1
  H  614  1  0.39411000  0.28835600  0.40527600  1
  H  615  1  0.32610800  0.16247700  0.30452700  1
  H  641  1  0.98865550  0.89287050  0.10462700  1
  H  642  1  0.01245750  0.94885550  0.17111700  1
  H  643  1  0.02160950  0.82495350  0.16253100  1
  H  644  1  0.04727800  0.88228950  0.22987250  1
  H  645  1  0.00786650  0.89722600  0.26881250  1
  H  646  1  0.93933900  0.86337400  0.25848700  1
  H  647  1  0.90504700  0.93308450  0.20395050  1
  H  648  1  0.97400450  0.96628750  0.21316300  1
  H  649  1  0.03501650  0.02719350  0.28698300  1
  H  650  1  0.06824500  0.09614100  0.29619100  1
  H  651  1  0.13770000  0.06169100  0.24136500  1
  H  652  1  0.10380800  0.99317250  0.23103050  1
  H  653  1  0.11885350  0.95393250  0.27017300  1
  H  654  1  0.05215900  0.98852100  0.32889600  1
  H  655  1  0.10813200  0.01227600  0.39538500  1
  H  656  1  0.17615000  0.97954300  0.33751000  1
  H  682  1  0.39405050  0.60462050  0.98756700  1
  H  683  1  0.45004350  0.67111200  0.01135150  1
  H  684  1  0.32611700  0.66253100  0.02045500  1
  H  685  1  0.38344100  0.72986700  0.04610000  1
  H  686  1  0.39838300  0.76884250  0.00672850  1
  H  687  1  0.36454050  0.75852800  0.93820850  1
  H  688  1  0.43422550  0.70396350  0.90390300  1
  H  689  1  0.46742450  0.71316700  0.97285750  1
  H  690  1  0.52832900  0.78698450  0.03385750  1
  H  691  1  0.59727400  0.79618250  0.06707450  1
  H  692  1  0.56284050  0.74137900  0.13655050  1
  H  693  1  0.49432200  0.73105600  0.10267300  1
  H  694  1  0.45506050  0.77015350  0.11770100  1
  H  695  1  0.48967400  0.82891100  0.05104200  1
  H  696  1  0.51340600  0.89538700  0.10701100  1
  H  697  1  0.48066150  0.83748450  0.17500600  1
  H  723  1  0.61820750  0.90535350  0.51245700  1
  H  724  1  0.66090600  0.93754850  0.48866550  1
  H  725  1  0.64320950  0.80451800  0.47955450  1
  H  726  1  0.68489000  0.83618750  0.45390050  1
  H  727  1  0.76324900  0.89052450  0.49330050  1
  H  728  1  0.82144000  0.92519900  0.56182500  1
  H  729  1  0.80119050  0.02919850  0.59609400  1
  H  730  1  0.74145500  0.99343600  0.52713500  1
  H  731  1  0.75425700  0.99330950  0.46609350  1
  H  732  1  0.73024050  0.02902600  0.43286450  1
  H  733  1  0.60595900  0.92512950  0.36343050  1
  H  734  1  0.62951950  0.89051350  0.39732900  1
  H  735  1  0.65357300  0.83624400  0.38227700  1
  H  736  1  0.77898450  0.93747500  0.44891650  1
  H  737  1  0.78947700  0.90524050  0.39294350  1
  H  738  1  0.66357400  0.80453350  0.32496450  1
  H  764  1  0.10823550  0.59466400  0.71171050  1
  H  765  1  0.05226800  0.56246250  0.72222750  1
  H  766  1  0.17617400  0.69549600  0.83754900  1
  H  767  1  0.11886400  0.66382350  0.84756650  1
  H  768  1  0.10393400  0.60949450  0.87158850  1
  H  769  1  0.13779050  0.57482550  0.89510600  1
  H  770  1  0.06805850  0.47082200  0.77085950  1
  H  771  1  0.03485100  0.50657800  0.74688400  1
  H  772  1  0.97393700  0.50670300  0.75981600  1
  H  773  1  0.90498250  0.47099050  0.70008800  1
  H  774  1  0.93944400  0.57489200  0.67971000  1
  H  775  1  0.00796200  0.60950500  0.73788200  1
  H  776  1  0.04719600  0.66377350  0.81621850  1
  H  777  1  0.01260550  0.56253750  0.84038500  1
  H  778  1  0.98885450  0.59475750  0.88310700  1
  H  779  1  0.02158250  0.69547900  0.85793050  1
  H  805  1  0.88410600  0.89540250  0.78828350  1
  H  806  1  0.84141100  0.82891850  0.77778850  1
  H  807  1  0.85905250  0.83749450  0.66243100  1
  H  808  1  0.81737500  0.77017300  0.65242700  1
  H  809  1  0.73902850  0.73118100  0.62838150  1
  H  810  1  0.68082150  0.74149900  0.60487150  1
  H  811  1  0.70109750  0.79603150  0.72913100  1
  H  812  1  0.76085000  0.78683250  0.75310450  1
  H  813  1  0.74801250  0.71299600  0.74018450  1
  H  814  1  0.77202350  0.70377050  0.79991300  1
  H  815  1  0.89630200  0.75858650  0.82028450  1
  H  816  1  0.87274750  0.76892850  0.76210900  1
  H  817  1  0.84872500  0.72985450  0.68377350  1
  H  818  1  0.72333750  0.67112900  0.65967250  1
  H  819  1  0.71281150  0.60464600  0.61693750  1
  H  820  1  0.83867950  0.66250050  0.64203800  1
  H  846  1  0.40648500  0.01243750  0.61707050  1
  H  847  1  0.43868300  0.98867450  0.65979550  1
  H  848  1  0.30563700  0.97954700  0.64204200  1
  H  849  1  0.33730350  0.95390650  0.68375200  1
  H  850  1  0.39162400  0.99327450  0.76210750  1
  H  851  1  0.42630750  0.06179900  0.82031650  1
  H  852  1  0.53031150  0.09607250  0.80007200  1
  H  853  1  0.49454900  0.02711950  0.74032250  1
  H  854  1  0.49446200  0.96611650  0.75312950  1
  H  855  1  0.53016350  0.93286200  0.72910850  1
  H  856  1  0.42624650  0.86340650  0.60483700  1
  H  857  1  0.39164100  0.89732150  0.62839850  1
  H  858  1  0.33732150  0.88226600  0.65243450  1
  H  859  1  0.43863200  0.94893100  0.77782000  1
  H  860  1  0.40643300  0.89297000  0.78834600  1
  H  861  1  0.30564200  0.82495950  0.66247950  1
  H  887  1  0.10575450  0.48753650  0.39288000  1
  H  888  1  0.17223350  0.51130750  0.44885400  1
  H  889  1  0.16365100  0.52045550  0.32495450  1
  H  890  1  0.23099850  0.54610600  0.38228650  1
  H  891  1  0.26998050  0.50674000  0.39724150  1
  H  892  1  0.25968350  0.43822500  0.36340350  1
  H  893  1  0.20511350  0.40390900  0.43308150  1
  H  894  1  0.21430050  0.47285350  0.46627000  1
  H  895  1  0.28812350  0.53385450  0.52720600  1
  H  896  1  0.29734250  0.56708200  0.59615950  1
  H  897  1  0.24253350  0.63655150  0.56172300  1
  H  898  1  0.23219400  0.60266250  0.49320650  1
  H  899  1  0.27128000  0.61771100  0.45394400  1
  H  900  1  0.33003700  0.55105800  0.48857200  1
  H  901  1  0.39651150  0.60702350  0.51228700  1
  H  902  1  0.33861950  0.67500900  0.47952550  1
  H  928  1  0.39651350  0.28825150  0.88290700  1
  H  929  1  0.33003250  0.27773900  0.84020250  1
  H  930  1  0.33861900  0.16242500  0.85794200  1
  H  931  1  0.27127500  0.15240850  0.81624950  1
  H  932  1  0.23229950  0.12838250  0.73789100  1
  H  933  1  0.24261050  0.10485100  0.67968050  1
  H  934  1  0.29715300  0.22909950  0.69992950  1
  H  935  1  0.28796000  0.25309350  0.75968450  1
  H  936  1  0.21414500  0.24020700  0.74687300  1
  H  937  1  0.20492100  0.29993700  0.77089400  1
  H  938  1  0.25973500  0.32029050  0.89516550  1
  H  939  1  0.27007600  0.26211650  0.87160450  1
  H  940  1  0.23097600  0.18378000  0.84755000  1
  H  941  1  0.17224250  0.15964550  0.72213600  1
  H  942  1  0.10575400  0.11690350  0.71162450  1
  H  943  1  0.16363000  0.14204450  0.83750750  1
  H  969  1  0.09576250  0.21172500  0.10709350  1
  H  970  1  0.06358150  0.22225800  0.05113250  1
  H  971  1  0.19664800  0.33754100  0.17504300  1
  H  972  1  0.16498500  0.34757750  0.11772850  1
  H  973  1  0.11065150  0.37160500  0.10278350  1
  H  974  1  0.07598450  0.39514400  0.13663550  1
  H  975  1  0.97196950  0.27090550  0.06693200  1
  H  976  1  0.00771550  0.24690050  0.03372700  1
  H  977  1  0.00781800  0.25980400  0.97282300  1
  H  978  1  0.97208700  0.20005550  0.90387850  1
  H  979  1  0.07599100  0.17967400  0.93831400  1
  H  980  1  0.11063150  0.23786800  0.00683050  1
  H  981  1  0.16492850  0.31624250  0.04609100  1
  H  982  1  0.06365500  0.34038750  0.01148450  1
  H  983  1  0.09589650  0.38313600  0.98775550  1
  H  984  1  0.19663700  0.35798400  0.02050400  1
