# generated using pymatgen
data_H30C47N10
_symmetry_space_group_name_H-M   'P 1'
_cell_length_a   51.55750000
_cell_length_b   79.79540000
_cell_length_c   79.79540000
_cell_angle_alpha   120.00000000
_cell_angle_beta   90.00000000
_cell_angle_gamma   90.00000000
_symmetry_Int_Tables_number   1
_chemical_formula_structural   H30C47N10
_chemical_formula_sum   'H720 C1128 N240'
_cell_volume   284300.87371184
_cell_formula_units_Z   24
loop_
 _symmetry_equiv_pos_site_id
 _symmetry_equiv_pos_as_xyz
  1  'x, y, z'
loop_
 _atom_site_type_symbol
 _atom_site_label
 _atom_site_symmetry_multiplicity
 _atom_site_fract_x
 _atom_site_fract_y
 _atom_site_fract_z
 _atom_site_occupancy
  H  25  1  0.96918100  0.66652400  0.05244600  1
  H  26  1  0.96185700  0.69178600  0.08484500  1
  H  27  1  0.94929500  0.71414000  0.11822800  1
  H  28  1  0.93254700  0.73211400  0.15025900  1
  H  29  1  0.87634000  0.68844300  0.13703300  1
  H  30  1  0.90577200  0.63522700  0.05695300  1
  H  31  1  0.86202600  0.69169100  0.09158100  1
  H  32  1  0.79702300  0.65456400  0.07026000  1
  H  33  1  0.81813000  0.63205100  0.07722000  1
  H  34  1  0.93023000  0.64282200  0.10708900  1
  H  35  1  0.84346800  0.61519500  0.08990600  1
  H  36  1  0.87551100  0.59946600  0.09847300  1
  H  42  1  0.93782000  0.61971600  0.02839100  1
  H  43  1  0.88459200  0.71695100  0.17246100  1
  H  44  1  0.94312900  0.60875000  0.10278500  1
  H  45  1  0.82239800  0.70031900  0.07946300  1
  H  70  1  0.96919800  0.40552900  0.32057400  1
  H  71  1  0.96188200  0.41267000  0.29531300  1
  H  72  1  0.94934300  0.42371900  0.27296800  1
  H  73  1  0.93255900  0.43774800  0.25497600  1
  H  74  1  0.87631400  0.46815400  0.29862900  1
  H  75  1  0.90578500  0.44133200  0.35186600  1
  H  76  1  0.86203100  0.41949900  0.29539600  1
  H  77  1  0.79703800  0.43529800  0.33253800  1
  H  78  1  0.81815900  0.46476000  0.35505800  1
  H  79  1  0.93024800  0.48386700  0.34427300  1
  H  80  1  0.84353100  0.49426300  0.37195700  1
  H  81  1  0.87555800  0.51857100  0.38767100  1
  H  87  1  0.93776200  0.42824200  0.36736900  1
  H  88  1  0.88449300  0.47505200  0.27011400  1
  H  89  1  0.94312900  0.51362100  0.37843800  1
  H  90  1  0.82239500  0.39875900  0.28676200  1
  H  115  1  0.96918100  0.93465200  0.58158500  1
  H  116  1  0.96185700  0.90225500  0.57445000  1
  H  117  1  0.94934500  0.86885200  0.56337500  1
  H  118  1  0.93258900  0.83682400  0.54932600  1
  H  119  1  0.87636200  0.85005700  0.51889600  1
  H  120  1  0.90577400  0.93014300  0.54577600  1
  H  121  1  0.86203100  0.89553500  0.56761300  1
  H  122  1  0.79702800  0.91683900  0.55178200  1
  H  123  1  0.81814300  0.90986000  0.52230500  1
  H  124  1  0.93024200  0.87998900  0.50322300  1
  H  125  1  0.84347600  0.89715600  0.49276700  1
  H  126  1  0.87551600  0.88857800  0.46846800  1
  H  132  1  0.93777000  0.95872900  0.55885800  1
  H  133  1  0.88457400  0.81464000  0.51199200  1
  H  134  1  0.94314600  0.88427200  0.47344500  1
  H  135  1  0.82239100  0.90764200  0.58834700  1
  H  160  1  0.46918100  0.33793600  0.91728200  1
  H  161  1  0.46186500  0.31267900  0.88488100  1
  H  162  1  0.44931800  0.29033500  0.85149600  1
  H  163  1  0.43256000  0.27235400  0.81946800  1
  H  164  1  0.37633900  0.31601900  0.83269600  1
  H  165  1  0.40577800  0.36923900  0.91277600  1
  H  166  1  0.36202500  0.31276600  0.87811900  1
  H  167  1  0.29700800  0.34988600  0.89942400  1
  H  168  1  0.31813000  0.37240900  0.89248600  1
  H  169  1  0.43024000  0.36164300  0.86262500  1
  H  170  1  0.34348000  0.38927800  0.87982700  1
  H  171  1  0.37551800  0.40500400  0.87125100  1
  H  177  1  0.43782600  0.38474800  0.94133900  1
  H  178  1  0.38452600  0.28750000  0.79728400  1
  H  179  1  0.44313000  0.39576700  0.86698000  1
  H  180  1  0.32238900  0.30413100  0.89022200  1
  H  205  1  0.46920000  0.59893700  0.64915700  1
  H  206  1  0.46188400  0.59179500  0.67441700  1
  H  207  1  0.44935600  0.58073400  0.69675500  1
  H  208  1  0.43257100  0.56670600  0.71474600  1
  H  209  1  0.37632100  0.53630300  0.67109700  1
  H  210  1  0.40579500  0.56312600  0.61785900  1
  H  211  1  0.36203100  0.58494000  0.67433100  1
  H  212  1  0.29704100  0.56914300  0.63718400  1
  H  213  1  0.31817300  0.53968900  0.61465900  1
  H  214  1  0.43026300  0.52058600  0.62546400  1
  H  215  1  0.34356600  0.51019100  0.59774700  1
  H  216  1  0.37560400  0.48588200  0.58204100  1
  H  222  1  0.43776000  0.57622400  0.60235800  1
  H  223  1  0.38452400  0.52939700  0.69960800  1
  H  224  1  0.44309000  0.49088700  0.59117100  1
  H  225  1  0.32239900  0.60567900  0.68296500  1
  H  250  1  0.46920200  0.06982300  0.38816100  1
  H  251  1  0.46187400  0.10222000  0.39529700  1
  H  252  1  0.44934500  0.13561600  0.40635500  1
  H  253  1  0.43258500  0.16764300  0.42040500  1
  H  254  1  0.37635200  0.15440400  0.45082600  1
  H  255  1  0.40578200  0.07432300  0.42395400  1
  H  256  1  0.36202100  0.10892900  0.40211100  1
  H  257  1  0.29702500  0.08761800  0.41793900  1
  H  258  1  0.31814200  0.09459400  0.44741500  1
  H  259  1  0.43024000  0.12447100  0.46649200  1
  H  260  1  0.34348400  0.10728800  0.47695100  1
  H  261  1  0.37553200  0.11586700  0.50124700  1
  H  267  1  0.43781400  0.04575200  0.41089300  1
  H  268  1  0.38462300  0.18983900  0.45775800  1
  H  269  1  0.44314800  0.12017100  0.49626100  1
  H  270  1  0.32238500  0.09681700  0.38137600  1
  H  295  1  0.99468700  0.59701800  0.91646600  1
  H  296  1  0.00168100  0.58992500  0.88407800  1
  H  297  1  0.01428700  0.57933700  0.85084300  1
  H  298  1  0.03118600  0.56577600  0.81890600  1
  H  299  1  0.08809600  0.53557900  0.83187200  1
  H  300  1  0.05897500  0.56189100  0.91193600  1
  H  301  1  0.10189800  0.58399200  0.87757500  1
  H  302  1  0.16699000  0.56838000  0.89898500  1
  H  303  1  0.14624600  0.53866600  0.89164700  1
  H  304  1  0.03414000  0.51939600  0.86195200  1
  H  305  1  0.12112700  0.50896000  0.87876300  1
  H  306  1  0.08909200  0.48468700  0.87040500  1
  H  312  1  0.02835100  0.57555700  0.94117700  1
  H  313  1  0.07984100  0.52899200  0.79654600  1
  H  314  1  0.02133100  0.48980800  0.86645900  1
  H  315  1  0.14120700  0.60503200  0.89012500  1
  H  340  1  0.99467900  0.07063300  0.64805000  1
  H  341  1  0.00166400  0.10302500  0.67334300  1
  H  342  1  0.01423000  0.13627800  0.69597100  1
  H  343  1  0.03114400  0.16821200  0.71435200  1
  H  344  1  0.08809200  0.15522700  0.67121000  1
  H  345  1  0.05898800  0.07516000  0.61746700  1
  H  346  1  0.10189400  0.10948400  0.67390200  1
  H  347  1  0.16696700  0.08806700  0.63686200  1
  H  348  1  0.14623500  0.09545000  0.61451400  1
  H  349  1  0.03413600  0.12514100  0.62494400  1
  H  350  1  0.12113000  0.10836300  0.59771500  1
  H  351  1  0.08909100  0.11670800  0.58179600  1
  H  357  1  0.02839100  0.04590500  0.60189400  1
  H  358  1  0.07974600  0.19058000  0.69993200  1
  H  359  1  0.02131400  0.12068000  0.59089800  1
  H  360  1  0.14120100  0.09690700  0.68236800  1
  H  385  1  0.99471000  0.33904400  0.39006500  1
  H  386  1  0.00170100  0.31374600  0.39715500  1
  H  387  1  0.01431200  0.29109300  0.40773400  1
  H  388  1  0.03119600  0.27272300  0.42130700  1
  H  389  1  0.08808600  0.31589500  0.45152400  1
  H  390  1  0.05899200  0.36964000  0.42519900  1
  H  391  1  0.10189600  0.31319300  0.40308400  1
  H  392  1  0.16697100  0.35022600  0.41869500  1
  H  393  1  0.14623800  0.37258700  0.44842300  1
  H  394  1  0.03414200  0.36215600  0.46769500  1
  H  395  1  0.12114000  0.38938600  0.47814700  1
  H  396  1  0.08909600  0.40530600  0.50241200  1
  H  402  1  0.02835800  0.38521800  0.41153800  1
  H  403  1  0.07981300  0.28715700  0.45811300  1
  H  404  1  0.02132000  0.39619400  0.49728100  1
  H  405  1  0.14119200  0.30472900  0.38203300  1
  H  430  1  0.49468200  0.40745300  0.05326800  1
  H  431  1  0.50167500  0.41454300  0.08565500  1
  H  432  1  0.51427400  0.42513500  0.11889600  1
  H  433  1  0.53119500  0.43868000  0.15082700  1
  H  434  1  0.58812000  0.46886000  0.13785100  1
  H  435  1  0.55897400  0.44258000  0.05780200  1
  H  436  1  0.60190100  0.42046900  0.09215200  1
  H  437  1  0.66696600  0.43606800  0.07070500  1
  H  438  1  0.64621800  0.46577900  0.07804000  1
  H  439  1  0.53413200  0.48506300  0.10777100  1
  H  440  1  0.62107100  0.49545200  0.09085300  1
  H  441  1  0.58904500  0.51972800  0.09922300  1
  H  447  1  0.52837300  0.42889500  0.02854600  1
  H  448  1  0.57986900  0.47544600  0.17317700  1
  H  449  1  0.52132300  0.51463100  0.10319900  1
  H  450  1  0.64120800  0.39942400  0.07958400  1
  H  475  1  0.49469400  0.93383500  0.32166300  1
  H  476  1  0.50169000  0.90144900  0.29636400  1
  H  477  1  0.51425700  0.86819700  0.27373500  1
  H  478  1  0.53115100  0.83625600  0.25536100  1
  H  479  1  0.58806800  0.84922600  0.29852200  1
  H  480  1  0.55898400  0.92929900  0.35225500  1
  H  481  1  0.60188900  0.89498800  0.29582400  1
  H  482  1  0.66695600  0.91640800  0.33286700  1
  H  483  1  0.64622400  0.90902500  0.35521500  1
  H  484  1  0.53413600  0.87930200  0.34476300  1
  H  485  1  0.62113200  0.89608200  0.37199700  1
  H  486  1  0.58909400  0.88772400  0.38790900  1
  H  492  1  0.52839000  0.95855600  0.36782700  1
  H  493  1  0.57978200  0.81389300  0.26978900  1
  H  494  1  0.52131100  0.88374500  0.37879900  1
  H  495  1  0.64119300  0.90756800  0.28736100  1
  H  520  1  0.49469400  0.66540600  0.57964800  1
  H  521  1  0.50167500  0.69069700  0.57254400  1
  H  522  1  0.51428000  0.71334500  0.56195900  1
  H  523  1  0.53117800  0.73172200  0.54839900  1
  H  524  1  0.58809500  0.68856300  0.51820600  1
  H  525  1  0.55899300  0.63482000  0.54453100  1
  H  526  1  0.60189900  0.69127700  0.56661500  1
  H  527  1  0.66698700  0.65425500  0.55100700  1
  H  528  1  0.64624300  0.63187500  0.52129500  1
  H  529  1  0.53414100  0.64230000  0.50201300  1
  H  530  1  0.62112800  0.61505000  0.49158700  1
  H  531  1  0.58909400  0.59913600  0.46731300  1
  H  537  1  0.52837900  0.61924600  0.55820400  1
  H  538  1  0.57983200  0.71730300  0.51161700  1
  H  539  1  0.52132700  0.60821000  0.47242500  1
  H  540  1  0.64120000  0.69975600  0.58766200  1
  H  565  1  0.99764100  0.33613000  0.91835400  1
  H  566  1  0.00592500  0.31055100  0.88625900  1
  H  567  1  0.01779500  0.28853300  0.85242400  1
  H  568  1  0.03284800  0.27159600  0.81983000  1
  H  569  1  0.08368900  0.31800300  0.83170200  1
  H  570  1  0.05522300  0.37033500  0.91182400  1
  H  571  1  0.10667900  0.31922900  0.87941000  1
  H  572  1  0.16803500  0.35763300  0.88647300  1
  H  573  1  0.13875700  0.37726200  0.88071800  1
  H  574  1  0.02388600  0.35608200  0.86130200  1
  H  575  1  0.10326300  0.39316100  0.87296600  1
  H  576  1  0.06463000  0.40374900  0.86450400  1
  H  582  1  0.02423700  0.38468700  0.94072900  1
  H  583  1  0.07596500  0.28922600  0.79663400  1
  H  584  1  0.00155900  0.37871000  0.85509800  1
  H  585  1  0.15271700  0.31368800  0.88778400  1
  H  610  1  0.99764900  0.60182300  0.65095500  1
  H  611  1  0.00595400  0.59532200  0.67654300  1
  H  612  1  0.01785900  0.58354000  0.69857900  1
  H  613  1  0.03286400  0.56785500  0.71549900  1
  H  614  1  0.08364200  0.53327100  0.66907200  1
  H  615  1  0.05522000  0.56108100  0.61675100  1
  H  616  1  0.10669200  0.57978500  0.66785200  1
  H  617  1  0.16804700  0.54843400  0.62945100  1
  H  618  1  0.13876300  0.52305300  0.60981900  1
  H  619  1  0.02389700  0.52482500  0.63102500  1
  H  620  1  0.10325700  0.49940000  0.59392900  1
  H  621  1  0.06461900  0.48035100  0.58335100  1
  H  627  1  0.02421100  0.57561900  0.60239700  1
  H  628  1  0.07588600  0.52697600  0.69784700  1
  H  629  1  0.00155900  0.49599900  0.60839800  1
  H  630  1  0.15272400  0.59370500  0.67338000  1
  H  655  1  0.99767800  0.06871800  0.38524600  1
  H  656  1  0.00596200  0.10081200  0.39176000  1
  H  657  1  0.01784200  0.13464100  0.40356300  1
  H  658  1  0.03286200  0.16724300  0.41923700  1
  H  659  1  0.08365200  0.15539400  0.45381300  1
  H  660  1  0.05523700  0.07526200  0.42600000  1
  H  661  1  0.10668100  0.10764900  0.40729800  1
  H  662  1  0.16803300  0.10058600  0.43864400  1
  H  663  1  0.13875700  0.10635100  0.46403100  1
  H  664  1  0.02388800  0.12578400  0.46226600  1
  H  665  1  0.10326700  0.11414700  0.48770000  1
  H  666  1  0.06462700  0.12259800  0.50674100  1
  H  672  1  0.02423300  0.04636600  0.41145800  1
  H  673  1  0.07593400  0.19045600  0.46010000  1
  H  674  1  0.00155100  0.13198100  0.49109200  1
  H  675  1  0.15271500  0.09925100  0.39337700  1
  H  700  1  0.49766200  0.66832300  0.05135000  1
  H  701  1  0.50594000  0.69390100  0.08344700  1
  H  702  1  0.51781200  0.71592100  0.11728400  1
  H  703  1  0.53285900  0.73285600  0.14987900  1
  H  704  1  0.58368600  0.68644500  0.13801300  1
  H  705  1  0.55524600  0.63412200  0.05788600  1
  H  706  1  0.60668900  0.68522500  0.09031300  1
  H  707  1  0.66805800  0.64684300  0.08329500  1
  H  708  1  0.63877400  0.62721000  0.08903900  1
  H  709  1  0.52389600  0.64838200  0.10842500  1
  H  710  1  0.60326800  0.61129900  0.09676600  1
  H  711  1  0.56463400  0.60071500  0.10522800  1
  H  717  1  0.52429600  0.61976800  0.02896500  1
  H  718  1  0.57594100  0.71521800  0.17308500  1
  H  719  1  0.50155200  0.62573500  0.11459100  1
  H  720  1  0.65272900  0.69077200  0.08194900  1
  H  745  1  0.49763500  0.40265000  0.31878000  1
  H  746  1  0.50593200  0.40915000  0.29319400  1
  H  747  1  0.51784900  0.42091900  0.27114900  1
  H  748  1  0.53284800  0.43660600  0.25422900  1
  H  749  1  0.58363800  0.47118700  0.30065200  1
  H  750  1  0.55522500  0.44337900  0.35297400  1
  H  751  1  0.60668600  0.42466900  0.30187900  1
  H  752  1  0.66804800  0.45603300  0.34026400  1
  H  753  1  0.63876600  0.48141600  0.35989000  1
  H  754  1  0.52389300  0.47963500  0.33870000  1
  H  755  1  0.60325600  0.50506200  0.37579300  1
  H  756  1  0.56462000  0.52411000  0.38637000  1
  H  762  1  0.52419100  0.42885200  0.36733200  1
  H  763  1  0.57590600  0.47747100  0.27187300  1
  H  764  1  0.50155800  0.50846600  0.36132300  1
  H  765  1  0.65272000  0.41075700  0.29633800  1
  H  790  1  0.49767900  0.93573700  0.58447200  1
  H  791  1  0.50596100  0.90364200  0.57795700  1
  H  792  1  0.51782000  0.86980500  0.56614000  1
  H  793  1  0.53285300  0.83720600  0.55047500  1
  H  794  1  0.58366900  0.84906100  0.51591800  1
  H  795  1  0.55523600  0.92918900  0.54371400  1
  H  796  1  0.60668400  0.89680300  0.56242100  1
  H  797  1  0.66803300  0.90388100  0.53108300  1
  H  798  1  0.63875500  0.89811700  0.50569600  1
  H  799  1  0.52388900  0.87867300  0.50745400  1
  H  800  1  0.60325800  0.89034300  0.48203700  1
  H  801  1  0.56462200  0.88188800  0.46299200  1
  H  807  1  0.52425300  0.95809500  0.55826700  1
  H  808  1  0.57593700  0.81399500  0.50962700  1
  H  809  1  0.50154900  0.87250100  0.47863700  1
  H  810  1  0.65272000  0.90520300  0.57634300  1
  H  835  1  0.96606700  0.40437200  0.05207900  1
  H  836  1  0.95815100  0.41080300  0.08415600  1
  H  837  1  0.94626200  0.42220600  0.11785500  1
  H  838  1  0.93112700  0.43746400  0.15040700  1
  H  839  1  0.87962500  0.47190800  0.13889300  1
  H  840  1  0.90761200  0.44459900  0.05872400  1
  H  841  1  0.85692500  0.42568700  0.09093000  1
  H  842  1  0.79535300  0.45700500  0.08407400  1
  H  843  1  0.82446800  0.48256400  0.09007700  1
  H  844  1  0.93949600  0.48075800  0.10914800  1
  H  845  1  0.86001600  0.50626800  0.09775400  1
  H  846  1  0.89875500  0.52521200  0.10593700  1
  H  852  1  0.93695300  0.42939100  0.02903700  1
  H  853  1  0.88747100  0.47788500  0.17387300  1
  H  854  1  0.96191800  0.50941200  0.11503400  1
  H  855  1  0.81102600  0.41156600  0.08227600  1
  H  880  1  0.96609900  0.93499400  0.31979900  1
  H  881  1  0.95819100  0.90291500  0.29416300  1
  H  882  1  0.94631000  0.86921900  0.27187100  1
  H  883  1  0.93117100  0.83666800  0.25457700  1
  H  884  1  0.87960700  0.84820100  0.30050700  1
  H  885  1  0.90761200  0.92837000  0.35337100  1
  H  886  1  0.85690200  0.89616500  0.30225100  1
  H  887  1  0.79533300  0.90300700  0.34042400  1
  H  888  1  0.82445200  0.89699700  0.35997200  1
  H  889  1  0.93949500  0.87797700  0.33911700  1
  H  890  1  0.86000300  0.88932200  0.37599700  1
  H  891  1  0.89875100  0.88116700  0.38677100  1
  H  897  1  0.93703000  0.95802400  0.36786400  1
  H  898  1  0.88747400  0.81321400  0.27151400  1
  H  899  1  0.96192700  0.87211700  0.36190100  1
  H  900  1  0.81100100  0.90480000  0.29677700  1
  H  925  1  0.96612200  0.66728200  0.58267600  1
  H  926  1  0.95822900  0.69291700  0.57622600  1
  H  927  1  0.94633800  0.71521500  0.56482200  1
  H  928  1  0.93116100  0.73252300  0.54958900  1
  H  929  1  0.87957600  0.68660000  0.51521200  1
  H  930  1  0.90761100  0.63372300  0.54249300  1
  H  931  1  0.85691400  0.68485900  0.56139700  1
  H  932  1  0.79535100  0.64666800  0.53009100  1
  H  933  1  0.82446700  0.62711200  0.50453600  1
  H  934  1  0.93950700  0.64796100  0.50635100  1
  H  935  1  0.86001500  0.61107300  0.48084200  1
  H  936  1  0.89875700  0.60029300  0.46190700  1
  H  942  1  0.93697700  0.61923200  0.55768200  1
  H  943  1  0.88744300  0.71559100  0.50921400  1
  H  944  1  0.96193400  0.62517300  0.47771000  1
  H  945  1  0.81101100  0.69033300  0.57551200  1
  H  970  1  0.46615500  0.60001600  0.91760600  1
  H  971  1  0.45824700  0.59357700  0.88552500  1
  H  972  1  0.44633300  0.58220100  0.85184100  1
  H  973  1  0.43118800  0.56694900  0.81929000  1
  H  974  1  0.37961700  0.53255700  0.83082400  1
  H  975  1  0.40762600  0.55985200  0.91099000  1
  H  976  1  0.35691800  0.57876600  0.87877000  1
  H  977  1  0.29535200  0.54745100  0.88563600  1
  H  978  1  0.32447100  0.52189900  0.87964500  1
  H  979  1  0.43950300  0.52370900  0.86058400  1
  H  980  1  0.36001900  0.49819500  0.87197100  1
  H  981  1  0.39876000  0.47925400  0.86379300  1
  H  987  1  0.43702400  0.57501600  0.94065200  1
  H  988  1  0.38748900  0.52656900  0.79583500  1
  H  989  1  0.46192300  0.49505100  0.85469300  1
  H  990  1  0.31102100  0.59288700  0.88742700  1
  H  1015  1  0.46611800  0.06947100  0.64991500  1
  H  1016  1  0.45822600  0.10155500  0.67554700  1
  H  1017  1  0.44632100  0.13524900  0.69784900  1
  H  1018  1  0.43116100  0.16779400  0.71515200  1
  H  1019  1  0.37959500  0.15625600  0.66922200  1
  H  1020  1  0.40760700  0.07608800  0.61635600  1
  H  1021  1  0.35691400  0.10829800  0.66747300  1
  H  1022  1  0.29534600  0.10143600  0.62929500  1
  H  1023  1  0.32445900  0.10744500  0.60974400  1
  H  1024  1  0.43950300  0.12646900  0.63059200  1
  H  1025  1  0.36000400  0.11513400  0.59372300  1
  H  1026  1  0.39875300  0.12327700  0.58293800  1
  H  1032  1  0.43700100  0.04642300  0.60186300  1
  H  1033  1  0.38742900  0.19123800  0.69822200  1
  H  1034  1  0.46193500  0.13232400  0.60780500  1
  H  1035  1  0.31101600  0.09964900  0.67294200  1
  H  1060  1  0.46609300  0.33717200  0.38703500  1
  H  1061  1  0.45819700  0.31153900  0.39348900  1
  H  1062  1  0.44630900  0.28924800  0.40489800  1
  H  1063  1  0.43113800  0.27194400  0.42013600  1
  H  1064  1  0.37957600  0.31787800  0.45452800  1
  H  1065  1  0.40760100  0.37074200  0.42722800  1
  H  1066  1  0.35690600  0.31960900  0.40833500  1
  H  1067  1  0.29532400  0.35777000  0.43965600  1
  H  1068  1  0.32443900  0.37733100  0.46521100  1
  H  1069  1  0.43949000  0.35650500  0.46338400  1
  H  1070  1  0.35999400  0.39338600  0.48889800  1
  H  1071  1  0.39873700  0.40416800  0.50782900  1
  H  1077  1  0.43697400  0.38522900  0.41204100  1
  H  1078  1  0.38744900  0.28888600  0.46052800  1
  H  1079  1  0.46192900  0.37932400  0.49200500  1
  H  1080  1  0.31100800  0.31412300  0.39422000  1
  H  1091  1  0.89754000  0.82476300  0.19668400  1
  H  1092  1  0.89260600  0.74473600  0.21067000  1
  H  1093  1  0.89284000  0.77445100  0.24138200  1
  H  1096  1  0.90151900  0.78135900  0.14906400  1
  H  1097  1  0.86616800  0.81512200  0.16648800  1
  H  1098  1  0.85615300  0.79048100  0.15375400  1
  H  1099  1  0.87376200  0.80045600  0.14172200  1
  H  1112  1  0.89751600  0.39150600  0.16232400  1
  H  1113  1  0.89263600  0.48551400  0.24235000  1
  H  1114  1  0.89288400  0.48651400  0.21263600  1
  H  1117  1  0.90146100  0.38729100  0.20572900  1
  H  1118  1  0.86613400  0.37094000  0.17195100  1
  H  1119  1  0.85610200  0.38284100  0.19658900  1
  H  1120  1  0.87372500  0.36084100  0.18662000  1
  H  1133  1  0.89746400  0.79043900  0.59558100  1
  H  1134  1  0.89266500  0.77640800  0.50154900  1
  H  1135  1  0.89286800  0.74570300  0.50057200  1
  H  1138  1  0.90148700  0.83804900  0.59977300  1
  H  1139  1  0.86613400  0.82064900  0.61613500  1
  H  1140  1  0.85612100  0.83337800  0.60422300  1
  H  1141  1  0.87374300  0.84541300  0.62622400  1
  H  1154  1  0.39747800  0.17970400  0.77305500  1
  H  1155  1  0.39264700  0.25971900  0.75904900  1
  H  1156  1  0.39285600  0.23000100  0.72834400  1
  H  1159  1  0.40151500  0.22311300  0.82066900  1
  H  1160  1  0.36614400  0.18936100  0.80327100  1
  H  1161  1  0.35614400  0.21400500  0.81600900  1
  H  1162  1  0.37376700  0.20402800  0.82803200  1
  H  1175  1  0.39740500  0.61295800  0.80740200  1
  H  1176  1  0.39272400  0.51894400  0.72737700  1
  H  1177  1  0.39295100  0.51794700  0.75709100  1
  H  1180  1  0.40141600  0.61716700  0.76399500  1
  H  1181  1  0.36604700  0.63351400  0.79774700  1
  H  1182  1  0.35604500  0.62160700  0.77310300  1
  H  1183  1  0.37366000  0.64361100  0.78308100  1
  H  1196  1  0.39752300  0.21404700  0.37415300  1
  H  1197  1  0.39261200  0.22804800  0.46817300  1
  H  1198  1  0.39282700  0.25875500  0.46916100  1
  H  1201  1  0.40152200  0.16642900  0.36994500  1
  H  1202  1  0.36617000  0.18384500  0.35359900  1
  H  1203  1  0.35615600  0.17111300  0.36550800  1
  H  1204  1  0.37376900  0.15908000  0.34350300  1
  H  1217  1  0.06611800  0.61304100  0.77311400  1
  H  1218  1  0.07130600  0.51879000  0.75847200  1
  H  1219  1  0.07096300  0.51803100  0.72787300  1
  H  1222  1  0.06250900  0.61693700  0.82062200  1
  H  1223  1  0.09731400  0.63359200  0.80319800  1
  H  1224  1  0.10772200  0.62160800  0.81576500  1
  H  1225  1  0.08995900  0.64353000  0.82798200  1
  H  1238  1  0.06622100  0.21396100  0.80741500  1
  H  1239  1  0.07125600  0.22862700  0.72781700  1
  H  1240  1  0.07091700  0.25922100  0.75766400  1
  H  1243  1  0.06256500  0.16645900  0.76379500  1
  H  1244  1  0.09739600  0.18386100  0.79785900  1
  H  1245  1  0.10778600  0.17129600  0.77330500  1
  H  1246  1  0.09002200  0.15908200  0.78301300  1
  H  1259  1  0.06610600  0.17967000  0.37405200  1
  H  1260  1  0.07132600  0.25927800  0.46830300  1
  H  1261  1  0.07097500  0.22944000  0.46906200  1
  H  1264  1  0.06250500  0.22328200  0.37015300  1
  H  1265  1  0.09731000  0.18920300  0.35350400  1
  H  1266  1  0.10771800  0.21375500  0.36549100  1
  H  1267  1  0.08996300  0.20405000  0.34356600  1
  H  1280  1  0.56611700  0.39141100  0.19661700  1
  H  1281  1  0.57129400  0.48565400  0.21124600  1
  H  1282  1  0.57091400  0.48641900  0.24184500  1
  H  1285  1  0.56257000  0.38750800  0.14910500  1
  H  1286  1  0.59734800  0.37085500  0.16654500  1
  H  1287  1  0.60777600  0.38283500  0.15397800  1
  H  1288  1  0.59000900  0.36091300  0.14175700  1
  H  1301  1  0.56618100  0.79049800  0.16231400  1
  H  1302  1  0.57127100  0.77581900  0.24190200  1
  H  1303  1  0.57094700  0.74522800  0.21205200  1
  H  1306  1  0.56253500  0.83799900  0.20593600  1
  H  1307  1  0.59735200  0.82059400  0.17186500  1
  H  1308  1  0.60775200  0.83315500  0.19641800  1
  H  1309  1  0.58998600  0.84537500  0.18671600  1
  H  1322  1  0.56616800  0.82478100  0.59568200  1
  H  1323  1  0.57128600  0.74518200  0.50142300  1
  H  1324  1  0.57095300  0.77502500  0.50067300  1
  H  1327  1  0.56251900  0.78116500  0.59957000  1
  H  1328  1  0.59734300  0.81523400  0.61623200  1
  H  1329  1  0.60773700  0.79067900  0.60424300  1
  H  1330  1  0.58997000  0.80038700  0.62616500  1
  H  1343  1  0.69280500  0.73188400  0.07342900  1
  H  1344  1  0.76621800  0.66990800  0.09314600  1
  H  1345  1  0.72135400  0.66314200  0.09307900  1
  H  1348  1  0.76062100  0.74645600  0.07752700  1
  H  1349  1  0.72081800  0.73702200  0.04736900  1
  H  1350  1  0.75284900  0.72741000  0.04299300  1
  H  1351  1  0.74774600  0.75255700  0.05263300  1
  H  1364  1  0.69283200  0.36114000  0.25519800  1
  H  1365  1  0.76620100  0.44284200  0.31722400  1
  H  1366  1  0.72133400  0.44952100  0.32399100  1
  H  1369  1  0.76067900  0.35068200  0.24065500  1
  H  1370  1  0.72078200  0.32994900  0.24999600  1
  H  1371  1  0.75278500  0.33517000  0.25966400  1
  H  1372  1  0.74775000  0.31968500  0.23450400  1
  H  1385  1  0.69282100  0.91365900  0.62595000  1
  H  1386  1  0.76620100  0.89398000  0.54425300  1
  H  1387  1  0.72133200  0.89405800  0.53756700  1
  H  1390  1  0.76065400  0.90958200  0.63641700  1
  H  1391  1  0.72076000  0.93965500  0.65715600  1
  H  1392  1  0.75276900  0.94410400  0.65195100  1
  H  1393  1  0.74771700  0.93441200  0.66741900  1
  H  1406  1  0.19282100  0.27257900  0.89630100  1
  H  1407  1  0.26619600  0.33455100  0.87655200  1
  H  1408  1  0.22132700  0.34131500  0.87663200  1
  H  1411  1  0.26064500  0.25801300  0.89219200  1
  H  1412  1  0.22083900  0.26743600  0.92234400  1
  H  1413  1  0.25286500  0.27705800  0.92672500  1
  H  1414  1  0.24777600  0.25191000  0.91708500  1
  H  1427  1  0.19284700  0.64331700  0.71452000  1
  H  1428  1  0.26620000  0.56160400  0.65249800  1
  H  1429  1  0.22132900  0.55492900  0.64573300  1
  H  1432  1  0.26069700  0.65377000  0.72905600  1
  H  1433  1  0.22079400  0.67450800  0.71972800  1
  H  1434  1  0.25279300  0.66928600  0.71005300  1
  H  1435  1  0.24776800  0.68476900  0.73521400  1
  H  1448  1  0.19282100  0.09079700  0.34376900  1
  H  1449  1  0.26619400  0.11047700  0.42546800  1
  H  1450  1  0.22132700  0.11040100  0.43215400  1
  H  1453  1  0.26064100  0.09492000  0.33332600  1
  H  1454  1  0.22085800  0.06475800  0.31256400  1
  H  1455  1  0.25288800  0.06038100  0.31780300  1
  H  1456  1  0.24778900  0.07004500  0.30231500  1
  H  1469  1  0.27105200  0.64282500  0.89642700  1
  H  1470  1  0.19740800  0.56099400  0.87584500  1
  H  1471  1  0.24223200  0.55419700  0.87586800  1
  H  1474  1  0.20323900  0.65347600  0.89246900  1
  H  1475  1  0.24327400  0.67402100  0.92247700  1
  H  1476  1  0.21125700  0.66886000  0.92696400  1
  H  1477  1  0.21633700  0.68439900  0.91735700  1
  H  1490  1  0.27105600  0.09067900  0.71390000  1
  H  1491  1  0.19739700  0.11119100  0.65260900  1
  H  1492  1  0.24222100  0.11117900  0.64579400  1
  H  1495  1  0.20323700  0.09459800  0.72849000  1
  H  1496  1  0.24334900  0.06465500  0.71908800  1
  H  1497  1  0.21134600  0.06011400  0.70941800  1
  H  1498  1  0.21639900  0.06975400  0.73457000  1
  H  1511  1  0.27106200  0.27319600  0.34427400  1
  H  1512  1  0.19738100  0.33445900  0.42607700  1
  H  1513  1  0.24220500  0.34126800  0.43289000  1
  H  1516  1  0.20324100  0.25860700  0.33359200  1
  H  1517  1  0.24333000  0.26804600  0.31306500  1
  H  1518  1  0.21132300  0.27770900  0.31820700  1
  H  1519  1  0.21638700  0.25256000  0.30267500  1
  H  1532  1  0.77104800  0.36163800  0.07330600  1
  H  1533  1  0.69741200  0.44345600  0.09382800  1
  H  1534  1  0.74223700  0.45025000  0.09380700  1
  H  1537  1  0.70320300  0.35097400  0.07721100  1
  H  1538  1  0.74336400  0.33044200  0.04731000  1
  H  1539  1  0.71138200  0.33557700  0.04273600  1
  H  1540  1  0.71638600  0.32005600  0.05237400  1
  H  1553  1  0.77105900  0.91377400  0.25582300  1
  H  1554  1  0.69738000  0.89327200  0.31711200  1
  H  1555  1  0.74220200  0.89327800  0.32392800  1
  H  1558  1  0.70324000  0.90986900  0.24123500  1
  H  1559  1  0.74337200  0.93979500  0.25062300  1
  H  1560  1  0.71137100  0.94435100  0.26030000  1
  H  1561  1  0.71641900  0.93470100  0.23514500  1
  H  1574  1  0.77105700  0.73125300  0.62545300  1
  H  1575  1  0.69739800  0.67001500  0.54362300  1
  H  1576  1  0.74222400  0.66320000  0.53681900  1
  H  1579  1  0.70323600  0.74584900  0.63612100  1
  H  1580  1  0.74331200  0.73639700  0.65664800  1
  H  1581  1  0.71130300  0.72673500  0.65149600  1
  H  1582  1  0.71636700  0.75188300  0.66703600  1
  H  1595  1  0.98361300  0.66040300  0.96318700  1
  H  1596  1  0.97526200  0.59893700  0.00213300  1
  H  1597  1  0.99677200  0.58283300  0.97117900  1
  H  1600  1  0.93842400  0.68209100  0.99946400  1
  H  1601  1  0.98561800  0.69696900  0.99019900  1
  H  1602  1  0.95683500  0.71010500  0.00066100  1
  H  1603  1  0.95623200  0.69036800  0.97660900  1
  H  1616  1  0.98361400  0.32238700  0.32668600  1
  H  1617  1  0.97530900  0.42280100  0.38815100  1
  H  1618  1  0.99682800  0.40794800  0.40424800  1
  H  1621  1  0.93840400  0.33697500  0.30501200  1
  H  1622  1  0.98560600  0.31284400  0.29012300  1
  H  1623  1  0.95681700  0.31016700  0.27699100  1
  H  1624  1  0.95622800  0.30584400  0.29672400  1
  H  1637  1  0.98363700  0.02388700  0.66471200  1
  H  1638  1  0.97526300  0.98497300  0.56430500  1
  H  1639  1  0.99677800  0.01592500  0.57916200  1
  H  1642  1  0.93843000  0.98761800  0.65011600  1
  H  1643  1  0.98562000  0.99687300  0.67426000  1
  H  1644  1  0.95683100  0.98641500  0.67693100  1
  H  1645  1  0.95623700  0.01046900  0.68125000  1
  H  1658  1  0.48363700  0.34405200  0.00653100  1
  H  1659  1  0.47525400  0.40553400  0.96760500  1
  H  1660  1  0.49676600  0.42163400  0.99855800  1
  H  1663  1  0.43843700  0.32237300  0.97026100  1
  H  1664  1  0.48562800  0.30748700  0.97952000  1
  H  1665  1  0.45684100  0.29435600  0.96906000  1
  H  1666  1  0.45624400  0.31409200  0.99311300  1
  H  1679  1  0.48364800  0.68206900  0.64305400  1
  H  1680  1  0.47528300  0.58166400  0.58156700  1
  H  1681  1  0.49681000  0.59651800  0.56547400  1
  H  1684  1  0.43841300  0.66747900  0.66471500  1
  H  1685  1  0.48561100  0.69161400  0.67961600  1
  H  1686  1  0.45681400  0.69429000  0.69274000  1
  H  1687  1  0.45623800  0.69861200  0.67300600  1
  H  1700  1  0.48360900  0.98056600  0.30500900  1
  H  1701  1  0.47528100  0.01949800  0.40542000  1
  H  1702  1  0.49678700  0.98854400  0.39056400  1
  H  1705  1  0.43842300  0.01684700  0.31961000  1
  H  1706  1  0.48561100  0.00758000  0.29546000  1
  H  1707  1  0.45682600  0.01804700  0.29279300  1
  H  1708  1  0.45622200  0.99399200  0.28847400  1
  H  1721  1  0.98023500  0.34374600  0.00651500  1
  H  1722  1  0.98857500  0.40525500  0.96759800  1
  H  1723  1  0.96706500  0.42134400  0.99854400  1
  H  1726  1  0.02538700  0.32204300  0.97019200  1
  H  1727  1  0.97823000  0.30719300  0.97953100  1
  H  1728  1  0.00699200  0.29404200  0.96902800  1
  H  1729  1  0.00765100  0.31378100  0.99307800  1
  H  1742  1  0.98018500  0.68235700  0.64335100  1
  H  1743  1  0.98862700  0.58194100  0.58181600  1
  H  1744  1  0.96710100  0.59679500  0.56573200  1
  H  1747  1  0.02537300  0.66774400  0.66504200  1
  H  1748  1  0.97821400  0.69193100  0.67990300  1
  H  1749  1  0.00698400  0.69458100  0.69304600  1
  H  1750  1  0.00762800  0.69888900  0.67330300  1
  H  1763  1  0.98021400  0.98056900  0.30472300  1
  H  1764  1  0.98861700  0.01948000  0.40514300  1
  H  1765  1  0.96709600  0.98853900  0.39029400  1
  H  1768  1  0.02537900  0.01688400  0.31933000  1
  H  1769  1  0.97821500  0.00754900  0.29514800  1
  H  1770  1  0.00697800  0.01804700  0.29249500  1
  H  1771  1  0.00763400  0.99399700  0.28818600  1
  H  1784  1  0.48021700  0.66069600  0.96319300  1
  H  1785  1  0.48859600  0.59919700  0.00211800  1
  H  1786  1  0.46707600  0.58310400  0.97117700  1
  H  1789  1  0.52539000  0.68240400  0.99950200  1
  H  1790  1  0.47821500  0.69724800  0.99017700  1
  H  1791  1  0.50697700  0.71040100  0.00067200  1
  H  1792  1  0.50763100  0.69066200  0.97662000  1
  H  1805  1  0.48019800  0.32210100  0.32637600  1
  H  1806  1  0.48861200  0.42251900  0.38790500  1
  H  1807  1  0.46708000  0.40766400  0.40398700  1
  H  1810  1  0.52538400  0.33671300  0.30468300  1
  H  1811  1  0.47822100  0.31253000  0.28982200  1
  H  1812  1  0.50699100  0.30987900  0.27667900  1
  H  1813  1  0.50763500  0.30556800  0.29641900  1
  H  1826  1  0.48020500  0.02387500  0.66499400  1
  H  1827  1  0.48862700  0.98498400  0.56457600  1
  H  1828  1  0.46710400  0.01592400  0.57943000  1
  H  1831  1  0.52537800  0.98756400  0.65038200  1
  H  1832  1  0.47821500  0.99689500  0.67456600  1
  H  1833  1  0.50698100  0.98639800  0.67721700  1
  H  1834  1  0.50763300  0.01044800  0.68152600  1
  H  1847  1  0.89793000  0.57013200  0.16928700  1
  H  1848  1  0.95092100  0.56995600  0.08819200  1
  H  1849  1  0.96369500  0.54132600  0.08878600  1
  H  1852  1  0.88460800  0.61712000  0.17433900  1
  H  1853  1  0.84969700  0.58684300  0.17265900  1
  H  1854  1  0.84545500  0.59899300  0.15925100  1
  H  1855  1  0.84388900  0.61202800  0.18488400  1
  H  1868  1  0.89795400  0.61877400  0.41698200  1
  H  1869  1  0.95093600  0.53782700  0.41711300  1
  H  1870  1  0.96370100  0.56704400  0.44575300  1
  H  1873  1  0.88462800  0.57685400  0.36998300  1
  H  1874  1  0.84971600  0.60544000  0.40027000  1
  H  1875  1  0.84547600  0.57988100  0.38810800  1
  H  1876  1  0.84390600  0.59249000  0.37508500  1
  H  1889  1  0.89790000  0.81780700  0.36831600  1
  H  1890  1  0.95094700  0.89886600  0.44924900  1
  H  1891  1  0.96372300  0.89828000  0.42002700  1
  H  1894  1  0.88457000  0.81274000  0.41023800  1
  H  1895  1  0.84965300  0.81444300  0.38165700  1
  H  1896  1  0.84541900  0.82784100  0.40721600  1
  H  1897  1  0.84384600  0.80220900  0.39460800  1
  H  1910  1  0.39794400  0.43433200  0.80043200  1
  H  1911  1  0.45094300  0.43449600  0.88152600  1
  H  1912  1  0.46372100  0.46312700  0.88092900  1
  H  1915  1  0.38461300  0.38734700  0.79537500  1
  H  1916  1  0.34968700  0.41762500  0.79707200  1
  H  1917  1  0.34545500  0.40546300  0.81047000  1
  H  1918  1  0.34388800  0.39243800  0.78483800  1
  H  1931  1  0.39793800  0.38564700  0.55270200  1
  H  1932  1  0.45091000  0.46664600  0.55266400  1
  H  1933  1  0.46367200  0.43744700  0.52400400  1
  H  1936  1  0.38463100  0.42752800  0.59972600  1
  H  1937  1  0.34968900  0.39899100  0.56942600  1
  H  1938  1  0.34547200  0.42455300  0.58162500  1
  H  1939  1  0.34389300  0.41190800  0.59461300  1
  H  1952  1  0.39789700  0.18663000  0.60138500  1
  H  1953  1  0.45096000  0.10557900  0.52046000  1
  H  1954  1  0.46371500  0.10615500  0.54968000  1
  H  1957  1  0.38461300  0.19170900  0.55945900  1
  H  1958  1  0.34967900  0.19001800  0.58803900  1
  H  1959  1  0.34545100  0.17661900  0.56247900  1
  H  1960  1  0.34389000  0.20225200  0.57508600  1
  H  1973  1  0.06537500  0.38445700  0.80034100  1
  H  1974  1  0.01345800  0.46594300  0.88145500  1
  H  1975  1  0.00033500  0.43687100  0.88105300  1
  H  1978  1  0.07862100  0.42591400  0.79469300  1
  H  1979  1  0.11438100  0.39830300  0.79740300  1
  H  1980  1  0.11796700  0.42393000  0.81030300  1
  H  1981  1  0.11979200  0.41082000  0.78467800  1
  H  1994  1  0.06537700  0.18674700  0.55159600  1
  H  1995  1  0.01345800  0.10564200  0.55198000  1
  H  1996  1  0.00033100  0.10604000  0.52331200  1
  H  1999  1  0.07863800  0.19239400  0.59869700  1
  H  2000  1  0.11438500  0.18967700  0.56836800  1
  H  2001  1  0.11797500  0.17677800  0.58109400  1
  H  2002  1  0.11980800  0.20240100  0.59360800  1
  H  2015  1  0.06539100  0.43550300  0.60263500  1
  H  2016  1  0.01349100  0.43514000  0.52115100  1
  H  2017  1  0.00036000  0.46381000  0.55021800  1
  H  2020  1  0.07865400  0.38840000  0.56116500  1
  H  2021  1  0.11437500  0.41873400  0.58880300  1
  H  2022  1  0.11797900  0.40602300  0.56317800  1
  H  2023  1  0.11981400  0.39349600  0.57627300  1
  H  2036  1  0.56539000  0.62001000  0.16937700  1
  H  2037  1  0.51347100  0.53852200  0.08826500  1
  H  2038  1  0.50034600  0.56758900  0.08866400  1
  H  2041  1  0.57868400  0.57853600  0.17500200  1
  H  2042  1  0.61435900  0.60620800  0.17232800  1
  H  2043  1  0.61799300  0.58058600  0.15940000  1
  H  2044  1  0.61982600  0.59366900  0.18502300  1
  H  2057  1  0.56539200  0.81772300  0.41814600  1
  H  2058  1  0.51345800  0.89880600  0.41772400  1
  H  2059  1  0.50032900  0.89841900  0.44639800  1
  H  2062  1  0.57864900  0.81205800  0.37103600  1
  H  2063  1  0.61439700  0.81478800  0.40136900  1
  H  2064  1  0.61798600  0.82768000  0.38863500  1
  H  2065  1  0.61982000  0.80205800  0.37613100  1
  H  2078  1  0.56538200  0.56895800  0.36708000  1
  H  2079  1  0.51347900  0.56932900  0.44857300  1
  H  2080  1  0.50033600  0.54066200  0.41950100  1
  H  2083  1  0.57866300  0.61605300  0.40854200  1
  H  2084  1  0.61439400  0.58571900  0.38091800  1
  H  2085  1  0.61798900  0.59843700  0.40654400  1
  H  2086  1  0.61982800  0.61095600  0.39344000  1
  C  1  1  0.89255400  0.64673400  0.09909000  1
  C  2  1  0.86801800  0.63812500  0.09356900  1
  C  3  1  0.85243500  0.64878000  0.08823600  1
  C  4  1  0.86609300  0.66510000  0.09101500  1
  C  5  1  0.85258900  0.67919600  0.08851000  1
  C  6  1  0.82610100  0.67636100  0.08239800  1
  C  7  1  0.81471900  0.65818300  0.07685100  1
  C  8  1  0.82725100  0.64468900  0.08045600  1
  C  9  1  0.86151500  0.62121600  0.09386200  1
  C  10  1  0.88053800  0.61218300  0.09910600  1
  C  11  1  0.90612200  0.61972100  0.10410700  1
  C  12  1  0.91188600  0.63720100  0.10400600  1
  C  13  1  0.91302900  0.66230800  0.08192600  1
  C  14  1  0.92957600  0.67834400  0.08979400  1
  C  15  1  0.92287400  0.69077900  0.10900300  1
  C  16  1  0.90207000  0.68301400  0.11420700  1
  C  17  1  0.93405400  0.70866100  0.12216500  1
  C  18  1  0.92389700  0.71918500  0.14096200  1
  C  19  1  0.90249100  0.71228500  0.14701000  1
  C  20  1  0.89185000  0.69387800  0.13329900  1
  C  21  1  0.91742800  0.64719300  0.06255600  1
  C  22  1  0.93808900  0.64824600  0.05114600  1
  C  23  1  0.95386400  0.66510500  0.05980700  1
  C  24  1  0.94975600  0.68007200  0.07890800  1
  C  37  1  0.89354400  0.66435600  0.09688000  1
  C  38  1  0.89318900  0.72343900  0.16609300  1
  C  39  1  0.94404900  0.63298500  0.03242900  1
  C  40  1  0.92497800  0.60872100  0.10695400  1
  C  41  1  0.81215600  0.69069700  0.08109500  1
  C  46  1  0.89255500  0.47197700  0.34033200  1
  C  47  1  0.86804800  0.47503300  0.34898100  1
  C  48  1  0.85247800  0.45903200  0.33834300  1
  C  49  1  0.86611700  0.44550800  0.32200300  1
  C  50  1  0.85260500  0.42891300  0.30790100  1
  C  51  1  0.82612000  0.42563500  0.31074300  1
  C  52  1  0.81474000  0.43826600  0.32892300  1
  C  53  1  0.82728600  0.45535100  0.34242700  1
  C  54  1  0.86155400  0.49222400  0.36590400  1
  C  55  1  0.88056700  0.50651100  0.37492700  1
  C  56  1  0.90614300  0.50398000  0.36737700  1
  C  57  1  0.91190400  0.48640300  0.34989600  1
  C  58  1  0.91306300  0.43923800  0.32479600  1
  C  59  1  0.92962700  0.43108400  0.30876800  1
  C  60  1  0.92290100  0.43783500  0.29631800  1
  C  61  1  0.90207600  0.45078400  0.30407000  1
  C  62  1  0.93408600  0.43312100  0.27843800  1
  C  63  1  0.92390700  0.44137600  0.26790500  1
  C  64  1  0.90247900  0.45430400  0.27479200  1
  C  65  1  0.89184200  0.45900200  0.29320200  1
  C  66  1  0.91745500  0.43498000  0.33990800  1
  C  67  1  0.93811500  0.42251400  0.33885500  1
  C  68  1  0.95389600  0.41432100  0.32200000  1
  C  69  1  0.94980800  0.41847300  0.30704200  1
  C  82  1  0.89355900  0.45212700  0.32273600  1
  C  83  1  0.89316200  0.46222200  0.26363400  1
  C  84  1  0.94405500  0.41904400  0.35411100  1
  C  85  1  0.92500100  0.51781800  0.37838800  1
  C  86  1  0.81216300  0.41001100  0.29639800  1
  C  91  1  0.89256500  0.88798900  0.51513200  1
  C  92  1  0.86803200  0.89351400  0.51204400  1
  C  93  1  0.85245000  0.89886000  0.52803500  1
  C  94  1  0.86610800  0.89609500  0.54158400  1
  C  95  1  0.85260200  0.89861300  0.55819100  1
  C  96  1  0.82611100  0.90471900  0.56145900  1
  C  97  1  0.81472900  0.91025100  0.54881600  1
  C  98  1  0.82726800  0.90664400  0.53172100  1
  C  99  1  0.86153000  0.89321500  0.49484000  1
  C  100  1  0.88054800  0.88795700  0.48055800  1
  C  101  1  0.90613400  0.88296100  0.48309900  1
  C  102  1  0.91189700  0.88306700  0.50068100  1
  C  103  1  0.91306200  0.90516000  0.54785800  1
  C  104  1  0.92960000  0.89729600  0.55603600  1
  C  105  1  0.92288900  0.87809100  0.54927300  1
  C  106  1  0.90205100  0.87289900  0.53633500  1
  C  107  1  0.93408400  0.86492300  0.55397800  1
  C  108  1  0.92392700  0.84612600  0.54570400  1
  C  109  1  0.90251300  0.84007900  0.53276200  1
  C  110  1  0.89186700  0.85379100  0.52807000  1
  C  111  1  0.91744400  0.92453600  0.55212800  1
  C  112  1  0.93810200  0.93594900  0.56459600  1
  C  113  1  0.95387800  0.92728700  0.57279200  1
  C  114  1  0.94978600  0.90817900  0.56864200  1
  C  127  1  0.89355400  0.89021400  0.53497100  1
  C  128  1  0.89322400  0.82099300  0.52482800  1
  C  129  1  0.94404700  0.95467200  0.56806200  1
  C  130  1  0.92499000  0.88011500  0.46925100  1
  C  131  1  0.81215600  0.90601500  0.57709100  1
  C  136  1  0.39256500  0.35773600  0.87063500  1
  C  137  1  0.36803200  0.36634900  0.87616400  1
  C  138  1  0.35245900  0.35570300  0.88151400  1
  C  139  1  0.36610600  0.33937200  0.87871400  1
  C  140  1  0.35259300  0.32526700  0.88120100  1
  C  141  1  0.32610200  0.32809800  0.88730400  1
  C  142  1  0.31471600  0.34627700  0.89285100  1
  C  143  1  0.32725400  0.35977600  0.88925900  1
  C  144  1  0.36152600  0.38325400  0.87586700  1
  C  145  1  0.38054600  0.39228700  0.87061800  1
  C  146  1  0.40613100  0.38475000  0.86562200  1
  C  147  1  0.41189500  0.36726600  0.86571300  1
  C  148  1  0.41304200  0.34216300  0.88780100  1
  C  149  1  0.42960400  0.32613300  0.87992700  1
  C  150  1  0.42289300  0.31369300  0.86072000  1
  C  151  1  0.40208100  0.32145400  0.85551800  1
  C  152  1  0.43407100  0.29581000  0.84755900  1
  C  153  1  0.42390900  0.28528200  0.82876400  1
  C  154  1  0.40249800  0.29218000  0.82271600  1
  C  155  1  0.39185900  0.31058800  0.83642500  1
  C  156  1  0.41744600  0.35727900  0.90716700  1
  C  157  1  0.43809900  0.35622000  0.91858000  1
  C  158  1  0.45386000  0.33935400  0.90992600  1
  C  159  1  0.44976600  0.32439500  0.89081900  1
  C  172  1  0.39355700  0.34011400  0.87284500  1
  C  173  1  0.39319800  0.28102100  0.80363300  1
  C  174  1  0.44405700  0.37148000  0.93730000  1
  C  175  1  0.42498900  0.39574100  0.86276500  1
  C  176  1  0.31215000  0.31375700  0.88859400  1
  C  181  1  0.39257100  0.53247900  0.62939100  1
  C  182  1  0.36807200  0.52942400  0.62073200  1
  C  183  1  0.35249700  0.54542100  0.63137100  1
  C  184  1  0.36613500  0.55895000  0.64770900  1
  C  185  1  0.35261000  0.57553000  0.66182200  1
  C  186  1  0.32612500  0.57880800  0.65897900  1
  C  187  1  0.31475100  0.56618200  0.64079600  1
  C  188  1  0.32729800  0.54909700  0.62729100  1
  C  189  1  0.36159400  0.51224000  0.60379300  1
  C  190  1  0.38060000  0.49794400  0.59478700  1
  C  191  1  0.40616800  0.50047500  0.60235300  1
  C  192  1  0.41192200  0.51805000  0.61983500  1
  C  193  1  0.41307800  0.56521400  0.64492700  1
  C  194  1  0.42963900  0.57337100  0.66095700  1
  C  195  1  0.42291000  0.56662200  0.67340700  1
  C  196  1  0.40208500  0.55367200  0.66565300  1
  C  197  1  0.43409200  0.57133700  0.69128600  1
  C  198  1  0.42391700  0.56308000  0.70182100  1
  C  199  1  0.40249000  0.55015100  0.69493100  1
  C  200  1  0.39185400  0.54545100  0.67652100  1
  C  201  1  0.41747500  0.56946600  0.62981100  1
  C  202  1  0.43813200  0.58193500  0.63086600  1
  C  203  1  0.45390500  0.59013900  0.64772700  1
  C  204  1  0.44981600  0.58598700  0.66268500  1
  C  217  1  0.39357200  0.55232800  0.64698700  1
  C  218  1  0.39317200  0.54223400  0.70609100  1
  C  219  1  0.44405900  0.58541600  0.61561600  1
  C  220  1  0.42503600  0.48663300  0.59136100  1
  C  221  1  0.31216800  0.59442800  0.67332600  1
  C  226  1  0.39256200  0.11646900  0.45458600  1
  C  227  1  0.36802800  0.11094700  0.45767700  1
  C  228  1  0.35244500  0.10560000  0.44168800  1
  C  229  1  0.36609800  0.10837300  0.42814200  1
  C  230  1  0.35259600  0.10584500  0.41153000  1
  C  231  1  0.32610400  0.09974000  0.40826300  1
  C  232  1  0.31472400  0.09420500  0.42090400  1
  C  233  1  0.32726400  0.09781300  0.43800200  1
  C  234  1  0.36153000  0.11124600  0.47488200  1
  C  235  1  0.38055500  0.11649700  0.48916000  1
  C  236  1  0.40613700  0.12149700  0.48661800  1
  C  237  1  0.41189500  0.12139200  0.46903500  1
  C  238  1  0.41304000  0.09929500  0.42184700  1
  C  239  1  0.42959600  0.10716900  0.41368900  1
  C  240  1  0.42288700  0.12637400  0.42045500  1
  C  241  1  0.40204400  0.13156400  0.43338800  1
  C  242  1  0.43408200  0.13954400  0.41575200  1
  C  243  1  0.42392300  0.15834100  0.42402600  1
  C  244  1  0.40251000  0.16438600  0.43696800  1
  C  245  1  0.39186100  0.15067000  0.44165400  1
  C  246  1  0.41744400  0.07992800  0.41759600  1
  C  247  1  0.43811600  0.06852200  0.40514100  1
  C  248  1  0.45388700  0.07718300  0.39694200  1
  C  249  1  0.44978900  0.09628800  0.40108600  1
  C  262  1  0.39354700  0.11424700  0.43474900  1
  C  263  1  0.39321100  0.18346900  0.44489800  1
  C  264  1  0.44405900  0.04979800  0.40167400  1
  C  265  1  0.42499700  0.12434100  0.50046200  1
  C  266  1  0.31215000  0.09844500  0.39263100  1
  C  271  1  0.07187700  0.53124600  0.86966200  1
  C  272  1  0.09647100  0.52818600  0.87512000  1
  C  273  1  0.11192300  0.54426100  0.88055600  1
  C  274  1  0.09813900  0.55780300  0.87785600  1
  C  275  1  0.11144400  0.57455000  0.88056500  1
  C  276  1  0.13786700  0.57797100  0.88681300  1
  C  277  1  0.14936300  0.56531500  0.89228500  1
  C  278  1  0.13704500  0.54807000  0.88845300  1
  C  279  1  0.10304400  0.51100000  0.87483900  1
  C  280  1  0.08403200  0.49673000  0.86970500  1
  C  281  1  0.05836000  0.49930000  0.86488200  1
  C  282  1  0.05254900  0.51682400  0.86488900  1
  C  283  1  0.05118900  0.56383900  0.88693800  1
  C  284  1  0.03433200  0.57184500  0.87909000  1
  C  285  1  0.04103200  0.56526700  0.85992400  1
  C  286  1  0.06209200  0.55251200  0.85468200  1
  C  287  1  0.02969300  0.57005900  0.84686500  1
  C  288  1  0.03994700  0.56208800  0.82812600  1
  C  289  1  0.06160500  0.54937000  0.82203300  1
  C  290  1  0.07239100  0.54457500  0.83563600  1
  C  291  1  0.04701100  0.56808100  0.90632700  1
  C  292  1  0.02621500  0.58034500  0.91776900  1
  C  293  1  0.01006600  0.58833400  0.90908900  1
  C  294  1  0.01398400  0.58423800  0.88998700  1
  C  307  1  0.07073600  0.55110300  0.87194900  1
  C  308  1  0.07097500  0.54174400  0.80300100  1
  C  309  1  0.02074000  0.58402700  0.93664200  1
  C  310  1  0.03946400  0.48555600  0.86227700  1
  C  311  1  0.15160300  0.59378400  0.88833900  1
  C  316  1  0.07187700  0.11745100  0.62909800  1
  C  317  1  0.09647500  0.11200100  0.62058200  1
  C  318  1  0.11194100  0.10658000  0.63122700  1
  C  319  1  0.09813500  0.10922700  0.64744300  1
  C  320  1  0.11143800  0.10650100  0.66147100  1
  C  321  1  0.13786100  0.10024800  0.65863700  1
  C  322  1  0.14934900  0.09478300  0.64050900  1
  C  323  1  0.13704100  0.09864500  0.62711300  1
  C  324  1  0.10305000  0.11229000  0.60368300  1
  C  325  1  0.08402000  0.11738500  0.59452500  1
  C  326  1  0.05835400  0.12222300  0.60192300  1
  C  327  1  0.05254300  0.12220100  0.61943400  1
  C  328  1  0.05117900  0.10016400  0.64440100  1
  C  329  1  0.03431300  0.10801500  0.66025000  1
  C  330  1  0.04101800  0.12718100  0.67284300  1
  C  331  1  0.06211500  0.13240800  0.66535200  1
  C  332  1  0.02965800  0.14024800  0.69068400  1
  C  333  1  0.03991600  0.15898600  0.70145200  1
  C  334  1  0.06158900  0.16507100  0.69483300  1
  C  335  1  0.07238100  0.15146600  0.67643800  1
  C  336  1  0.04700400  0.08077600  0.62925400  1
  C  337  1  0.02621100  0.06933100  0.63007800  1
  C  338  1  0.01005400  0.07801400  0.64674000  1
  C  339  1  0.01395100  0.09712400  0.66173700  1
  C  352  1  0.07073800  0.11515000  0.64666100  1
  C  353  1  0.07095900  0.18410200  0.70623900  1
  C  354  1  0.02075100  0.05045200  0.61489200  1
  C  355  1  0.03946000  0.12481100  0.59077100  1
  C  356  1  0.15159700  0.09870500  0.67291200  1
  C  361  1  0.07188100  0.35801300  0.45584600  1
  C  362  1  0.09648000  0.36652300  0.45891300  1
  C  363  1  0.11195200  0.35586900  0.44285400  1
  C  364  1  0.09815000  0.33964400  0.42929400  1
  C  365  1  0.11144800  0.32561700  0.41253800  1
  C  366  1  0.13786900  0.32844700  0.40911400  1
  C  367  1  0.14935700  0.34657800  0.42177100  1
  C  368  1  0.13705300  0.35997600  0.43902900  1
  C  369  1  0.10305700  0.38342200  0.47610400  1
  C  370  1  0.08402600  0.39257700  0.49035500  1
  C  371  1  0.05836000  0.38517800  0.48779600  1
  C  372  1  0.05254900  0.36766900  0.47026100  1
  C  373  1  0.05120500  0.34269400  0.42324800  1
  C  374  1  0.03436100  0.32683300  0.41522800  1
  C  375  1  0.04104700  0.31424900  0.42181600  1
  C  376  1  0.06209700  0.32176500  0.43457900  1
  C  377  1  0.02970800  0.29639500  0.41701900  1
  C  378  1  0.03995500  0.28563100  0.42499700  1
  C  379  1  0.06160500  0.29225900  0.43772200  1
  C  380  1  0.07239500  0.31065700  0.44251700  1
  C  381  1  0.04702300  0.35784300  0.41901100  1
  C  382  1  0.02624200  0.35701500  0.40673400  1
  C  383  1  0.01009100  0.34034800  0.39874700  1
  C  384  1  0.01400500  0.32534100  0.40284200  1
  C  397  1  0.07074600  0.34044100  0.43598900  1
  C  398  1  0.07096900  0.28085500  0.44535200  1
  C  399  1  0.02075700  0.37221200  0.40306100  1
  C  400  1  0.03946600  0.39632500  0.50153900  1
  C  401  1  0.15159600  0.31417700  0.39328500  1
  C  406  1  0.57188800  0.47323600  0.10011700  1
  C  407  1  0.59645400  0.47626800  0.09459300  1
  C  408  1  0.61190900  0.46019300  0.08915200  1
  C  409  1  0.59813200  0.44665400  0.09186500  1
  C  410  1  0.61144000  0.42990900  0.08915500  1
  C  411  1  0.63785900  0.42648400  0.08289400  1
  C  412  1  0.64934500  0.43913600  0.07741400  1
  C  413  1  0.63702100  0.45637800  0.08124200  1
  C  414  1  0.60301800  0.49344100  0.09484300  1
  C  415  1  0.58399600  0.50770400  0.09996100  1
  C  416  1  0.55834000  0.50515400  0.10482600  1
  C  417  1  0.55253400  0.48762600  0.10481500  1
  C  418  1  0.55117300  0.44063900  0.08280100  1
  C  419  1  0.53431800  0.43263200  0.09064800  1
  C  420  1  0.54102900  0.43919700  0.10981200  1
  C  421  1  0.56209800  0.45194200  0.11505100  1
  C  422  1  0.52968400  0.43440800  0.12287200  1
  C  423  1  0.53995400  0.44236800  0.14160700  1
  C  424  1  0.56162500  0.45507200  0.14769200  1
  C  425  1  0.57240900  0.45987000  0.13409200  1
  C  426  1  0.54699500  0.43640300  0.06341600  1
  C  427  1  0.52621000  0.42412600  0.05196700  1
  C  428  1  0.51005600  0.41614500  0.06064900  1
  C  429  1  0.51395600  0.42025200  0.07975600  1
  C  442  1  0.57073700  0.45336100  0.09778800  1
  C  443  1  0.57100900  0.46269000  0.16671900  1
  C  444  1  0.52073900  0.42044100  0.03309200  1
  C  445  1  0.53944800  0.51888700  0.10740500  1
  C  446  1  0.65160100  0.41067300  0.08136700  1
  C  451  1  0.57187400  0.88701300  0.34062400  1
  C  452  1  0.59647000  0.89246300  0.34913900  1
  C  453  1  0.61193600  0.89788400  0.33849600  1
  C  454  1  0.59813600  0.89522700  0.32227400  1
  C  455  1  0.61143400  0.89796900  0.30825400  1
  C  456  1  0.63785700  0.90422000  0.31108700  1
  C  457  1  0.64934300  0.90968600  0.32921700  1
  C  458  1  0.63703200  0.90582500  0.34261200  1
  C  459  1  0.60304300  0.89217400  0.36604000  1
  C  460  1  0.58402000  0.88705900  0.37518400  1
  C  461  1  0.55835300  0.88221900  0.36778400  1
  C  462  1  0.55254200  0.88224700  0.35027700  1
  C  463  1  0.55117100  0.90429600  0.32532300  1
  C  464  1  0.53433300  0.89645600  0.30945800  1
  C  465  1  0.54103100  0.87728800  0.29687000  1
  C  466  1  0.56211800  0.87205600  0.30436500  1
  C  467  1  0.52967400  0.86422300  0.27902500  1
  C  468  1  0.53992300  0.84548000  0.26826200  1
  C  469  1  0.56158300  0.83938900  0.27488700  1
  C  470  1  0.57237800  0.85299500  0.29328100  1
  C  471  1  0.54701000  0.92368900  0.34046200  1
  C  472  1  0.52622000  0.93513500  0.33963900  1
  C  473  1  0.51006700  0.92645400  0.32297300  1
  C  474  1  0.51397200  0.90734700  0.30797200  1
  C  487  1  0.57073700  0.88931100  0.32305900  1
  C  488  1  0.57093900  0.82035300  0.26348600  1
  C  489  1  0.52075400  0.95401100  0.35482800  1
  C  490  1  0.53946000  0.87962400  0.37893200  1
  C  491  1  0.65159100  0.90577000  0.29681500  1
  C  496  1  0.57187400  0.64643500  0.51387100  1
  C  497  1  0.59647000  0.63792000  0.51081100  1
  C  498  1  0.61192600  0.64856400  0.52688300  1
  C  499  1  0.59814000  0.66480600  0.54042700  1
  C  500  1  0.61144500  0.67884600  0.55717100  1
  C  501  1  0.63787200  0.67602100  0.56059000  1
  C  502  1  0.64936200  0.65789000  0.54793900  1
  C  503  1  0.63705200  0.64448200  0.53068900  1
  C  504  1  0.60304900  0.62102000  0.49362400  1
  C  505  1  0.58402500  0.61186600  0.47936600  1
  C  506  1  0.55835900  0.61926600  0.48192500  1
  C  507  1  0.55254600  0.63678300  0.49945100  1
  C  508  1  0.55119200  0.66175800  0.54646800  1
  C  509  1  0.53432900  0.67760800  0.55446900  1
  C  510  1  0.54102100  0.69019200  0.54788200  1
  C  511  1  0.56208500  0.68268300  0.53513300  1
  C  512  1  0.52968400  0.70804600  0.55268000  1
  C  513  1  0.53993900  0.71881500  0.54471000  1
  C  514  1  0.56159600  0.71219100  0.53199400  1
  C  515  1  0.57238600  0.69379400  0.52719800  1
  C  516  1  0.54701800  0.64661200  0.55071000  1
  C  517  1  0.52623400  0.64743900  0.56298500  1
  C  518  1  0.51008500  0.66410700  0.57097400  1
  C  519  1  0.51398500  0.67910500  0.56686400  1
  C  532  1  0.57073500  0.66401000  0.53372700  1
  C  533  1  0.57096800  0.72360000  0.52437100  1
  C  534  1  0.52076400  0.63224900  0.56667000  1
  C  535  1  0.53946500  0.60813100  0.46817800  1
  C  536  1  0.65160100  0.69030100  0.57641200  1
  C  541  1  0.06333700  0.35776100  0.86860200  1
  C  542  1  0.08602000  0.36859100  0.87206400  1
  C  543  1  0.10572600  0.35989100  0.87689400  1
  C  544  1  0.09608100  0.34347800  0.87690300  1
  C  545  1  0.11358600  0.33156700  0.88008200  1
  C  546  1  0.14057500  0.33615900  0.88329700  1
  C  547  1  0.14899500  0.35348100  0.88400100  1
  C  548  1  0.13191300  0.36525000  0.88073700  1
  C  549  1  0.08658700  0.38531400  0.87037300  1
  C  550  1  0.06374400  0.39141200  0.86532500  1
  C  551  1  0.04022300  0.38094200  0.86174100  1
  C  552  1  0.04046700  0.36396900  0.86349000  1
  C  553  1  0.05028500  0.34230200  0.88769100  1
  C  554  1  0.03562000  0.32532600  0.88043400  1
  C  555  1  0.04202300  0.31299800  0.86112800  1
  C  556  1  0.06077600  0.32175500  0.85532900  1
  C  557  1  0.03175800  0.29469800  0.84814700  1
  C  558  1  0.04084000  0.28483800  0.82899300  1
  C  559  1  0.06023500  0.29283600  0.82238500  1
  C  560  1  0.06986900  0.31164500  0.83588800  1
  C  561  1  0.04521100  0.35765100  0.90680800  1
  C  562  1  0.02584700  0.35587000  0.91865900  1
  C  563  1  0.01205400  0.33809200  0.91068000  1
  C  564  1  0.01676700  0.32291000  0.89177300  1
  C  577  1  0.06772800  0.34121600  0.87208900  1
  C  578  1  0.06873100  0.28232800  0.80304600  1
  C  579  1  0.01913600  0.37128600  0.93709600  1
  C  580  1  0.01702900  0.38691900  0.85710300  1
  C  581  1  0.15871000  0.32411400  0.88536600  1
  C  586  1  0.06333500  0.53045700  0.62931800  1
  C  587  1  0.08602400  0.52307500  0.61849800  1
  C  588  1  0.10573000  0.53660700  0.62718700  1
  C  589  1  0.09610400  0.55300700  0.64362800  1
  C  590  1  0.11359300  0.56812600  0.65550600  1
  C  591  1  0.14058500  0.56674100  0.65091800  1
  C  592  1  0.14900800  0.55011000  0.63360700  1
  C  593  1  0.13192000  0.53508300  0.62183400  1
  C  594  1  0.08658300  0.50465800  0.60177600  1
  C  595  1  0.06373800  0.49351500  0.59568300  1
  C  596  1  0.04022500  0.50040100  0.60616300  1
  C  597  1  0.04047300  0.51912800  0.62313300  1
  C  598  1  0.05033000  0.56501300  0.64479900  1
  C  599  1  0.03569200  0.57475800  0.66178900  1
  C  600  1  0.04205400  0.56775200  0.67410100  1
  C  601  1  0.06078000  0.55317500  0.66533400  1
  C  602  1  0.03179300  0.57307700  0.69240300  1
  C  603  1  0.04084500  0.56376600  0.70225400  1
  C  604  1  0.06021400  0.54914000  0.69424600  1
  C  605  1  0.06985000  0.54383100  0.67543800  1
  C  606  1  0.04524600  0.56877800  0.62944900  1
  C  607  1  0.02586400  0.58239500  0.63122200  1
  C  608  1  0.01208300  0.59220300  0.64900400  1
  C  609  1  0.01681400  0.58849400  0.66419200  1
  C  622  1  0.06774200  0.55047900  0.64587600  1
  C  623  1  0.06869000  0.54029800  0.70474800  1
  C  624  1  0.01915100  0.58540800  0.61580200  1
  C  625  1  0.01703100  0.48978800  0.60019400  1
  C  626  1  0.15872000  0.58085900  0.66295600  1
  C  631  1  0.06333100  0.11845900  0.45663700  1
  C  632  1  0.08602000  0.11502600  0.46402100  1
  C  633  1  0.10573200  0.11020400  0.45049600  1
  C  634  1  0.09609800  0.11021800  0.43408400  1
  C  635  1  0.11358900  0.10699300  0.41897300  1
  C  636  1  0.14057700  0.10376900  0.42034600  1
  C  637  1  0.14899600  0.10307700  0.43697100  1
  C  638  1  0.13191700  0.10635300  0.45200900  1
  C  639  1  0.08658700  0.11672600  0.48243900  1
  C  640  1  0.06374200  0.12177100  0.49358000  1
  C  641  1  0.04022100  0.12535000  0.48669000  1
  C  642  1  0.04046700  0.12359900  0.46796600  1
  C  643  1  0.05031600  0.09938600  0.42208400  1
  C  644  1  0.03565700  0.10663800  0.41235800  1
  C  645  1  0.04204000  0.12595000  0.41934600  1
  C  646  1  0.06077300  0.13175800  0.43392100  1
  C  647  1  0.03178600  0.13892500  0.41401900  1
  C  648  1  0.04084700  0.15808600  0.42332400  1
  C  649  1  0.06021800  0.16470100  0.43794700  1
  C  650  1  0.06985000  0.15120300  0.44325900  1
  C  651  1  0.04525600  0.08026500  0.41830800  1
  C  652  1  0.02587800  0.06841900  0.40468800  1
  C  653  1  0.01209900  0.07639200  0.39487600  1
  C  654  1  0.01683500  0.09528600  0.39857900  1
  C  667  1  0.06773400  0.11499500  0.43661500  1
  C  668  1  0.06869600  0.18404800  0.44679100  1
  C  669  1  0.01916700  0.04998500  0.40167300  1
  C  670  1  0.01702500  0.12999100  0.49730400  1
  C  671  1  0.15871000  0.10168200  0.40622500  1
  C  676  1  0.56333800  0.64668200  0.10109500  1
  C  677  1  0.58602700  0.63586300  0.09765600  1
  C  678  1  0.60572900  0.64455400  0.09281200  1
  C  679  1  0.59609200  0.66097300  0.09281300  1
  C  680  1  0.61359600  0.67288200  0.08963200  1
  C  681  1  0.64059000  0.66830100  0.08643700  1
  C  682  1  0.64901500  0.65099300  0.08576200  1
  C  683  1  0.63192700  0.63921500  0.08900700  1
  C  684  1  0.58659300  0.61914900  0.09936200  1
  C  685  1  0.56374700  0.61304900  0.10440100  1
  C  686  1  0.54023000  0.62352300  0.10799000  1
  C  687  1  0.54047600  0.64049300  0.10623500  1
  C  688  1  0.55030000  0.66215100  0.08201900  1
  C  689  1  0.53563100  0.67912700  0.08927600  1
  C  690  1  0.54203200  0.69145500  0.10858400  1
  C  691  1  0.56078300  0.68269600  0.11438400  1
  C  692  1  0.53176900  0.70975400  0.12156300  1
  C  693  1  0.54084600  0.71961300  0.14071800  1
  C  694  1  0.56023800  0.71161300  0.14732700  1
  C  695  1  0.56987200  0.69280400  0.13382500  1
  C  696  1  0.54523000  0.64680400  0.06290100  1
  C  697  1  0.52586100  0.64858100  0.05105100  1
  C  698  1  0.51207300  0.66636200  0.05902800  1
  C  699  1  0.51678200  0.68154200  0.07793400  1
  C  712  1  0.56773700  0.66323500  0.09762200  1
  C  713  1  0.56872600  0.72211900  0.16666800  1
  C  714  1  0.51917400  0.63316900  0.03260900  1
  C  715  1  0.51703000  0.61754100  0.11261700  1
  C  716  1  0.65872500  0.68034500  0.08436500  1
  C  721  1  0.56333200  0.47400300  0.34040600  1
  C  722  1  0.58602100  0.48138700  0.35122500  1
  C  723  1  0.60572700  0.46785400  0.34253600  1
  C  724  1  0.59609900  0.45144900  0.32609900  1
  C  725  1  0.61359400  0.43634200  0.31421000  1
  C  726  1  0.64058200  0.43771900  0.31880200  1
  C  727  1  0.64900700  0.45435400  0.33611000  1
  C  728  1  0.63191800  0.46937800  0.34788800  1
  C  729  1  0.58658400  0.49980500  0.36794300  1
  C  730  1  0.56373700  0.51094600  0.37403800  1
  C  731  1  0.54022400  0.50406000  0.36355900  1
  C  732  1  0.54047000  0.48533300  0.34659100  1
  C  733  1  0.55032300  0.43944700  0.32492700  1
  C  734  1  0.53569100  0.42969800  0.30793600  1
  C  735  1  0.54204700  0.43670600  0.29562500  1
  C  736  1  0.56077200  0.45128500  0.30439200  1
  C  737  1  0.53178300  0.43138200  0.27732500  1
  C  738  1  0.54083300  0.44069400  0.26747300  1
  C  739  1  0.56020200  0.45531900  0.27548000  1
  C  740  1  0.56984100  0.46062700  0.29428700  1
  C  741  1  0.54524900  0.43568200  0.34027700  1
  C  742  1  0.52587300  0.42206100  0.33850400  1
  C  743  1  0.51207700  0.41226100  0.32072600  1
  C  744  1  0.51681900  0.41595800  0.30553000  1
  C  757  1  0.56773700  0.45398100  0.32385000  1
  C  758  1  0.56867800  0.46416000  0.26497500  1
  C  759  1  0.51914600  0.41905700  0.35392700  1
  C  760  1  0.51703000  0.51467600  0.36952800  1
  C  761  1  0.65871700  0.42359900  0.30676300  1
  C  766  1  0.56334000  0.88597200  0.51307300  1
  C  767  1  0.58602300  0.88943400  0.50570200  1
  C  768  1  0.60573300  0.89425700  0.51922800  1
  C  769  1  0.59609900  0.89423700  0.53563700  1
  C  770  1  0.61359200  0.89746300  0.55074900  1
  C  771  1  0.64058000  0.90068800  0.54937500  1
  C  772  1  0.64900000  0.90137900  0.53274900  1
  C  773  1  0.63191600  0.89811100  0.51771500  1
  C  774  1  0.58658800  0.88774000  0.48728700  1
  C  775  1  0.56373900  0.88270300  0.47614800  1
  C  776  1  0.54022200  0.87911900  0.48303500  1
  C  777  1  0.54046800  0.88086500  0.50175700  1
  C  778  1  0.55031200  0.90506400  0.54762700  1
  C  779  1  0.53564600  0.89781100  0.55735100  1
  C  780  1  0.54203700  0.87850100  0.55036900  1
  C  781  1  0.56077800  0.87269500  0.53580200  1
  C  782  1  0.53177700  0.86552400  0.55569300  1
  C  783  1  0.54084300  0.84636500  0.54639200  1
  C  784  1  0.56022900  0.83975400  0.53178000  1
  C  785  1  0.56986300  0.85325100  0.52646800  1
  C  786  1  0.54524900  0.92418400  0.55140200  1
  C  787  1  0.52588300  0.93603600  0.56503000  1
  C  788  1  0.51209200  0.92806000  0.57483400  1
  C  789  1  0.51680300  0.90915400  0.57111100  1
  C  802  1  0.56773700  0.88945600  0.53310300  1
  C  803  1  0.56871100  0.82041000  0.52294100  1
  C  804  1  0.51916200  0.95446900  0.56804300  1
  C  805  1  0.51702500  0.87448500  0.47242300  1
  C  806  1  0.65871500  0.90277400  0.56349500  1
  C  811  1  0.89997600  0.47523600  0.10208100  1
  C  812  1  0.87725000  0.48262700  0.09871000  1
  C  813  1  0.85758200  0.46905600  0.09384900  1
  C  814  1  0.86730800  0.45261200  0.09375800  1
  C  815  1  0.84993100  0.43739200  0.09036800  1
  C  816  1  0.82294000  0.43869900  0.08711800  1
  C  817  1  0.81439900  0.45538500  0.08658700  1
  C  818  1  0.83138200  0.47051800  0.08999600  1
  C  819  1  0.87670200  0.50101600  0.10033800  1
  C  820  1  0.89960400  0.51209300  0.10520800  1
  C  821  1  0.92315800  0.50517400  0.10870700  1
  C  822  1  0.92288300  0.48650200  0.10706700  1
  C  823  1  0.91314600  0.44080500  0.08287200  1
  C  824  1  0.92806100  0.43113500  0.09005300  1
  C  825  1  0.92173100  0.43796800  0.10934000  1
  C  826  1  0.90275500  0.45238300  0.11521800  1
  C  827  1  0.93216500  0.43256000  0.12220400  1
  C  828  1  0.92302700  0.44161300  0.14133300  1
  C  829  1  0.90339900  0.45605300  0.14802200  1
  C  830  1  0.89360900  0.46147200  0.13463900  1
  C  831  1  0.91792300  0.43703600  0.06371700  1
  C  832  1  0.93741400  0.42357400  0.05181100  1
  C  833  1  0.95159800  0.41393000  0.05978800  1
  C  834  1  0.94709600  0.41758800  0.07868800  1
  C  847  1  0.89566100  0.45518100  0.09853400  1
  C  848  1  0.89485200  0.46461600  0.16733300  1
  C  849  1  0.94359400  0.42037000  0.03321300  1
  C  850  1  0.94644800  0.51565000  0.11307700  1
  C  851  1  0.80493000  0.42443800  0.08484400  1
  C  856  1  0.89996800  0.88502200  0.34065200  1
  C  857  1  0.87723800  0.88837800  0.35140700  1
  C  858  1  0.85756100  0.89321500  0.34268400  1
  C  859  1  0.86728800  0.89332000  0.32633900  1
  C  860  1  0.84990600  0.89670600  0.31450800  1
  C  861  1  0.82291900  0.89996500  0.31907200  1
  C  862  1  0.81438300  0.90050500  0.33629400  1
  C  863  1  0.83136800  0.89709200  0.34801600  1
  C  864  1  0.87669000  0.88674500  0.36816400  1
  C  865  1  0.89959900  0.88189400  0.37438100  1
  C  866  1  0.92315800  0.87841300  0.36397300  1
  C  867  1  0.92288100  0.88005000  0.34693800  1
  C  868  1  0.91309300  0.90423600  0.32541200  1
  C  869  1  0.92808000  0.89703000  0.30859200  1
  C  870  1  0.92172500  0.87775100  0.29612400  1
  C  871  1  0.90275000  0.87187200  0.30466100  1
  C  872  1  0.93219400  0.86487600  0.27786900  1
  C  873  1  0.92305500  0.84574700  0.26779300  1
  C  874  1  0.90340800  0.83906500  0.27553500  1
  C  875  1  0.89360500  0.85245000  0.29433000  1
  C  876  1  0.91792900  0.92336900  0.34081600  1
  C  877  1  0.93742300  0.93527500  0.33926300  1
  C  878  1  0.95160000  0.92729900  0.32163800  1
  C  879  1  0.94709200  0.90840000  0.30639500  1
  C  892  1  0.89564400  0.88856000  0.32413700  1
  C  893  1  0.89485400  0.81975600  0.26478600  1
  C  894  1  0.94362200  0.95386600  0.35466000  1
  C  895  1  0.94645100  0.87405000  0.37008300  1
  C  896  1  0.80490700  0.90224000  0.30708700  1
  C  901  1  0.89996900  0.64645400  0.51185300  1
  C  902  1  0.87724700  0.63568100  0.50447100  1
  C  903  1  0.85757600  0.64440200  0.51803600  1
  C  904  1  0.86731000  0.66074000  0.53449100  1
  C  905  1  0.84992100  0.67259500  0.54969000  1
  C  906  1  0.82293300  0.66803200  0.54838800  1
  C  907  1  0.81439800  0.65079900  0.53171600  1
  C  908  1  0.83138000  0.63907800  0.51658000  1
  C  909  1  0.87670200  0.61890900  0.48609000  1
  C  910  1  0.89960400  0.61269500  0.47501600  1
  C  911  1  0.92316600  0.62310100  0.48193800  1
  C  912  1  0.92288900  0.64014300  0.50060400  1
  C  913  1  0.91313100  0.66167100  0.54629800  1
  C  914  1  0.92812500  0.67848700  0.55590500  1
  C  915  1  0.92176400  0.69095500  0.54909500  1
  C  916  1  0.90275500  0.68243300  0.53470500  1
  C  917  1  0.93221300  0.70922100  0.55448900  1
  C  918  1  0.92304900  0.71930500  0.54545200  1
  C  919  1  0.90338800  0.71156600  0.53103600  1
  C  920  1  0.89359100  0.69277000  0.52562700  1
  C  921  1  0.91795000  0.64626900  0.55003500  1
  C  922  1  0.93744800  0.64782000  0.56348900  1
  C  923  1  0.95164800  0.66543500  0.57312100  1
  C  924  1  0.94715800  0.68067200  0.56945400  1
  C  937  1  0.89565800  0.66295300  0.53191300  1
  C  938  1  0.89482400  0.72231800  0.52248200  1
  C  939  1  0.94361600  0.63243000  0.56670400  1
  C  940  1  0.94646100  0.61698300  0.47146900  1
  C  941  1  0.80491900  0.68002200  0.56264100  1
  C  946  1  0.39998200  0.52923000  0.86764800  1
  C  947  1  0.37725400  0.52183700  0.87101500  1
  C  948  1  0.35758100  0.53540200  0.87586500  1
  C  949  1  0.36730200  0.55183900  0.87593900  1
  C  950  1  0.34992800  0.56706500  0.87934000  1
  C  951  1  0.32293600  0.56575400  0.88258400  1
  C  952  1  0.31439600  0.54907200  0.88312300  1
  C  953  1  0.33138100  0.53394100  0.87971900  1
  C  954  1  0.37670500  0.50344600  0.86938400  1
  C  955  1  0.39961000  0.49237300  0.86452200  1
  C  956  1  0.42316400  0.49929300  0.86102600  1
  C  957  1  0.42288900  0.51796600  0.86266700  1
  C  958  1  0.41310900  0.56368100  0.88685800  1
  C  959  1  0.42808700  0.57330400  0.87965700  1
  C  960  1  0.42176600  0.56646500  0.86036600  1
  C  961  1  0.40277000  0.55206600  0.85449400  1
  C  962  1  0.43222400  0.57185700  0.84749600  1
  C  963  1  0.42308100  0.56280800  0.82836800  1
  C  964  1  0.40342900  0.54838600  0.82168800  1
  C  965  1  0.39362200  0.54297800  0.83507300  1
  C  966  1  0.41793300  0.56741700  0.90599700  1
  C  967  1  0.43744900  0.58085500  0.91789200  1
  C  968  1  0.45165500  0.59048400  0.90990900  1
  C  969  1  0.44715100  0.58682900  0.89101000  1
  C  982  1  0.39565900  0.54928000  0.87118200  1
  C  983  1  0.39485600  0.53984100  0.80238400  1
  C  984  1  0.44363500  0.58405500  0.93648900  1
  C  985  1  0.44645300  0.48881400  0.85665200  1
  C  986  1  0.30492700  0.58001400  0.88486000  1
  C  991  1  0.39997500  0.11943600  0.62906800  1
  C  992  1  0.37724100  0.11608100  0.61831400  1
  C  993  1  0.35756600  0.11124800  0.62704000  1
  C  994  1  0.36729500  0.11114400  0.64338600  1
  C  995  1  0.34991600  0.10776000  0.65522000  1
  C  996  1  0.32292900  0.10449800  0.65065500  1
  C  997  1  0.31439100  0.10395600  0.63343300  1
  C  998  1  0.33137000  0.10738200  0.62171800  1
  C  999  1  0.37669400  0.11770600  0.60155100  1
  C  1000  1  0.39960000  0.12255900  0.59533500  1
  C  1001  1  0.42316200  0.12603500  0.60573800  1
  C  1002  1  0.42288500  0.12440800  0.62277900  1
  C  1003  1  0.41310400  0.10022700  0.64430900  1
  C  1004  1  0.42810200  0.10743700  0.66112300  1
  C  1005  1  0.42176000  0.12672000  0.67358500  1
  C  1006  1  0.40276200  0.13259200  0.66505700  1
  C  1007  1  0.43220700  0.13959000  0.69185100  1
  C  1008  1  0.42305400  0.15871600  0.70193300  1
  C  1009  1  0.40340400  0.16539600  0.69419000  1
  C  1010  1  0.39360300  0.15201000  0.67539300  1
  C  1011  1  0.41792000  0.08108500  0.62891100  1
  C  1012  1  0.43743400  0.06918900  0.63045800  1
  C  1013  1  0.45163000  0.07717100  0.64807300  1
  C  1014  1  0.44711800  0.09606900  0.66331900  1
  C  1027  1  0.39565300  0.11590200  0.64558300  1
  C  1028  1  0.39483500  0.18470100  0.70494400  1
  C  1029  1  0.44361500  0.05059000  0.61506600  1
  C  1030  1  0.44645500  0.13038900  0.59962300  1
  C  1031  1  0.30492000  0.10221500  0.66263600  1
  C  1036  1  0.39996100  0.35802900  0.45786900  1
  C  1037  1  0.37723100  0.36878500  0.46526200  1
  C  1038  1  0.35756200  0.36006900  0.45169400  1
  C  1039  1  0.36729600  0.34373000  0.43524100  1
  C  1040  1  0.34991000  0.33187600  0.42003800  1
  C  1041  1  0.32291900  0.33642500  0.42134700  1
  C  1042  1  0.31437300  0.35364300  0.43803200  1
  C  1043  1  0.33135600  0.36537200  0.45316300  1
  C  1044  1  0.37667800  0.38554800  0.48365000  1
  C  1045  1  0.39958700  0.39177100  0.49471900  1
  C  1046  1  0.42314500  0.38136200  0.48779800  1
  C  1047  1  0.42287100  0.36432300  0.46913000  1
  C  1048  1  0.41311300  0.34279500  0.42342500  1
  C  1049  1  0.42810200  0.32597600  0.41381600  1
  C  1050  1  0.42174400  0.31351100  0.42063100  1
  C  1051  1  0.40274200  0.32203900  0.43502700  1
  C  1052  1  0.43218900  0.29524600  0.41523600  1
  C  1053  1  0.42303200  0.28516400  0.42427800  1
  C  1054  1  0.40337900  0.29290700  0.43869900  1
  C  1055  1  0.39358600  0.31170500  0.44411100  1
  C  1056  1  0.41793300  0.35819500  0.41968600  1
  C  1057  1  0.43743000  0.35664000  0.40622800  1
  C  1058  1  0.45162200  0.33902200  0.39659300  1
  C  1059  1  0.44713000  0.32378700  0.40026300  1
  C  1072  1  0.39564500  0.34151800  0.43781600  1
  C  1073  1  0.39481700  0.28215700  0.44725500  1
  C  1074  1  0.44360400  0.37202900  0.40301500  1
  C  1075  1  0.44644300  0.38749100  0.49826200  1
  C  1076  1  0.30491000  0.32443600  0.40708900  1
  C  1081  1  0.89303700  0.75776300  0.19316800  1
  C  1082  1  0.89384200  0.77596300  0.19414700  1
  C  1083  1  0.89413600  0.79349100  0.21228200  1
  C  1084  1  0.89351700  0.79329300  0.22990100  1
  C  1085  1  0.89232100  0.77510200  0.22891000  1
  C  1086  1  0.89214500  0.75763300  0.21084500  1
  C  1088  1  0.89641600  0.81155900  0.19578700  1
  C  1089  1  0.89568400  0.79433800  0.17776100  1
  C  1095  1  0.87167900  0.80050600  0.15536300  1
  C  1102  1  0.89293700  0.45498900  0.22932600  1
  C  1103  1  0.89377700  0.43776800  0.21112200  1
  C  1104  1  0.89408800  0.43837500  0.19359400  1
  C  1105  1  0.89349200  0.45619000  0.19379100  1
  C  1106  1  0.89232100  0.47339100  0.21198400  1
  C  1107  1  0.89212000  0.47279200  0.22945100  1
  C  1109  1  0.89637900  0.40381200  0.17552700  1
  C  1110  1  0.89562600  0.40300600  0.19274700  1
  C  1116  1  0.87163600  0.37443200  0.18656900  1
  C  1123  1  0.89301600  0.79392000  0.53207600  1
  C  1124  1  0.89381000  0.79295400  0.54930400  1
  C  1125  1  0.89408500  0.77482300  0.54870700  1
  C  1126  1  0.89345800  0.75719500  0.53089700  1
  C  1127  1  0.89234600  0.75818200  0.51369100  1
  C  1128  1  0.89216800  0.77624100  0.51427500  1
  C  1130  1  0.89635000  0.79133100  0.58327000  1
  C  1131  1  0.89563400  0.80935300  0.58406600  1
  C  1137  1  0.87164900  0.83177000  0.61263700  1
  C  1144  1  0.39303100  0.24669900  0.77655800  1
  C  1145  1  0.39381400  0.22850000  0.77558200  1
  C  1146  1  0.39408800  0.21097000  0.75744900  1
  C  1147  1  0.39345600  0.21115800  0.73982500  1
  C  1148  1  0.39231700  0.22935200  0.74081700  1
  C  1149  1  0.39215400  0.24682500  0.75888100  1
  C  1151  1  0.39636300  0.19290800  0.77395000  1
  C  1152  1  0.39564700  0.21013100  0.79197500  1
  C  1158  1  0.37166800  0.20397600  0.81439100  1
  C  1165  1  0.39293600  0.54947000  0.74039900  1
  C  1166  1  0.39373700  0.56669000  0.75860100  1
  C  1167  1  0.39402400  0.56608600  0.77613200  1
  C  1168  1  0.39341300  0.54827000  0.77593900  1
  C  1169  1  0.39234600  0.53106900  0.75774200  1
  C  1170  1  0.39216000  0.53166400  0.74027300  1
  C  1172  1  0.39628600  0.60065000  0.79419800  1
  C  1173  1  0.39556000  0.60145300  0.77697500  1
  C  1179  1  0.37156900  0.63002000  0.78313100  1
  C  1186  1  0.39304300  0.21054100  0.43764400  1
  C  1187  1  0.39384200  0.21151600  0.42042000  1
  C  1188  1  0.39412300  0.22965100  0.42102400  1
  C  1189  1  0.39349800  0.24727200  0.43883800  1
  C  1190  1  0.39231100  0.24628100  0.45603900  1
  C  1191  1  0.39214600  0.22821700  0.45544600  1
  C  1193  1  0.39640400  0.21315100  0.38646200  1
  C  1194  1  0.39568200  0.19512600  0.38566000  1
  C  1200  1  0.37168200  0.17272200  0.35709300  1
  C  1207  1  0.07087400  0.54929900  0.77615000  1
  C  1208  1  0.06999500  0.56659700  0.77531200  1
  C  1209  1  0.06962900  0.56612500  0.75724200  1
  C  1210  1  0.07022400  0.54838100  0.73955300  1
  C  1211  1  0.07148700  0.53110700  0.74040100  1
  C  1212  1  0.07175500  0.53156400  0.75839900  1
  C  1214  1  0.06729500  0.60068600  0.77392100  1
  C  1215  1  0.06811400  0.60136800  0.79188900  1
  C  1221  1  0.09203700  0.62999200  0.81428600  1
  C  1228  1  0.07091500  0.21094300  0.74064100  1
  C  1229  1  0.07005700  0.21177200  0.75877400  1
  C  1230  1  0.06970800  0.22984200  0.77637600  1
  C  1231  1  0.07032700  0.24753600  0.77633000  1
  C  1232  1  0.07149900  0.24669300  0.75820700  1
  C  1233  1  0.07171200  0.22869600  0.74066300  1
  C  1235  1  0.06738900  0.21315500  0.79425200  1
  C  1236  1  0.06819000  0.19519000  0.77696300  1
  C  1242  1  0.09210700  0.17277800  0.78317300  1
  C  1249  1  0.07087600  0.24644800  0.43779200  1
  C  1250  1  0.06999500  0.22831300  0.42049400  1
  C  1251  1  0.06962500  0.21071400  0.42096600  1
  C  1252  1  0.07022400  0.21076900  0.43871000  1
  C  1253  1  0.07149300  0.22889100  0.45598500  1
  C  1254  1  0.07174900  0.24643200  0.45552600  1
  C  1256  1  0.06728600  0.19283200  0.38640500  1
  C  1257  1  0.06810200  0.21011900  0.38572500  1
  C  1263  1  0.09203500  0.20389200  0.35710300  1
  C  1270  1  0.57097200  0.45514600  0.19356800  1
  C  1271  1  0.57005300  0.43785100  0.19441200  1
  C  1272  1  0.56965700  0.43832400  0.21248300  1
  C  1273  1  0.57023100  0.45607000  0.23017100  1
  C  1274  1  0.57147600  0.47334300  0.22932100  1
  C  1275  1  0.57176500  0.47288000  0.21132100  1
  C  1277  1  0.56731200  0.40376400  0.19580700  1
  C  1278  1  0.56815800  0.40307900  0.17783800  1
  C  1284  1  0.59208200  0.37445100  0.15545200  1
  C  1291  1  0.57089400  0.79350800  0.22908300  1
  C  1292  1  0.57002400  0.79268100  0.21095000  1
  C  1293  1  0.56967300  0.77461300  0.19334800  1
  C  1294  1  0.57028000  0.75691600  0.19338900  1
  C  1295  1  0.57146700  0.75776000  0.21151300  1
  C  1296  1  0.57172500  0.77575400  0.22905800  1
  C  1298  1  0.56734900  0.79130300  0.17547600  1
  C  1299  1  0.56815200  0.80926600  0.19276500  1
  C  1305  1  0.59206900  0.83167800  0.18655300  1
  C  1312  1  0.57088100  0.75800600  0.53193300  1
  C  1313  1  0.57002000  0.77614100  0.54923300  1
  C  1314  1  0.56966900  0.79374100  0.54876500  1
  C  1315  1  0.57028000  0.79369600  0.53102500  1
  C  1316  1  0.57149000  0.77557000  0.51374700  1
  C  1317  1  0.57173600  0.75802700  0.51420200  1
  C  1319  1  0.56733900  0.81161900  0.58332600  1
  C  1320  1  0.56814200  0.79433100  0.58400400  1
  C  1326  1  0.59205500  0.80054600  0.61262800  1
  C  1333  1  0.76226000  0.69044700  0.08384800  1
  C  1334  1  0.74323000  0.70131300  0.08055900  1
  C  1335  1  0.71615800  0.69787000  0.08123300  1
  C  1336  1  0.70771300  0.68337600  0.08528300  1
  C  1337  1  0.72677700  0.67331400  0.08950500  1
  C  1338  1  0.75342700  0.67700400  0.08915500  1
  C  1340  1  0.70653300  0.72358100  0.07506200  1
  C  1341  1  0.73318300  0.72720900  0.07449700  1
  C  1347  1  0.74075500  0.73969900  0.05274700  1
  C  1354  1  0.76226000  0.41301100  0.29666200  1
  C  1355  1  0.74323800  0.39885200  0.28578700  1
  C  1356  1  0.71616300  0.40295700  0.28923200  1
  C  1357  1  0.70770900  0.42149200  0.30374000  1
  C  1358  1  0.72676300  0.43578000  0.31381000  1
  C  1359  1  0.75341700  0.43175200  0.31011800  1
  C  1361  1  0.70655700  0.37107900  0.26350500  1
  C  1362  1  0.73320800  0.36690400  0.25986900  1
  C  1368  1  0.74073800  0.33265000  0.24735800  1
  C  1375  1  0.76225400  0.90326100  0.57408700  1
  C  1376  1  0.74323200  0.90654700  0.58824600  1
  C  1377  1  0.71615800  0.90588100  0.58413600  1
  C  1378  1  0.70770500  0.90184400  0.56559800  1
  C  1379  1  0.72676100  0.89762300  0.55131000  1
  C  1380  1  0.75341300  0.89796800  0.55534300  1
  C  1382  1  0.70654700  0.91205200  0.61602000  1
  C  1383  1  0.73319900  0.91259400  0.62019900  1
  C  1389  1  0.74071500  0.93431300  0.65445700  1
  C  1396  1  0.26225100  0.31400600  0.88584500  1
  C  1397  1  0.24322700  0.30314300  0.88914400  1
  C  1398  1  0.21615300  0.30658500  0.88847800  1
  C  1399  1  0.20770000  0.32108000  0.88443000  1
  C  1400  1  0.22675600  0.33114300  0.88020300  1
  C  1401  1  0.25340800  0.32744600  0.88053600  1
  C  1403  1  0.20654600  0.28088000  0.89466200  1
  C  1404  1  0.23319800  0.27725200  0.89521600  1
  C  1410  1  0.24077800  0.26476500  0.91697000  1
  C  1417  1  0.26226200  0.59143600  0.67306100  1
  C  1418  1  0.24324500  0.60559800  0.68393300  1
  C  1419  1  0.21616800  0.60149600  0.68048900  1
  C  1420  1  0.20771200  0.58296100  0.66598500  1
  C  1421  1  0.22676200  0.56867000  0.65591400  1
  C  1422  1  0.25341600  0.57269600  0.65960500  1
  C  1424  1  0.20656900  0.63338000  0.70620800  1
  C  1425  1  0.23322300  0.63755000  0.70984700  1
  C  1431  1  0.24075200  0.67180500  0.72236100  1
  C  1438  1  0.26224900  0.10119000  0.39563300  1
  C  1439  1  0.24322700  0.09790600  0.38147500  1
  C  1440  1  0.21615300  0.09856900  0.38558200  1
  C  1441  1  0.20770000  0.10261000  0.40412200  1
  C  1442  1  0.22675600  0.10683100  0.41841000  1
  C  1443  1  0.25340800  0.10648700  0.41437700  1
  C  1445  1  0.20654600  0.09240300  0.35369900  1
  C  1446  1  0.23319800  0.09186100  0.34952000  1
  C  1452  1  0.24079300  0.07014100  0.31527700  1
  C  1459  1  0.20144100  0.59091400  0.88554000  1
  C  1460  1  0.22051100  0.60508800  0.88898000  1
  C  1461  1  0.24757000  0.60091700  0.88825900  1
  C  1462  1  0.25594900  0.58229700  0.88401300  1
  C  1463  1  0.23685200  0.56799600  0.87960800  1
  C  1464  1  0.21022100  0.57209400  0.87999400  1
  C  1466  1  0.25729100  0.63288400  0.89472100  1
  C  1467  1  0.23065500  0.63712800  0.89531800  1
  C  1473  1  0.22329600  0.67139000  0.91718000  1
  C  1480  1  0.20143500  0.10151100  0.67284500  1
  C  1481  1  0.22050700  0.09808100  0.68358600  1
  C  1482  1  0.24756600  0.09880900  0.68013800  1
  C  1483  1  0.25594300  0.10304900  0.66575900  1
  C  1484  1  0.23684200  0.10743900  0.65585400  1
  C  1485  1  0.21021200  0.10705100  0.65956500  1
  C  1487  1  0.25729300  0.09236400  0.70565300  1
  C  1488  1  0.23065700  0.09176700  0.70930100  1
  C  1494  1  0.22336000  0.06992400  0.72173400  1
  C  1501  1  0.20142900  0.31423700  0.39615800  1
  C  1502  1  0.22050500  0.30349700  0.38198900  1
  C  1503  1  0.24756200  0.30694200  0.38617100  1
  C  1504  1  0.25593300  0.32130900  0.40479500  1
  C  1505  1  0.23683000  0.33121400  0.41908800  1
  C  1506  1  0.21020000  0.32750800  0.41498100  1
  C  1508  1  0.25729700  0.28143400  0.35420900  1
  C  1509  1  0.23066100  0.27779300  0.34995300  1
  C  1515  1  0.22334500  0.26539200  0.31568700  1
  C  1522  1  0.70144000  0.41354300  0.08415800  1
  C  1523  1  0.72051000  0.39936800  0.08072700  1
  C  1524  1  0.74756900  0.40353900  0.08144800  1
  C  1525  1  0.75595000  0.42215400  0.08568200  1
  C  1526  1  0.73685500  0.43645300  0.09007200  1
  C  1527  1  0.71022200  0.43235700  0.08968800  1
  C  1529  1  0.75728800  0.37157900  0.07500900  1
  C  1530  1  0.73065000  0.36734000  0.07442000  1
  C  1536  1  0.72336500  0.33306400  0.05255700  1
  C  1543  1  0.70142500  0.90295400  0.29687900  1
  C  1544  1  0.72050000  0.90637800  0.28613600  1
  C  1545  1  0.74755900  0.90564900  0.28958600  1
  C  1546  1  0.75593100  0.90140800  0.30396500  1
  C  1547  1  0.73682800  0.89702000  0.31386900  1
  C  1548  1  0.71019700  0.89741500  0.31015900  1
  C  1550  1  0.75729400  0.91210400  0.26407800  1
  C  1551  1  0.73065800  0.91269500  0.26042200  1
  C  1557  1  0.72337900  0.93453400  0.24798300  1
  C  1564  1  0.70143600  0.69023700  0.57354200  1
  C  1565  1  0.72050800  0.70097000  0.58771600  1
  C  1566  1  0.74756700  0.69752200  0.58354100  1
  C  1567  1  0.75594400  0.68315500  0.56491900  1
  C  1568  1  0.73684300  0.67325500  0.55062100  1
  C  1569  1  0.71021300  0.67697200  0.55472000  1
  C  1571  1  0.75729400  0.72301900  0.61551100  1
  C  1572  1  0.73065800  0.72666300  0.61976000  1
  C  1578  1  0.72332800  0.73905400  0.65402400  1
  C  1585  1  0.96834600  0.62537000  0.00268700  1
  C  1586  1  0.97277300  0.63494600  0.99205400  1
  C  1587  1  0.98551500  0.62543400  0.97377600  1
  C  1588  1  0.99485400  0.60626800  0.96585100  1
  C  1589  1  0.99057700  0.59677100  0.97657500  1
  C  1590  1  0.97756300  0.60614600  0.99464600  1
  C  1592  1  0.98052400  0.65389600  0.97123000  1
  C  1593  1  0.96791300  0.66354200  0.98936600  1
  C  1599  1  0.96462600  0.69570300  0.99097000  1
  C  1606  1  0.96830800  0.39691900  0.36174000  1
  C  1607  1  0.97275300  0.37671200  0.35215800  1
  C  1608  1  0.98550800  0.36794200  0.36166200  1
  C  1609  1  0.99486200  0.37918200  0.38082400  1
  C  1610  1  0.99060300  0.39940500  0.39031900  1
  C  1611  1  0.97757900  0.40810200  0.38094900  1
  C  1613  1  0.98051900  0.33693700  0.33319600  1
  C  1614  1  0.96789700  0.34542900  0.32355600  1
  C  1620  1  0.96461300  0.31487600  0.29139100  1
  C  1627  1  0.96834700  0.98441200  0.59018000  1
  C  1628  1  0.97278500  0.99503500  0.61038900  1
  C  1629  1  0.98553500  0.01331000  0.61915800  1
  C  1630  1  0.99488700  0.02123700  0.60792000  1
  C  1631  1  0.99058300  0.01052500  0.58770000  1
  C  1632  1  0.97756900  0.99245600  0.57900100  1
  C  1634  1  0.98054400  0.01584800  0.65016100  1
  C  1635  1  0.96792500  0.99771600  0.64167000  1
  C  1641  1  0.96462800  0.99610600  0.67222200  1
  C  1648  1  0.46835800  0.37909300  0.96704000  1
  C  1649  1  0.47279200  0.36951500  0.97766900  1
  C  1650  1  0.48553900  0.37902300  0.99594500  1
  C  1651  1  0.49488600  0.39818900  0.00387200  1
  C  1652  1  0.49058000  0.40769400  0.99315700  1
  C  1653  1  0.47756600  0.39832000  0.97508700  1
  C  1655  1  0.48054700  0.35056100  0.99849000  1
  C  1656  1  0.46793000  0.34091800  0.98035700  1
  C  1662  1  0.46463600  0.30875600  0.97875000  1
  C  1669  1  0.46831800  0.60754000  0.60798800  1
  C  1670  1  0.47277500  0.62774700  0.61757700  1
  C  1671  1  0.48553700  0.63651600  0.60807500  1
  C  1672  1  0.49490900  0.62527600  0.58891700  1
  C  1673  1  0.49060200  0.60505800  0.57940800  1
  C  1674  1  0.47757300  0.59636100  0.58877500  1
  C  1676  1  0.48054700  0.66751900  0.63654100  1
  C  1677  1  0.46791600  0.65902800  0.64617800  1
  C  1683  1  0.46461900  0.68958000  0.67834200  1
  C  1690  1  0.46836000  0.02005900  0.37954600  1
  C  1691  1  0.47278300  0.00942900  0.35933700  1
  C  1692  1  0.48552400  0.99115000  0.35056500  1
  C  1693  1  0.49486700  0.98322100  0.36180400  1
  C  1694  1  0.49059000  0.99394300  0.38202500  1
  C  1695  1  0.47757900  0.01201400  0.39072400  1
  C  1697  1  0.48052400  0.98860800  0.31956000  1
  C  1698  1  0.46791400  0.00674500  0.32805400  1
  C  1704  1  0.46461900  0.00835400  0.29750000  1
  C  1711  1  0.99543600  0.37880500  0.96703200  1
  C  1712  1  0.99106200  0.36921900  0.97765900  1
  C  1713  1  0.97833300  0.37872400  0.99593400  1
  C  1714  1  0.96904400  0.39790300  0.00386400  1
  C  1715  1  0.97328800  0.40741300  0.99315200  1
  C  1716  1  0.98626200  0.39803800  0.97507600  1
  C  1718  1  0.98332100  0.35025600  0.99847300  1
  C  1719  1  0.99592100  0.34061000  0.98033200  1
  C  1725  1  0.99922000  0.30844800  0.97872800  1
  C  1732  1  0.99545100  0.60782000  0.60827600  1
  C  1733  1  0.99105100  0.62803200  0.61786900  1
  C  1734  1  0.97830700  0.63679900  0.60836700  1
  C  1735  1  0.96901400  0.62555000  0.58918900  1
  C  1736  1  0.97330000  0.60533200  0.57966900  1
  C  1737  1  0.98627500  0.59663200  0.58904500  1
  C  1739  1  0.98328300  0.66780600  0.63683800  1
  C  1740  1  0.99590100  0.65931500  0.64647900  1
  C  1746  1  0.99920400  0.68987400  0.67864200  1
  C  1753  1  0.99545700  0.02005100  0.37926000  1
  C  1754  1  0.99106900  0.00942400  0.35904800  1
  C  1755  1  0.97833500  0.99115100  0.35028200  1
  C  1756  1  0.96905500  0.98322100  0.36153300  1
  C  1757  1  0.97331100  0.99393200  0.38175400  1
  C  1758  1  0.98628700  0.01200800  0.39045100  1
  C  1760  1  0.98330700  0.98861100  0.31927400  1
  C  1761  1  0.99591500  0.00674700  0.32776400  1
  C  1767  1  0.99920600  0.00835000  0.29720400  1
  C  1774  1  0.49550100  0.62563000  0.00266200  1
  C  1775  1  0.49109400  0.63522100  0.99204100  1
  C  1776  1  0.47835500  0.62571400  0.97376900  1
  C  1777  1  0.46906800  0.60653600  0.96584400  1
  C  1778  1  0.47331000  0.59703100  0.97656200  1
  C  1779  1  0.48629000  0.60641000  0.99463500  1
  C  1781  1  0.48331700  0.65418600  0.97123300  1
  C  1782  1  0.49592800  0.66383100  0.98936700  1
  C  1788  1  0.49920600  0.69599600  0.99097400  1
  C  1795  1  0.49545600  0.39663800  0.36145100  1
  C  1796  1  0.49106100  0.37642600  0.35185700  1
  C  1797  1  0.47831600  0.36765800  0.36135900  1
  C  1798  1  0.46902200  0.37890700  0.38053600  1
  C  1799  1  0.47329700  0.39912600  0.39005400  1
  C  1800  1  0.48627600  0.40782700  0.38068000  1
  C  1802  1  0.48329500  0.33665100  0.33288700  1
  C  1803  1  0.49591200  0.34514300  0.32324600  1
  C  1809  1  0.49921100  0.31458600  0.29108200  1
  C  1816  1  0.49545200  0.98440400  0.59045600  1
  C  1817  1  0.49106100  0.99502800  0.61066800  1
  C  1818  1  0.47832400  0.01330000  0.61943600  1
  C  1819  1  0.46903300  0.02123000  0.60818800  1
  C  1820  1  0.47331200  0.01052800  0.58796800  1
  C  1821  1  0.48628800  0.99245200  0.57926900  1
  C  1823  1  0.48329900  0.01583600  0.65044300  1
  C  1824  1  0.49591000  0.99770000  0.64195000  1
  C  1830  1  0.49920600  0.99609600  0.67250900  1
  C  1837  1  0.92887900  0.58225500  0.11406200  1
  C  1838  1  0.91980500  0.57865900  0.12871300  1
  C  1839  1  0.92683400  0.56143700  0.12881600  1
  C  1840  1  0.94233200  0.54721400  0.11381600  1
  C  1841  1  0.95181900  0.55110700  0.09950000  1
  C  1842  1  0.94481100  0.56813900  0.09938000  1
  C  1844  1  0.90349200  0.57249100  0.15835300  1
  C  1845  1  0.89617300  0.58947100  0.15828800  1
  C  1851  1  0.85362500  0.60019200  0.17244300  1
  C  1858  1  0.92882500  0.55141300  0.40485700  1
  C  1859  1  0.91978000  0.56966000  0.40844400  1
  C  1860  1  0.92681000  0.58697700  0.42567100  1
  C  1861  1  0.94227500  0.58619300  0.43990300  1
  C  1862  1  0.95180600  0.56798300  0.43598300  1
  C  1863  1  0.94479300  0.55083200  0.41894800  1
  C  1865  1  0.90350600  0.60547700  0.41461900  1
  C  1866  1  0.89619500  0.58843900  0.39763000  1
  C  1872  1  0.85364400  0.59187900  0.38691600  1
  C  1879  1  0.92883400  0.87302600  0.43566600  1
  C  1880  1  0.91977500  0.85837000  0.41741900  1
  C  1881  1  0.92680700  0.85827400  0.40010000  1
  C  1882  1  0.94230800  0.87327400  0.40088600  1
  C  1883  1  0.95182800  0.88757300  0.41909200  1
  C  1884  1  0.94481700  0.88769000  0.43624400  1
  C  1886  1  0.90345400  0.82874200  0.38161100  1
  C  1887  1  0.89613600  0.82880200  0.39865400  1
  C  1893  1  0.85358400  0.81465100  0.39521800  1
  C  1900  1  0.42883800  0.42223800  0.85568500  1
  C  1901  1  0.41978200  0.42581200  0.84101800  1
  C  1902  1  0.42682400  0.44303100  0.84091400  1
  C  1903  1  0.44232900  0.45725100  0.85591200  1
  C  1904  1  0.45182900  0.45335100  0.87022100  1
  C  1905  1  0.44480000  0.43632900  0.87035500  1
  C  1907  1  0.40349700  0.43197500  0.81137000  1
  C  1908  1  0.39616900  0.41499700  0.81143500  1
  C  1914  1  0.35362200  0.40427200  0.79728100  1
  C  1921  1  0.42881400  0.45303700  0.56490400  1
  C  1922  1  0.41977000  0.43478100  0.56129600  1
  C  1923  1  0.42679700  0.41747300  0.54405800  1
  C  1924  1  0.44228300  0.41828100  0.52984800  1
  C  1925  1  0.45178300  0.43649700  0.53377000  1
  C  1926  1  0.44477100  0.45363600  0.55081600  1
  C  1928  1  0.40348700  0.39894900  0.55507900  1
  C  1929  1  0.39618300  0.41597700  0.57207900  1
  C  1935  1  0.35363000  0.41253800  0.58279100  1
  C  1942  1  0.42889800  0.13143700  0.53403400  1
  C  1943  1  0.41981100  0.14608000  0.55228200  1
  C  1944  1  0.42682000  0.14617200  0.56960400  1
  C  1945  1  0.44231600  0.13117000  0.56882100  1
  C  1946  1  0.45183500  0.11686900  0.55061600  1
  C  1947  1  0.44483700  0.11675800  0.53346600  1
  C  1949  1  0.40346000  0.17569800  0.58809000  1
  C  1950  1  0.39616100  0.17564700  0.57104900  1
  C  1956  1  0.35361900  0.18980800  0.57447700  1
  C  1963  1  0.03540500  0.45211500  0.85555000  1
  C  1964  1  0.04422200  0.43378500  0.84090000  1
  C  1965  1  0.03696200  0.41655400  0.84090700  1
  C  1966  1  0.02151200  0.41750400  0.85600700  1
  C  1967  1  0.01223100  0.43580700  0.87029100  1
  C  1968  1  0.01945000  0.45287400  0.87030700  1
  C  1970  1  0.05999100  0.39780700  0.81126600  1
  C  1971  1  0.06752400  0.41475800  0.81122700  1
  C  1977  1  0.11008700  0.41162200  0.79721900  1
  C  1984  1  0.03540500  0.13155100  0.56406100  1
  C  1985  1  0.04421400  0.14619400  0.56037100  1
  C  1986  1  0.03695500  0.14618600  0.54313400  1
  C  1987  1  0.02150200  0.13108500  0.52898500  1
  C  1988  1  0.01221900  0.11680800  0.53301200  1
  C  1989  1  0.01944800  0.11679100  0.55006000  1
  C  1991  1  0.05999500  0.17582200  0.55402100  1
  C  1992  1  0.06752800  0.17585900  0.57101100  1
  C  1998  1  0.11009600  0.18986100  0.58187300  1
  C  2005  1  0.03535200  0.42301800  0.53497500  1
  C  2006  1  0.04418300  0.42672100  0.55331100  1
  C  2007  1  0.03692900  0.44395600  0.57054300  1
  C  2008  1  0.02144600  0.45809000  0.56958800  1
  C  2009  1  0.01221900  0.45409500  0.55128300  1
  C  2010  1  0.01944400  0.43704400  0.53422200  1
  C  2012  1  0.05999500  0.43307400  0.58928600  1
  C  2013  1  0.06752200  0.41608500  0.57233300  1
  C  2019  1  0.11009600  0.40523300  0.57547600  1
  C  2026  1  0.53541000  0.55235000  0.11417900  1
  C  2027  1  0.54421700  0.57068300  0.12882600  1
  C  2028  1  0.53696000  0.58791400  0.12882000  1
  C  2029  1  0.52150300  0.58695700  0.11371900  1
  C  2030  1  0.51222800  0.56865500  0.09943300  1
  C  2031  1  0.51945900  0.55159100  0.09941700  1
  C  2033  1  0.56000000  0.60666100  0.15845500  1
  C  2034  1  0.56752000  0.58970900  0.15849700  1
  C  2040  1  0.61010100  0.59287300  0.17249100  1
  C  2047  1  0.53540200  0.87289600  0.40565100  1
  C  2048  1  0.54421400  0.85825900  0.40934800  1
  C  2049  1  0.53695800  0.85827400  0.42658900  1
  C  2050  1  0.52150100  0.87337700  0.44073400  1
  C  2051  1  0.51221400  0.88765000  0.43670000  1
  C  2052  1  0.51943900  0.88765500  0.41964500  1
  C  2054  1  0.56001000  0.82864500  0.41571600  1
  C  2055  1  0.56753900  0.82860100  0.39872200  1
  C  2061  1  0.61010900  0.81459900  0.38786300  1
  C  2068  1  0.53540400  0.58141300  0.43474000  1
  C  2069  1  0.54421400  0.57773200  0.41640900  1
  C  2070  1  0.53694200  0.56050000  0.39917700  1
  C  2071  1  0.52145100  0.54637000  0.40013400  1
  C  2072  1  0.51221200  0.55036900  0.41843700  1
  C  2073  1  0.51946100  0.56740900  0.43550300  1
  C  2075  1  0.55999600  0.57138400  0.38043000  1
  C  2076  1  0.56753700  0.58837000  0.39738300  1
  C  2082  1  0.61011100  0.59922200  0.39424200  1
  N  1087  1  0.89559200  0.81048400  0.21219000  1
  N  1090  1  0.89474300  0.77731100  0.17780000  1
  N  1094  1  0.89662700  0.79480100  0.16028400  1
  N  1100  1  0.89658500  0.74195000  0.17579700  1
  N  1101  1  0.89695400  0.81023600  0.24618800  1
  N  1108  1  0.89555900  0.42129000  0.17660200  1
  N  1111  1  0.89467300  0.42007300  0.20977300  1
  N  1115  1  0.89657700  0.38506600  0.19228300  1
  N  1121  1  0.89655500  0.45341500  0.24512400  1
  N  1122  1  0.89693900  0.45553400  0.17685000  1
  N  1129  1  0.89552500  0.77492400  0.56579700  1
  N  1132  1  0.89471100  0.80930400  0.56699500  1
  N  1136  1  0.89659100  0.82683500  0.60200400  1
  N  1142  1  0.89660600  0.81129100  0.53363900  1
  N  1143  1  0.89691600  0.74091600  0.53156300  1
  N  1150  1  0.39553300  0.19397900  0.75754600  1
  N  1153  1  0.39472400  0.22715500  0.79193000  1
  N  1157  1  0.39661100  0.20967000  0.80945300  1
  N  1163  1  0.39660600  0.26251200  0.79392500  1
  N  1164  1  0.39692600  0.19421700  0.72354300  1
  N  1171  1  0.39546700  0.58317400  0.79312300  1
  N  1174  1  0.39463100  0.58438500  0.75995000  1
  N  1178  1  0.39651400  0.61939300  0.77743700  1
  N  1184  1  0.39655700  0.55104500  0.72460200  1
  N  1185  1  0.39691400  0.54894100  0.79288300  1
  N  1192  1  0.39557600  0.22955400  0.40393700  1
  N  1195  1  0.39474700  0.19516800  0.40272700  1
  N  1199  1  0.39662900  0.17764800  0.36772000  1
  N  1205  1  0.39659600  0.19317100  0.43608900  1
  N  1206  1  0.39692400  0.26356000  0.43818300  1
  N  1213  1  0.06811200  0.58326700  0.75745600  1
  N  1216  1  0.06910700  0.58424100  0.79172900  1
  N  1220  1  0.06717900  0.61925500  0.80942700  1
  N  1226  1  0.06733800  0.55069100  0.79345400  1
  N  1227  1  0.06677200  0.54919000  0.72335200  1
  N  1234  1  0.06820700  0.22962200  0.79330200  1
  N  1237  1  0.06916900  0.19535500  0.75999900  1
  N  1241  1  0.06724700  0.17765000  0.77730700  1
  N  1247  1  0.06736500  0.19363200  0.72473700  1
  N  1248  1  0.06682200  0.26372500  0.79334400  1
  N  1255  1  0.06810200  0.19378700  0.40382400  1
  N  1258  1  0.06910300  0.22708500  0.40285100  1
  N  1262  1  0.06717500  0.20977000  0.36783700  1
  N  1268  1  0.06734600  0.26236100  0.43640100  1
  N  1269  1  0.06676400  0.19376000  0.43790200  1
  N  1276  1  0.56811900  0.42118400  0.21227100  1
  N  1279  1  0.56917200  0.42020500  0.17799700  1
  N  1283  1  0.56722700  0.38519200  0.16030200  1
  N  1289  1  0.56739200  0.45373500  0.17625900  1
  N  1290  1  0.56675900  0.45526300  0.24637100  1
  N  1297  1  0.56816700  0.77483500  0.17642400  1
  N  1300  1  0.56913300  0.80909900  0.20972800  1
  N  1304  1  0.56721100  0.82680900  0.19242300  1
  N  1310  1  0.56733700  0.81081500  0.24498900  1
  N  1311  1  0.56680800  0.74072100  0.17637700  1
  N  1318  1  0.56816000  0.81066700  0.56590800  1
  N  1321  1  0.56912600  0.77736500  0.56687400  1
  N  1325  1  0.56720000  0.79467700  0.60189000  1
  N  1331  1  0.56733900  0.74209400  0.53332300  1
  N  1332  1  0.56679800  0.81070400  0.53183800  1
  N  1339  1  0.69905600  0.70916500  0.07835600  1
  N  1342  1  0.75029400  0.71589700  0.07734500  1
  N  1346  1  0.74180700  0.74310200  0.07274000  1
  N  1352  1  0.78740200  0.69353900  0.08205200  1
  N  1353  1  0.68326400  0.67812800  0.08571200  1
  N  1360  1  0.69907000  0.38878200  0.27793000  1
  N  1363  1  0.75031400  0.38106300  0.27119400  1
  N  1367  1  0.74184500  0.34925400  0.24397800  1
  N  1373  1  0.78740600  0.40813400  0.29356700  1
  N  1374  1  0.68325600  0.42716200  0.30898100  1
  N  1381  1  0.69906200  0.90875600  0.59831000  1
  N  1384  1  0.75030400  0.90974900  0.60603800  1
  N  1388  1  0.74182200  0.91433400  0.63784200  1
  N  1394  1  0.78740000  0.90505700  0.57896800  1
  N  1395  1  0.68325300  0.90141800  0.55992800  1
  N  1402  1  0.19905900  0.29529300  0.89136400  1
  N  1405  1  0.25030100  0.28856300  0.89236000  1
  N  1409  1  0.24182900  0.26136200  0.89697600  1
  N  1415  1  0.28739500  0.31091900  0.88763700  1
  N  1416  1  0.18325000  0.32632700  0.88401000  1
  N  1423  1  0.19907800  0.61567500  0.69178900  1
  N  1426  1  0.25032400  0.62338800  0.69852500  1
  N  1430  1  0.24186400  0.65519800  0.72573700  1
  N  1436  1  0.28741100  0.59630600  0.67615400  1
  N  1437  1  0.18325700  0.57729500  0.66074400  1
  N  1444  1  0.19905900  0.09569600  0.37140800  1
  N  1447  1  0.25030100  0.09470400  0.36368200  1
  N  1451  1  0.24182900  0.09012700  0.33188200  1
  N  1457  1  0.28739500  0.09939900  0.39075200  1
  N  1458  1  0.18325000  0.10303700  0.40979100  1
  N  1465  1  0.26471600  0.61510600  0.89126500  1
  N  1468  1  0.21350300  0.62295100  0.89234900  1
  N  1472  1  0.22208600  0.65483400  0.89717500  1
  N  1478  1  0.17631700  0.59586400  0.88742000  1
  N  1479  1  0.28036600  0.57654000  0.88349700  1
  N  1486  1  0.26471200  0.09581700  0.69132800  1
  N  1489  1  0.21350100  0.09472100  0.69808600  1
  N  1493  1  0.22209700  0.08991900  0.72515800  1
  N  1499  1  0.17631200  0.09962400  0.67591100  1
  N  1500  1  0.28035900  0.10357100  0.66052100  1
  N  1507  1  0.26471200  0.29575300  0.37199000  1
  N  1510  1  0.21350300  0.28900500  0.36412400  1
  N  1514  1  0.22209700  0.26194600  0.33224400  1
  N  1520  1  0.17630800  0.31116900  0.39119700  1
  N  1521  1  0.28034900  0.32655300  0.41055900  1
  N  1528  1  0.76471300  0.38935300  0.07845400  1
  N  1531  1  0.71349800  0.38151000  0.07737000  1
  N  1535  1  0.72207300  0.34963000  0.07255200  1
  N  1541  1  0.67631700  0.40859500  0.08228300  1
  N  1542  1  0.78036900  0.42791100  0.08620100  1
  N  1549  1  0.76470900  0.90864200  0.27839800  1
  N  1552  1  0.71350000  0.90974000  0.27163700  1
  N  1556  1  0.72210200  0.91454100  0.24456400  1
  N  1562  1  0.67630500  0.90484600  0.29381200  1
  N  1563  1  0.78034600  0.90088600  0.30920600  1
  N  1570  1  0.76471500  0.70870200  0.59772800  1
  N  1573  1  0.71350400  0.71545800  0.60558300  1
  N  1577  1  0.72209100  0.74250700  0.63747100  1
  N  1583  1  0.67631500  0.69330600  0.57849600  1
  N  1584  1  0.78036000  0.67790700  0.55916100  1
  N  1591  1  0.98874600  0.63545200  0.96425100  1
  N  1594  1  0.96471500  0.65348800  0.99883700  1
  N  1598  1  0.95824600  0.68274400  0.99867900  1
  N  1604  1  0.95800700  0.63559200  0.02046700  1
  N  1605  1  0.00565000  0.59799100  0.94818700  1
  N  1612  1  0.98874500  0.34840000  0.35164000  1
  N  1615  1  0.96469200  0.36495400  0.33361600  1
  N  1619  1  0.95822600  0.33554300  0.30435700  1
  N  1625  1  0.95802000  0.40447900  0.35150400  1
  N  1626  1  0.00566900  0.36979400  0.38909600  1
  N  1633  1  0.98877000  0.02283000  0.63870000  1
  N  1636  1  0.96472300  0.98824900  0.62214400  1
  N  1640  1  0.95825200  0.98840200  0.65155600  1
  N  1646  1  0.95802500  0.96662600  0.58262100  1
  N  1647  1  0.00565700  0.03890900  0.61731200  1
  N  1654  1  0.48877300  0.36900400  0.00546900  1
  N  1657  1  0.46473100  0.35097400  0.97088700  1
  N  1661  1  0.45825900  0.32171700  0.97104400  1
  N  1667  1  0.45801700  0.36887300  0.94926100  1
  N  1668  1  0.50565700  0.40647200  0.02154400  1
  N  1675  1  0.48878000  0.65605800  0.61810100  1
  N  1678  1  0.46470600  0.63950400  0.63611600  1
  N  1682  1  0.45823600  0.66891400  0.66537600  1
  N  1688  1  0.45803200  0.59997800  0.61822200  1
  N  1689  1  0.50568200  0.63467100  0.58064000  1
  N  1696  1  0.48874900  0.98162700  0.33102200  1
  N  1699  1  0.46472200  0.01621300  0.34757900  1
  N  1703  1  0.45824500  0.01606000  0.31816900  1
  N  1709  1  0.45802800  0.03784100  0.38710900  1
  N  1710  1  0.50565300  0.96555300  0.35241200  1
  N  1717  1  0.97510700  0.36870100  0.00545600  1
  N  1720  1  0.99911100  0.35067100  0.97086800  1
  N  1724  1  0.00556800  0.32140300  0.97100800  1
  N  1730  1  0.00598300  0.36860900  0.94934100  1
  N  1731  1  0.95806800  0.40608800  0.02144000  1
  N  1738  1  0.97506700  0.65634200  0.61839200  1
  N  1741  1  0.99910400  0.63979100  0.63641600  1
  N  1745  1  0.00555300  0.66919800  0.66568600  1
  N  1751  1  0.00601000  0.60033400  0.61847500  1
  N  1752  1  0.95806800  0.63494400  0.58099700  1
  N  1759  1  0.97509800  0.98162900  0.33073800  1
  N  1762  1  0.99911500  0.01621100  0.34728800  1
  N  1766  1  0.00555900  0.01607100  0.31787800  1
  N  1772  1  0.00602000  0.03773500  0.38674800  1
  N  1773  1  0.95807000  0.96564700  0.35214500  1
  N  1780  1  0.47511000  0.63573800  0.96425100  1
  N  1783  1  0.49913800  0.65377000  0.99883000  1
  N  1787  1  0.50556900  0.68304100  0.99869200  1
  N  1793  1  0.50601700  0.63584300  0.02036200  1
  N  1794  1  0.45808800  0.59834700  0.94826800  1
  N  1801  1  0.47507700  0.34811400  0.35133200  1
  N  1804  1  0.49911400  0.36466800  0.33331000  1
  N  1808  1  0.50556400  0.33526000  0.30403900  1
  N  1814  1  0.50601900  0.40412300  0.35125100  1
  N  1815  1  0.45806100  0.36951500  0.38872500  1
  N  1822  1  0.47508700  0.02281800  0.63897900  1
  N  1825  1  0.49911100  0.98823800  0.62242700  1
  N  1829  1  0.50555800  0.98837500  0.65183400  1
  N  1835  1  0.50601200  0.96671800  0.58296500  1
  N  1836  1  0.45806700  0.03881000  0.61757900  1
  N  1843  1  0.91837200  0.55918600  0.14371700  1
  N  1846  1  0.90485200  0.59183900  0.14349800  1
  N  1850  1  0.88182400  0.60411300  0.17380900  1
  N  1856  1  0.91824200  0.59652800  0.11230800  1
  N  1857  1  0.95196500  0.53209500  0.11453200  1
  N  1864  1  0.91836600  0.60413500  0.42792700  1
  N  1867  1  0.90484400  0.57127300  0.39526100  1
  N  1871  1  0.88184300  0.58932600  0.38299400  1
  N  1877  1  0.91825500  0.53537200  0.39055600  1
  N  1878  1  0.95197100  0.60200200  0.45501600  1
  N  1885  1  0.91834400  0.84337600  0.38294500  1
  N  1888  1  0.90481300  0.84358900  0.41581400  1
  N  1892  1  0.88178400  0.81328000  0.39776800  1
  N  1898  1  0.91824900  0.87478200  0.45170900  1
  N  1899  1  0.95196400  0.87258300  0.38506700  1
  N  1906  1  0.41837500  0.44527900  0.82600800  1
  N  1909  1  0.40483100  0.41263100  0.82623000  1
  N  1913  1  0.38182200  0.40035600  0.79591300  1
  N  1919  1  0.41824200  0.40793700  0.85741500  1
  N  1920  1  0.45196900  0.47236800  0.85519500  1
  N  1927  1  0.41835200  0.40030800  0.54178200  1
  N  1930  1  0.40483500  0.43315000  0.57447000  1
  N  1934  1  0.38183200  0.41507100  0.58670600  1
  N  1940  1  0.41827600  0.46906900  0.57924500  1
  N  1941  1  0.45195000  0.40247500  0.51471200  1
  N  1948  1  0.41834600  0.16106300  0.58675700  1
  N  1951  1  0.40485500  0.16086500  0.55389000  1
  N  1955  1  0.38182000  0.19117100  0.57193000  1
  N  1961  1  0.41826500  0.12968900  0.51800900  1
  N  1962  1  0.45196500  0.13185800  0.58464000  1
  N  1969  1  0.04517400  0.39931200  0.82600400  1
  N  1972  1  0.05912000  0.43201300  0.82602200  1
  N  1976  1  0.08181900  0.41368600  0.79560700  1
  N  1982  1  0.04612100  0.46803600  0.85710000  1
  N  1983  1  0.01162700  0.40177700  0.85538700  1
  N  1990  1  0.04517100  0.16108700  0.54079100  1
  N  1993  1  0.05912000  0.16106900  0.57347400  1
  N  1997  1  0.08183100  0.19147800  0.58555300  1
  N  2003  1  0.04611100  0.12997500  0.57841800  1
  N  2004  1  0.01162000  0.13170300  0.51387800  1
  N  2011  1  0.04515700  0.44630200  0.58778500  1
  N  2014  1  0.05909700  0.41362000  0.55508200  1
  N  2018  1  0.08183500  0.40154000  0.57340100  1
  N  2024  1  0.04611100  0.40867600  0.51906000  1
  N  2025  1  0.01162400  0.47321800  0.58533100  1
  N  2032  1  0.54517800  0.60515700  0.14371900  1
  N  2035  1  0.55911900  0.57245400  0.14370200  1
  N  2039  1  0.58184300  0.59077700  0.17410500  1
  N  2045  1  0.54610300  0.53641600  0.11261500  1
  N  2046  1  0.51162500  0.60268000  0.11432600  1
  N  2053  1  0.54518000  0.84338200  0.42894200  1
  N  2056  1  0.55912500  0.84338400  0.39625000  1
  N  2060  1  0.58184300  0.81297800  0.38418100  1
  N  2066  1  0.54611100  0.87446900  0.39129300  1
  N  2067  1  0.51162100  0.87276800  0.45584800  1
  N  2074  1  0.54515800  0.55815700  0.38193300  1
  N  2077  1  0.55912900  0.59083100  0.41463600  1
  N  2081  1  0.58184900  0.60291200  0.39631100  1
  N  2087  1  0.54612400  0.59578100  0.45066100  1
  N  2088  1  0.51162300  0.53124600  0.38439100  1
