# generated using pymatgen
data_H28C41N8
_symmetry_space_group_name_H-M   'P 1'
_cell_length_a   59.43950000
_cell_length_b   59.56610000
_cell_length_c   84.80500000
_cell_angle_alpha   90.00000000
_cell_angle_beta   90.00000000
_cell_angle_gamma   90.00000000
_symmetry_Int_Tables_number   1
_chemical_formula_structural   H28C41N8
_chemical_formula_sum   'H896 C1312 N256'
_cell_volume   300258.81913656
_cell_formula_units_Z   32
loop_
 _symmetry_equiv_pos_site_id
 _symmetry_equiv_pos_as_xyz
  1  'x, y, z'
loop_
 _atom_site_type_symbol
 _atom_site_label
 _atom_site_symmetry_multiplicity
 _atom_site_fract_x
 _atom_site_fract_y
 _atom_site_fract_z
 _atom_site_occupancy
  H  25  1  0.37982000  0.86462700  0.90332800  1
  H  26  1  0.37227800  0.83880100  0.92396200  1
  H  27  1  0.36425800  0.81875800  0.94762500  1
  H  28  1  0.35894800  0.80361200  0.97355800  1
  H  29  1  0.40177700  0.85349800  0.99225800  1
  H  30  1  0.41708700  0.90559500  0.93459800  1
  H  31  1  0.45014500  0.85011000  0.95372000  1
  H  32  1  0.49310500  0.89384800  0.97901800  1
  H  33  1  0.46187200  0.91549800  0.98718500  1
  H  34  1  0.36612000  0.90018500  0.96356300  1
  H  35  1  0.42727700  0.93148200  0.99469300  1
  H  36  1  0.39034800  0.94491900  0.99686500  1
  H  66  1  0.23258800  0.14001500  0.40333100  1
  H  67  1  0.24010300  0.16586000  0.42396000  1
  H  68  1  0.24812800  0.18590300  0.44762900  1
  H  69  1  0.25345000  0.20102200  0.47357100  1
  H  70  1  0.21059200  0.15114600  0.49225300  1
  H  71  1  0.19530100  0.09906000  0.43459900  1
  H  72  1  0.16223200  0.15453600  0.45370900  1
  H  73  1  0.11927600  0.11078200  0.47900900  1
  H  74  1  0.15053100  0.08917000  0.48721200  1
  H  75  1  0.24627100  0.10450300  0.46357400  1
  H  76  1  0.18511100  0.07315500  0.49467700  1
  H  77  1  0.22204600  0.05970900  0.49684100  1
  H  107  1  0.44420700  0.07578600  0.15332700  1
  H  108  1  0.47010900  0.06830800  0.17395700  1
  H  109  1  0.49016400  0.06026800  0.19763500  1
  H  110  1  0.50531300  0.05496500  0.22357500  1
  H  111  1  0.45533100  0.09773000  0.24225100  1
  H  112  1  0.40314000  0.11298500  0.18458900  1
  H  113  1  0.45874100  0.14596900  0.20371100  1
  H  114  1  0.41490100  0.18884100  0.22901600  1
  H  115  1  0.39322400  0.15766300  0.23719900  1
  H  116  1  0.40860100  0.06211700  0.21358800  1
  H  117  1  0.37719100  0.12315200  0.24468500  1
  H  118  1  0.36374200  0.08628600  0.24686900  1
  H  148  1  0.16817600  0.92884600  0.65332100  1
  H  149  1  0.14230400  0.93636000  0.67396000  1
  H  150  1  0.12224400  0.94439200  0.69762500  1
  H  151  1  0.10706500  0.94967800  0.72355500  1
  H  152  1  0.15704900  0.90693600  0.74225200  1
  H  153  1  0.20926000  0.89166700  0.68458100  1
  H  154  1  0.15366300  0.85868900  0.70370900  1
  H  155  1  0.19749000  0.81581200  0.72901600  1
  H  156  1  0.21919300  0.84698200  0.73717700  1
  H  157  1  0.20384300  0.94252800  0.71357200  1
  H  158  1  0.23518600  0.88150400  0.74470500  1
  H  159  1  0.24862900  0.91836000  0.74689600  1
  H  189  1  0.22959800  0.86422900  0.56616400  1
  H  190  1  0.24058100  0.84033100  0.54514700  1
  H  191  1  0.24854500  0.81978900  0.52169100  1
  H  192  1  0.25306800  0.80358800  0.49599400  1
  H  193  1  0.21091700  0.85363500  0.47674500  1
  H  194  1  0.19179200  0.90414700  0.53459000  1
  H  195  1  0.16362700  0.85093100  0.51557200  1
  H  196  1  0.11944500  0.89384300  0.49059400  1
  H  197  1  0.14998300  0.91565200  0.48193300  1
  H  198  1  0.24788200  0.90142400  0.50102200  1
  H  199  1  0.18233200  0.93367100  0.47523800  1
  H  200  1  0.21791600  0.94958400  0.47075900  1
  H  230  1  0.38280000  0.14042300  0.06614600  1
  H  231  1  0.37182400  0.16431000  0.04512700  1
  H  232  1  0.36384900  0.18482800  0.02167700  1
  H  233  1  0.35934400  0.20103900  0.99598400  1
  H  234  1  0.40146600  0.15097000  0.97673100  1
  H  235  1  0.42057600  0.10046000  0.03458000  1
  H  236  1  0.44871000  0.15369600  0.01555700  1
  H  237  1  0.49292700  0.11079200  0.99059800  1
  H  238  1  0.46241500  0.08898800  0.98191400  1
  H  239  1  0.36451400  0.10307600  0.00101200  1
  H  240  1  0.43010200  0.07094300  0.97521600  1
  H  241  1  0.39455800  0.05493100  0.97076900  1
  H  271  1  0.16780300  0.07875700  0.31615400  1
  H  272  1  0.14384900  0.06781200  0.29514200  1
  H  273  1  0.12327200  0.05985300  0.27168800  1
  H  274  1  0.10704600  0.05533000  0.24598500  1
  H  275  1  0.15719900  0.09740400  0.22674500  1
  H  276  1  0.20780300  0.11649400  0.28458600  1
  H  277  1  0.15446400  0.14458400  0.26556700  1
  H  278  1  0.19749000  0.18867800  0.24060800  1
  H  279  1  0.21933100  0.15821600  0.23193400  1
  H  280  1  0.20505600  0.06051100  0.25100500  1
  H  281  1  0.23736400  0.12594400  0.22521200  1
  H  282  1  0.25340700  0.09045100  0.22081000  1
  H  312  1  0.44458000  0.92586100  0.81614800  1
  H  313  1  0.46854700  0.93679000  0.79514400  1
  H  314  1  0.48910600  0.94479100  0.77169200  1
  H  315  1  0.50535500  0.94931100  0.74599700  1
  H  316  1  0.45518800  0.90727800  0.72673000  1
  H  317  1  0.40456500  0.88818400  0.78457000  1
  H  318  1  0.45791800  0.86009700  0.76555700  1
  H  319  1  0.41490100  0.81597600  0.74061900  1
  H  320  1  0.39305700  0.84642000  0.73193300  1
  H  321  1  0.40720100  0.94412800  0.75100200  1
  H  322  1  0.37503000  0.87866000  0.72517900  1
  H  323  1  0.35888600  0.91412000  0.72081100  1
  H  353  1  0.73133600  0.14004700  0.06599300  1
  H  354  1  0.73899900  0.16584000  0.04536500  1
  H  355  1  0.74703900  0.18595700  0.02172500  1
  H  356  1  0.75235400  0.20116500  0.99580400  1
  H  357  1  0.70984800  0.15108100  0.97698700  1
  H  358  1  0.69437700  0.09896100  0.03461800  1
  H  359  1  0.66288800  0.15657900  0.01394500  1
  H  360  1  0.61811800  0.10995600  0.99361500  1
  H  361  1  0.64853400  0.08791000  0.98445700  1
  H  362  1  0.74529600  0.10424900  0.00553100  1
  H  363  1  0.68362700  0.07301100  0.97482100  1
  H  364  1  0.72067500  0.05975300  0.97224800  1
  H  394  1  0.88105500  0.86460600  0.56599000  1
  H  395  1  0.87341800  0.83879500  0.54536800  1
  H  396  1  0.86537000  0.81868100  0.52172000  1
  H  397  1  0.86004800  0.80349600  0.49579300  1
  H  398  1  0.90257600  0.85357500  0.47699200  1
  H  399  1  0.91803700  0.90567900  0.53461800  1
  H  400  1  0.94953100  0.84807400  0.51396000  1
  H  401  1  0.99429600  0.89468100  0.49360700  1
  H  402  1  0.96386800  0.91672200  0.48444000  1
  H  403  1  0.86711400  0.90036000  0.50552100  1
  H  404  1  0.92878900  0.93164500  0.47483600  1
  H  405  1  0.89173300  0.94491200  0.47226900  1
  H  435  1  0.66981900  0.92842800  0.81616600  1
  H  436  1  0.64408400  0.93615900  0.79566400  1
  H  437  1  0.62480000  0.94481500  0.77292800  1
  H  438  1  0.60886700  0.95143800  0.74794600  1
  H  439  1  0.65648800  0.90772700  0.72690800  1
  H  440  1  0.71072800  0.89126400  0.78473600  1
  H  441  1  0.65475000  0.85886000  0.76549700  1
  H  442  1  0.69858500  0.81579200  0.74035700  1
  H  443  1  0.72041400  0.84689000  0.73221200  1
  H  444  1  0.70510600  0.94241400  0.75583900  1
  H  445  1  0.73637100  0.88151200  0.72454000  1
  H  446  1  0.74930000  0.91857300  0.72213500  1
  H  476  1  0.94259600  0.07623800  0.31618100  1
  H  477  1  0.96829500  0.06847300  0.29565800  1
  H  478  1  0.98757600  0.05983800  0.27291400  1
  H  479  1  0.00348500  0.05322500  0.24792300  1
  H  480  1  0.95582800  0.09692200  0.22691000  1
  H  481  1  0.90164900  0.11337700  0.28476300  1
  H  482  1  0.95761800  0.14576300  0.26551400  1
  H  483  1  0.91381100  0.18883900  0.24036100  1
  H  484  1  0.89195300  0.15775800  0.23223600  1
  H  485  1  0.90721200  0.06224100  0.25586800  1
  H  486  1  0.87604800  0.12311900  0.22450600  1
  H  487  1  0.86314000  0.08606400  0.22209100  1
  H  517  1  0.88358300  0.14044400  0.40336200  1
  H  518  1  0.87296200  0.16449200  0.42435500  1
  H  519  1  0.86498400  0.18496600  0.44777900  1
  H  520  1  0.86046200  0.20116300  0.47347300  1
  H  521  1  0.90228800  0.15088200  0.49278300  1
  H  522  1  0.92097400  0.10009900  0.43492000  1
  H  523  1  0.94809200  0.15568800  0.45544200  1
  H  524  1  0.99411600  0.11006600  0.47547200  1
  H  525  1  0.96440200  0.08781300  0.48519800  1
  H  526  1  0.86553300  0.10297300  0.46870800  1
  H  527  1  0.93161400  0.07091400  0.49405100  1
  H  528  1  0.89598900  0.05489000  0.49878500  1
  H  558  1  0.72881600  0.86419700  0.90338400  1
  H  559  1  0.73943300  0.84016500  0.92437900  1
  H  560  1  0.74742300  0.81971200  0.94778700  1
  H  561  1  0.75192600  0.80348600  0.97347000  1
  H  562  1  0.71012900  0.85377300  0.99280300  1
  H  563  1  0.69144300  0.90457600  0.93493300  1
  H  564  1  0.66434500  0.84898700  0.95545400  1
  H  565  1  0.61828500  0.89457700  0.97548300  1
  H  566  1  0.64798400  0.91683600  0.98521900  1
  H  567  1  0.74685900  0.90181200  0.96872100  1
  H  568  1  0.68074100  0.93376500  0.99407000  1
  H  569  1  0.71632700  0.94988800  0.99876900  1
  H  599  1  0.94351300  0.92530500  0.65323600  1
  H  600  1  0.96688800  0.93684600  0.67419100  1
  H  601  1  0.98661600  0.94534400  0.69666600  1
  H  602  1  0.00369900  0.95105300  0.72138300  1
  H  603  1  0.95596300  0.90796500  0.74293900  1
  H  604  1  0.90364400  0.88737400  0.68483700  1
  H  605  1  0.95700900  0.86008700  0.70404800  1
  H  606  1  0.91384800  0.81582000  0.72875100  1
  H  607  1  0.89187900  0.84622400  0.73739600  1
  H  608  1  0.90665700  0.94396000  0.71863600  1
  H  609  1  0.87374800  0.87854400  0.74415900  1
  H  610  1  0.85801600  0.91421900  0.74870100  1
  H  640  1  0.66891100  0.07937800  0.15323700  1
  H  641  1  0.64552900  0.06786100  0.17419600  1
  H  642  1  0.62582700  0.05934500  0.19669500  1
  H  643  1  0.60880800  0.05361300  0.22143900  1
  H  644  1  0.65661900  0.09664500  0.24296000  1
  H  645  1  0.70882500  0.11724900  0.18482800  1
  H  646  1  0.65544800  0.14453500  0.20404200  1
  H  647  1  0.69856300  0.18883600  0.22875300  1
  H  648  1  0.72054800  0.15845600  0.23740600  1
  H  649  1  0.70593300  0.06072200  0.21861200  1
  H  650  1  0.73868800  0.12616300  0.24419400  1
  H  651  1  0.75452200  0.09051800  0.24869400  1
  H  681  1  0.88136400  0.36519100  0.40323800  1
  H  682  1  0.87353600  0.33954200  0.42375100  1
  H  683  1  0.86488200  0.32028500  0.44647500  1
  H  684  1  0.85827000  0.30435300  0.47145200  1
  H  685  1  0.90202900  0.35191300  0.49251100  1
  H  686  1  0.91853500  0.40603300  0.43469600  1
  H  687  1  0.95097800  0.35016600  0.45391000  1
  H  688  1  0.99416300  0.39386700  0.47903800  1
  H  689  1  0.96302900  0.41567000  0.48718200  1
  H  690  1  0.86727400  0.40059900  0.46354100  1
  H  691  1  0.92834800  0.43162500  0.49487800  1
  H  692  1  0.89129900  0.44471800  0.49720900  1
  H  722  1  0.73103500  0.63945600  0.90324900  1
  H  723  1  0.73884600  0.66512900  0.92375000  1
  H  724  1  0.74753200  0.68437600  0.94646400  1
  H  725  1  0.75413900  0.70034500  0.97143100  1
  H  726  1  0.71035800  0.65282300  0.99251200  1
  H  727  1  0.69385700  0.59863600  0.93471700  1
  H  728  1  0.66140900  0.65450000  0.95391100  1
  H  729  1  0.61822700  0.61076100  0.97902400  1
  H  730  1  0.64938300  0.58900200  0.98720600  1
  H  731  1  0.74512500  0.60410100  0.96356000  1
  H  732  1  0.68405400  0.57303100  0.99487300  1
  H  733  1  0.72110200  0.55994300  0.99719900  1
  H  763  1  0.94315100  0.57805900  0.65340600  1
  H  764  1  0.96904300  0.57048800  0.67401800  1
  H  765  1  0.98917100  0.56241400  0.69767000  1
  H  766  1  0.00439900  0.55710600  0.72359100  1
  H  767  1  0.95425700  0.59958100  0.74239600  1
  H  768  1  0.90199900  0.61498400  0.68477300  1
  H  769  1  0.95973600  0.64643500  0.70543800  1
  H  770  1  0.91299800  0.69109700  0.72577200  1
  H  771  1  0.89091800  0.66072500  0.73494300  1
  H  772  1  0.90748300  0.56419400  0.71388200  1
  H  773  1  0.87599600  0.62568900  0.74455500  1
  H  774  1  0.86288500  0.58863700  0.74718700  1
  H  804  1  0.66923100  0.42657500  0.15339200  1
  H  805  1  0.64337100  0.43417800  0.17401900  1
  H  806  1  0.62324300  0.44223700  0.19767100  1
  H  807  1  0.60801700  0.44753300  0.22359500  1
  H  808  1  0.65817900  0.40507300  0.24238900  1
  H  809  1  0.71041000  0.38966700  0.18475200  1
  H  810  1  0.65266600  0.35822400  0.20543600  1
  H  811  1  0.69938900  0.31355300  0.22577700  1
  H  812  1  0.72149000  0.34391400  0.23493000  1
  H  813  1  0.70497300  0.44044900  0.21386600  1
  H  814  1  0.73636100  0.37897100  0.24459300  1
  H  815  1  0.74945000  0.41602000  0.24724400  1
  H  845  1  0.72829200  0.36416700  0.06611100  1
  H  846  1  0.73944500  0.34070900  0.04514000  1
  H  847  1  0.74789200  0.32111400  0.02266200  1
  H  848  1  0.75370600  0.30422700  0.99791500  1
  H  849  1  0.71071600  0.35206600  0.97641800  1
  H  850  1  0.69062900  0.40445000  0.03460700  1
  H  851  1  0.66279900  0.35095200  0.01538400  1
  H  852  1  0.61841400  0.39387700  0.99060100  1
  H  853  1  0.64885700  0.41580200  0.98194800  1
  H  854  1  0.74679500  0.40177600  0.00094500  1
  H  855  1  0.68117400  0.43388600  0.97513700  1
  H  856  1  0.71676600  0.44985200  0.97065100  1
  H  886  1  0.88410600  0.64048400  0.56609200  1
  H  887  1  0.87296700  0.66392200  0.54511200  1
  H  888  1  0.86451700  0.68348100  0.52262800  1
  H  889  1  0.85869900  0.70033500  0.49787900  1
  H  890  1  0.90168900  0.65247700  0.47639800  1
  H  891  1  0.92175500  0.60014500  0.53461200  1
  H  892  1  0.94956100  0.65365900  0.51537300  1
  H  893  1  0.99399500  0.61078400  0.49058800  1
  H  894  1  0.96357400  0.58884200  0.48191900  1
  H  895  1  0.86562500  0.60271200  0.50094200  1
  H  896  1  0.93127900  0.57071900  0.47511000  1
  H  897  1  0.89572000  0.55466100  0.47065700  1
  H  927  1  0.66832000  0.58064300  0.81593700  1
  H  928  1  0.64449300  0.56989500  0.79487900  1
  H  929  1  0.62412800  0.56194100  0.77148400  1
  H  930  1  0.60798300  0.55740500  0.74576900  1
  H  931  1  0.65821900  0.59943900  0.72656100  1
  H  932  1  0.70878200  0.61825100  0.78455300  1
  H  933  1  0.65337600  0.64520000  0.76391400  1
  H  934  1  0.69926100  0.69108500  0.74400600  1
  H  935  1  0.72154800  0.66140700  0.73428200  1
  H  936  1  0.70560500  0.56273800  0.75049700  1
  H  937  1  0.73847900  0.62861300  0.72546000  1
  H  938  1  0.75427500  0.59291300  0.72066900  1
  H  968  1  0.94405600  0.42397100  0.31592900  1
  H  969  1  0.96789800  0.43470200  0.29487900  1
  H  970  1  0.98824400  0.44270000  0.27148800  1
  H  971  1  0.00441600  0.44723100  0.24578000  1
  H  972  1  0.95415900  0.40525100  0.22654300  1
  H  973  1  0.90358000  0.38642500  0.28453600  1
  H  974  1  0.95899800  0.35949700  0.26390500  1
  H  975  1  0.91312100  0.31358000  0.24403400  1
  H  976  1  0.89082900  0.34323200  0.23428900  1
  H  977  1  0.90662800  0.44189800  0.25050200  1
  H  978  1  0.87389800  0.37598300  0.22543200  1
  H  979  1  0.85798600  0.41164900  0.22068700  1
  H  1009  1  0.23197100  0.63948200  0.56609500  1
  H  1010  1  0.23988400  0.66508700  0.54558800  1
  H  1011  1  0.24856000  0.68441200  0.52289800  1
  H  1012  1  0.25515200  0.70046100  0.49795500  1
  H  1013  1  0.21172600  0.65272200  0.47675500  1
  H  1014  1  0.19508300  0.59851200  0.53456300  1
  H  1015  1  0.16418100  0.65654000  0.51375200  1
  H  1016  1  0.11920100  0.60995600  0.49362300  1
  H  1017  1  0.14951800  0.58776600  0.48447900  1
  H  1018  1  0.24627600  0.60383500  0.50556500  1
  H  1019  1  0.18468700  0.57288200  0.47464400  1
  H  1020  1  0.22184600  0.55995500  0.47191900  1
  H  1050  1  0.38042200  0.36516900  0.06609200  1
  H  1051  1  0.37254400  0.33954600  0.04558500  1
  H  1052  1  0.36385100  0.32024400  0.02288100  1
  H  1053  1  0.35724300  0.30424200  0.99792200  1
  H  1054  1  0.40069200  0.35198600  0.97675300  1
  H  1055  1  0.41733100  0.40613900  0.03457000  1
  H  1056  1  0.44823100  0.34812400  0.01376800  1
  H  1057  1  0.49321300  0.39469300  0.99362200  1
  H  1058  1  0.46289000  0.41687800  0.98446300  1
  H  1059  1  0.36613700  0.40078200  0.00555800  1
  H  1060  1  0.42772800  0.43177800  0.97465600  1
  H  1061  1  0.39055000  0.44470000  0.97192900  1
  H  1091  1  0.16871100  0.42608500  0.31608300  1
  H  1092  1  0.14303800  0.43397500  0.29557600  1
  H  1093  1  0.12368500  0.44264500  0.27287100  1
  H  1094  1  0.10766500  0.44925800  0.24791000  1
  H  1095  1  0.15553000  0.40593600  0.22674000  1
  H  1096  1  0.20976600  0.38926500  0.28454600  1
  H  1097  1  0.15165700  0.35848800  0.26375100  1
  H  1098  1  0.19834300  0.31359300  0.24363200  1
  H  1099  1  0.22058400  0.34384300  0.23448000  1
  H  1100  1  0.20441500  0.44040000  0.25553000  1
  H  1101  1  0.23549200  0.37893200  0.22464800  1
  H  1102  1  0.24842800  0.41603400  0.22190900  1
  H  1132  1  0.44370700  0.57857900  0.81609700  1
  H  1133  1  0.46934000  0.57065700  0.79557100  1
  H  1134  1  0.48868900  0.56201000  0.77285800  1
  H  1135  1  0.50468000  0.55540400  0.74788600  1
  H  1136  1  0.45679100  0.59872500  0.72674300  1
  H  1137  1  0.40261300  0.61538200  0.78457600  1
  H  1138  1  0.46071600  0.64616200  0.76376600  1
  H  1139  1  0.41405800  0.69106300  0.74362200  1
  H  1140  1  0.39180200  0.66081400  0.73448300  1
  H  1141  1  0.40791800  0.56426400  0.75555900  1
  H  1142  1  0.37692800  0.62570500  0.72461800  1
  H  1143  1  0.36402300  0.58860500  0.72186700  1
  H  1173  1  0.38357700  0.64046500  0.90331100  1
  H  1174  1  0.37185900  0.66369800  0.92427600  1
  H  1175  1  0.36344700  0.68349200  0.94672800  1
  H  1176  1  0.35767800  0.70053300  0.97143800  1
  H  1177  1  0.40033700  0.65255300  0.99310100  1
  H  1178  1  0.42113600  0.60040100  0.93500000  1
  H  1179  1  0.44681900  0.65571600  0.95570700  1
  H  1180  1  0.49305100  0.61004700  0.97543200  1
  H  1181  1  0.46343300  0.58766700  0.98517200  1
  H  1182  1  0.36453200  0.60264200  0.96879500  1
  H  1183  1  0.43066200  0.57069400  0.99417400  1
  H  1184  1  0.39502200  0.55460600  0.99888600  1
  H  1214  1  0.22882600  0.36418100  0.40332900  1
  H  1215  1  0.24052900  0.34096600  0.42430300  1
  H  1216  1  0.24894200  0.32120600  0.44675900  1
  H  1217  1  0.25471600  0.30419700  0.47147300  1
  H  1218  1  0.21206100  0.35219700  0.49312000  1
  H  1219  1  0.19128400  0.40430200  0.43499400  1
  H  1220  1  0.16561300  0.34897900  0.45571300  1
  H  1221  1  0.11934000  0.39459900  0.47545000  1
  H  1222  1  0.14893800  0.41699100  0.48520300  1
  H  1223  1  0.24784700  0.40216500  0.46879400  1
  H  1224  1  0.18169100  0.43399400  0.49420100  1
  H  1225  1  0.21729500  0.45017400  0.49887900  1
  H  1255  1  0.44410100  0.42351500  0.15328100  1
  H  1256  1  0.46790500  0.43450800  0.17415700  1
  H  1257  1  0.48768600  0.44302600  0.19663000  1
  H  1258  1  0.50481100  0.44873500  0.22133500  1
  H  1259  1  0.45665100  0.40626700  0.24302900  1
  H  1260  1  0.40379600  0.38628000  0.18500700  1
  H  1261  1  0.45985400  0.35989600  0.20563300  1
  H  1262  1  0.41416900  0.31375200  0.22544700  1
  H  1263  1  0.39174700  0.34329600  0.23519100  1
  H  1264  1  0.40670000  0.44200500  0.21878100  1
  H  1265  1  0.37474100  0.37598800  0.24419100  1
  H  1266  1  0.35854800  0.41154100  0.24885800  1
  H  1296  1  0.16831600  0.58116000  0.65328800  1
  H  1297  1  0.14449200  0.57017900  0.67415100  1
  H  1298  1  0.12471600  0.56162000  0.69661300  1
  H  1299  1  0.10752900  0.55593100  0.72130400  1
  H  1300  1  0.15571200  0.59832700  0.74304100  1
  H  1301  1  0.20861600  0.61834200  0.68502900  1
  H  1302  1  0.15254900  0.64470900  0.70564200  1
  H  1303  1  0.19822700  0.69088200  0.72542300  1
  H  1304  1  0.22065500  0.66135500  0.73518200  1
  H  1305  1  0.20583300  0.56264800  0.71878700  1
  H  1306  1  0.23765400  0.62870400  0.74421900  1
  H  1307  1  0.25395800  0.59318800  0.74884700  1
  H  1315  1  0.35277700  0.73180300  0.03441900  1
  H  1316  1  0.35272700  0.70858600  0.02143900  1
  H  1317  1  0.33282400  0.73035200  0.01889700  1
  H  1322  1  0.40044300  0.78588700  0.97284100  1
  H  1323  1  0.42178700  0.76760700  0.97884600  1
  H  1324  1  0.41710000  0.79239900  0.98972800  1
  H  1328  1  0.37082600  0.80252900  0.01849800  1
  H  1330  1  0.40511600  0.70619400  0.99474300  1
  H  1333  1  0.25970100  0.27284000  0.53444100  1
  H  1334  1  0.25971100  0.29602800  0.52143500  1
  H  1335  1  0.27960200  0.27424800  0.51888400  1
  H  1340  1  0.21196200  0.21874400  0.47287100  1
  H  1341  1  0.19062900  0.23702800  0.47888100  1
  H  1342  1  0.19529100  0.21221800  0.48974800  1
  H  1346  1  0.24156900  0.20201900  0.51852500  1
  H  1348  1  0.20745600  0.29849400  0.49449200  1
  H  1351  1  0.57730500  0.04875500  0.28445700  1
  H  1352  1  0.60052900  0.04870600  0.27143400  1
  H  1353  1  0.57869500  0.02885600  0.26892400  1
  H  1358  1  0.52309700  0.09633800  0.22287000  1
  H  1359  1  0.54141000  0.11763300  0.22888400  1
  H  1360  1  0.51653900  0.11298200  0.23974200  1
  H  1364  1  0.50632000  0.06680200  0.26852300  1
  H  1366  1  0.60294300  0.10098300  0.24467500  1
  H  1369  1  0.03505100  0.95583000  0.78443100  1
  H  1370  1  0.01180400  0.95589000  0.77142900  1
  H  1371  1  0.03361600  0.97576200  0.76892200  1
  H  1376  1  0.08928000  0.90830100  0.72284400  1
  H  1377  1  0.07096000  0.88700500  0.72885100  1
  H  1378  1  0.09580500  0.89167900  0.73973200  1
  H  1382  1  0.10598700  0.93784400  0.76849000  1
  H  1384  1  0.00933200  0.90343100  0.74494300  1
  H  1387  1  0.25961700  0.73179800  0.43497000  1
  H  1388  1  0.25969300  0.70857100  0.44795000  1
  H  1389  1  0.27959900  0.73034200  0.45047500  1
  H  1394  1  0.21200600  0.78589900  0.49655000  1
  H  1395  1  0.19066500  0.76756600  0.49060100  1
  H  1396  1  0.19530500  0.79232700  0.47967000  1
  H  1400  1  0.24152600  0.80244200  0.45089200  1
  H  1402  1  0.20717900  0.70601300  0.47448500  1
  H  1405  1  0.35272900  0.27285200  0.93495700  1
  H  1406  1  0.35268200  0.29605400  0.94795600  1
  H  1407  1  0.33278700  0.27427200  0.95049000  1
  H  1412  1  0.40039400  0.21872400  0.99653000  1
  H  1413  1  0.42172300  0.23706500  0.99057400  1
  H  1414  1  0.41709800  0.21229200  0.97965200  1
  H  1418  1  0.37087700  0.20213000  0.95087100  1
  H  1420  1  0.40509600  0.29858800  0.97466200  1
  H  1423  1  0.03509700  0.04878400  0.18495600  1
  H  1424  1  0.01185400  0.04868800  0.19796500  1
  H  1425  1  0.03370800  0.02885500  0.20047000  1
  H  1430  1  0.08934400  0.09631100  0.24652600  1
  H  1431  1  0.07097200  0.11760300  0.24057400  1
  H  1432  1  0.09580000  0.11299200  0.22965600  1
  H  1436  1  0.10597500  0.06691400  0.20085700  1
  H  1438  1  0.00947500  0.10097400  0.22468000  1
  H  1441  1  0.57732400  0.95582600  0.68497500  1
  H  1442  1  0.60058600  0.95592700  0.69796800  1
  H  1443  1  0.57874900  0.97577400  0.70047600  1
  H  1448  1  0.52306800  0.90833400  0.74654100  1
  H  1449  1  0.54144200  0.88703900  0.74059400  1
  H  1450  1  0.51662800  0.89166400  0.72966300  1
  H  1454  1  0.50648500  0.93772500  0.70087500  1
  H  1456  1  0.60295600  0.90353300  0.72451900  1
  H  1459  1  0.75854800  0.27290200  0.93498000  1
  H  1460  1  0.75860100  0.29611500  0.94796800  1
  H  1461  1  0.77850500  0.27434600  0.95050200  1
  H  1466  1  0.71091000  0.21875400  0.99653900  1
  H  1467  1  0.68955900  0.23703100  0.99054200  1
  H  1468  1  0.69426100  0.21225000  0.97964700  1
  H  1472  1  0.74051200  0.20221600  0.95083800  1
  H  1474  1  0.70616400  0.29844300  0.97465700  1
  H  1477  1  0.85377300  0.73175100  0.43495900  1
  H  1478  1  0.85376000  0.70856800  0.44797200  1
  H  1479  1  0.83386700  0.73034900  0.45051400  1
  H  1484  1  0.90148400  0.78591200  0.49651000  1
  H  1485  1  0.92282300  0.76763200  0.49050800  1
  H  1486  1  0.91814600  0.79242900  0.47962700  1
  H  1490  1  0.87189200  0.80253100  0.45081100  1
  H  1492  1  0.90606300  0.70616400  0.47490900  1
  H  1495  1  0.85383900  0.27289400  0.53444500  1
  H  1496  1  0.85374400  0.29609100  0.52143700  1
  H  1497  1  0.83385400  0.27429700  0.51894000  1
  H  1502  1  0.90143800  0.21873700  0.47288000  1
  H  1503  1  0.92278100  0.23706100  0.47883000  1
  H  1504  1  0.91814600  0.21229200  0.48975200  1
  H  1508  1  0.87197800  0.20221900  0.51858600  1
  H  1510  1  0.90620800  0.29859800  0.49479200  1
  H  1513  1  0.75853500  0.73173200  0.03443000  1
  H  1514  1  0.75862900  0.70852100  0.02143400  1
  H  1515  1  0.77853000  0.73030300  0.01893100  1
  H  1520  1  0.71095900  0.78589700  0.97286700  1
  H  1521  1  0.68961300  0.76757300  0.97881400  1
  H  1522  1  0.69426300  0.79233000  0.98974600  1
  H  1526  1  0.74042400  0.80237600  0.01857300  1
  H  1528  1  0.70605800  0.70602000  0.99494100  1
  H  1531  1  0.07631300  0.55096000  0.78441700  1
  H  1532  1  0.09957600  0.55088800  0.77142900  1
  H  1533  1  0.07776500  0.53101500  0.76891600  1
  H  1538  1  0.02204600  0.59847800  0.72284800  1
  H  1539  1  0.04037300  0.61977100  0.72885000  1
  H  1540  1  0.01554700  0.61507500  0.73975100  1
  H  1544  1  0.00548400  0.56891600  0.76854500  1
  H  1546  1  0.10195700  0.60331000  0.74491800  1
  H  1549  1  0.53608800  0.45376200  0.28443400  1
  H  1550  1  0.51285600  0.45378900  0.27141900  1
  H  1551  1  0.53467300  0.47365200  0.26889700  1
  H  1556  1  0.59037900  0.40617300  0.22287400  1
  H  1557  1  0.57204900  0.38488900  0.22888300  1
  H  1558  1  0.59689100  0.38956600  0.23976900  1
  H  1562  1  0.60701600  0.43573800  0.26856600  1
  H  1564  1  0.51039800  0.40149500  0.24466800  1
  H  1567  1  0.53613200  0.55088800  0.68494000  1
  H  1568  1  0.51288800  0.55079700  0.69794500  1
  H  1569  1  0.53474200  0.53096700  0.70046000  1
  H  1574  1  0.59039600  0.59842800  0.74649800  1
  H  1575  1  0.57204800  0.61972700  0.74053200  1
  H  1576  1  0.59688100  0.61509200  0.72962700  1
  H  1580  1  0.60690700  0.56904400  0.70071500  1
  H  1582  1  0.51051600  0.60304600  0.72469900  1
  H  1585  1  0.07629000  0.45372500  0.18495800  1
  H  1586  1  0.09955200  0.45381900  0.19794800  1
  H  1587  1  0.07771400  0.47366200  0.20046700  1
  H  1592  1  0.02201600  0.40621800  0.24651400  1
  H  1593  1  0.04036500  0.38491400  0.24055300  1
  H  1594  1  0.01554600  0.38956400  0.22963400  1
  H  1598  1  0.00555200  0.43559400  0.20073200  1
  H  1600  1  0.10191600  0.40146200  0.22454000  1
  H  1603  1  0.58174500  0.89465700  0.98303000  1
  H  1604  1  0.59664200  0.87001100  0.98937200  1
  H  1605  1  0.57016200  0.87632600  0.99718200  1
  H  1610  1  0.51909600  0.81192000  0.95103700  1
  H  1611  1  0.54021000  0.81320800  0.93634300  1
  H  1612  1  0.51801800  0.83304700  0.93623400  1
  H  1616  1  0.50776200  0.85436600  0.98189400  1
  H  1618  1  0.60562000  0.83045100  0.95418900  1
  H  1621  1  0.03066000  0.11001700  0.48297000  1
  H  1622  1  0.01574900  0.13462700  0.48937700  1
  H  1623  1  0.04221700  0.12826100  0.49718600  1
  H  1628  1  0.09331100  0.19273900  0.45101900  1
  H  1629  1  0.07220400  0.19141100  0.43632300  1
  H  1630  1  0.09440400  0.17158300  0.43623800  1
  H  1634  1  0.10469100  0.15025400  0.48190100  1
  H  1636  1  0.00679600  0.17418600  0.45415500  1
  H  1639  1  0.41410900  0.27728500  0.23297600  1
  H  1640  1  0.43875600  0.29217600  0.23939600  1
  H  1641  1  0.43239300  0.26575200  0.24719200  1
  H  1646  1  0.49701500  0.21478500  0.20100500  1
  H  1647  1  0.49568400  0.23585900  0.18631700  1
  H  1648  1  0.47579000  0.21372600  0.18623900  1
  H  1652  1  0.45440000  0.20341800  0.23187900  1
  H  1654  1  0.47833500  0.30117500  0.20409200  1
  H  1657  1  0.19831300  0.72734400  0.73301000  1
  H  1658  1  0.17363900  0.71246400  0.73938600  1
  H  1659  1  0.17997600  0.73889400  0.74718700  1
  H  1664  1  0.11539000  0.78984200  0.70101900  1
  H  1665  1  0.11671500  0.76877500  0.68632500  1
  H  1666  1  0.13660200  0.79091500  0.68624400  1
  H  1670  1  0.15798200  0.80120800  0.73188000  1
  H  1672  1  0.13406000  0.70347600  0.70410600  1
  H  1675  1  0.03104400  0.89451900  0.48643500  1
  H  1676  1  0.01625800  0.86983100  0.48006400  1
  H  1677  1  0.04269100  0.87628400  0.47224300  1
  H  1682  1  0.09385800  0.81189400  0.51841800  1
  H  1683  1  0.07268500  0.81316300  0.53306900  1
  H  1684  1  0.09489400  0.83298100  0.53325400  1
  H  1688  1  0.10535700  0.85461800  0.48766200  1
  H  1690  1  0.00734900  0.83032000  0.51526300  1
  H  1693  1  0.58136300  0.11015000  0.98649100  1
  H  1694  1  0.59617100  0.13479700  0.98005500  1
  H  1695  1  0.56974600  0.12830500  0.97223600  1
  H  1700  1  0.51855000  0.19274900  0.01843500  1
  H  1701  1  0.53971400  0.19145000  0.03309100  1
  H  1702  1  0.51750100  0.17163300  0.03325000  1
  H  1706  1  0.50695500  0.14995500  0.98767800  1
  H  1708  1  0.60506800  0.17431100  0.01528500  1
  H  1711  1  0.19815300  0.27691600  0.23649400  1
  H  1712  1  0.17347400  0.29170100  0.23003200  1
  H  1713  1  0.17997500  0.26532100  0.22223100  1
  H  1718  1  0.11537100  0.21425500  0.26844900  1
  H  1719  1  0.11667500  0.23538600  0.28309800  1
  H  1720  1  0.13655200  0.21323900  0.28325100  1
  H  1724  1  0.15823700  0.20268900  0.23768300  1
  H  1726  1  0.13393500  0.30065100  0.26534000  1
  H  1729  1  0.41423300  0.72773300  0.73644800  1
  H  1730  1  0.43894900  0.71297000  0.73004000  1
  H  1731  1  0.43247400  0.73935600  0.72223600  1
  H  1736  1  0.49702800  0.79039300  0.76843700  1
  H  1737  1  0.49573000  0.76926700  0.78309100  1
  H  1738  1  0.47585900  0.79142000  0.78324700  1
  H  1742  1  0.45415000  0.80196000  0.73768500  1
  H  1744  1  0.47847700  0.70401200  0.76530900  1
  H  1747  1  0.69931500  0.72746600  0.73635300  1
  H  1748  1  0.67461100  0.71258400  0.73003700  1
  H  1749  1  0.68091800  0.73900300  0.72221300  1
  H  1754  1  0.61643400  0.78999700  0.76837100  1
  H  1755  1  0.61772800  0.76892300  0.78306100  1
  H  1756  1  0.63760300  0.79107100  0.78317600  1
  H  1760  1  0.65895000  0.80128300  0.73747100  1
  H  1762  1  0.63490500  0.70370900  0.76520700  1
  H  1765  1  0.91309700  0.27720300  0.23640800  1
  H  1766  1  0.93775600  0.29211400  0.23003000  1
  H  1767  1  0.93141800  0.26570200  0.22220600  1
  H  1772  1  0.99595600  0.21468300  0.26838600  1
  H  1773  1  0.99463400  0.23574300  0.28308400  1
  H  1774  1  0.97476000  0.21359500  0.28317200  1
  H  1778  1  0.95341400  0.20330200  0.23748700  1
  H  1780  1  0.97746700  0.30097700  0.26524400  1
  H  1783  1  0.91320300  0.72774700  0.73290000  1
  H  1784  1  0.93789200  0.71295500  0.73933800  1
  H  1785  1  0.93140200  0.73932700  0.74715400  1
  H  1790  1  0.99600000  0.79041200  0.70093700  1
  H  1791  1  0.99468400  0.76928500  0.68628600  1
  H  1792  1  0.97481000  0.79143600  0.68614000  1
  H  1796  1  0.95323000  0.80192300  0.73174900  1
  H  1798  1  0.97749700  0.70407200  0.70406900  1
  H  1801  1  0.69920900  0.27690600  0.23293400  1
  H  1802  1  0.67449000  0.29167600  0.23933500  1
  H  1803  1  0.68096700  0.26529900  0.24715100  1
  H  1808  1  0.61640200  0.21423800  0.20094800  1
  H  1809  1  0.61771400  0.23535900  0.18629200  1
  H  1810  1  0.63758000  0.21320000  0.18614400  1
  H  1814  1  0.65917800  0.20272100  0.23174700  1
  H  1816  1  0.63488300  0.30057000  0.20410100  1
  H  1819  1  0.08279700  0.39467300  0.48304200  1
  H  1820  1  0.09769400  0.37002800  0.48938300  1
  H  1821  1  0.07120600  0.37633300  0.49718600  1
  H  1826  1  0.02018000  0.31192800  0.45103900  1
  H  1827  1  0.04129800  0.31321900  0.43634900  1
  H  1828  1  0.01909700  0.33304500  0.43623100  1
  H  1832  1  0.00882800  0.35437100  0.48190000  1
  H  1834  1  0.10671000  0.33054400  0.45415400  1
  H  1837  1  0.52960300  0.61000000  0.98297900  1
  H  1838  1  0.51469500  0.63461000  0.98938500  1
  H  1839  1  0.54116900  0.62825000  0.99719000  1
  H  1844  1  0.59222800  0.69273200  0.95102300  1
  H  1845  1  0.57111600  0.69140000  0.93632900  1
  H  1846  1  0.59332600  0.67158200  0.93623700  1
  H  1850  1  0.60362400  0.65023900  0.98190900  1
  H  1852  1  0.50570600  0.67409400  0.95411600  1
  H  1855  1  0.52998000  0.39451300  0.98648200  1
  H  1856  1  0.51517600  0.36986800  0.98004500  1
  H  1857  1  0.54161000  0.37635000  0.97223600  1
  H  1862  1  0.59278100  0.31191100  0.01843900  1
  H  1863  1  0.57160000  0.31320500  0.03308500  1
  H  1864  1  0.59380600  0.33302900  0.03325400  1
  H  1868  1  0.60435800  0.35466200  0.98766000  1
  H  1870  1  0.50620600  0.33043100  0.01533200  1
  H  1873  1  0.08242400  0.61011300  0.48645500  1
  H  1874  1  0.09720500  0.63478400  0.48005200  1
  H  1875  1  0.07077000  0.62831100  0.47224100  1
  H  1880  1  0.01962500  0.69274300  0.51842900  1
  H  1881  1  0.04080100  0.69144100  0.53307800  1
  H  1882  1  0.01858600  0.67163100  0.53324700  1
  H  1886  1  0.00809700  0.64996600  0.48766200  1
  H  1888  1  0.10617100  0.67420900  0.51531500  1
  H  1891  1  0.38088700  0.94835400  0.87372800  1
  H  1892  1  0.37998300  0.93064100  0.89030700  1
  H  1893  1  0.36048800  0.92669200  0.87485600  1
  H  1898  1  0.42520900  0.86230100  0.83347300  1
  H  1899  1  0.44499600  0.86374900  0.84896500  1
  H  1900  1  0.44630100  0.88358000  0.83355100  1
  H  1904  1  0.39949600  0.92599700  0.82471000  1
  H  1906  1  0.42155200  0.87992400  0.89260400  1
  H  1909  1  0.23152800  0.05628500  0.37373000  1
  H  1910  1  0.23242600  0.07400300  0.39030800  1
  H  1911  1  0.25191900  0.07795400  0.37485400  1
  H  1916  1  0.18718900  0.14234600  0.33347800  1
  H  1917  1  0.16741900  0.14090700  0.34897900  1
  H  1918  1  0.16609300  0.12107200  0.33357000  1
  H  1922  1  0.21287400  0.07867100  0.32461900  1
  H  1924  1  0.19094400  0.12475800  0.39261800  1
  H  1927  1  0.36025700  0.07691000  0.12374500  1
  H  1928  1  0.37803000  0.07593900  0.14031100  1
  H  1929  1  0.38192000  0.05650300  0.12484200  1
  H  1934  1  0.44650800  0.12110300  0.08345400  1
  H  1935  1  0.44507300  0.14081700  0.09896400  1
  H  1936  1  0.42516900  0.14213400  0.08357200  1
  H  1940  1  0.38269500  0.09547000  0.07462800  1
  H  1942  1  0.42878600  0.11748800  0.14266600  1
  H  1945  1  0.25213100  0.92777700  0.62374600  1
  H  1946  1  0.23436500  0.92870700  0.64031800  1
  H  1947  1  0.23044100  0.94815200  0.62485700  1
  H  1952  1  0.16589200  0.88356400  0.58346800  1
  H  1953  1  0.16732800  0.86383800  0.59896900  1
  H  1954  1  0.18721200  0.86251500  0.58356600  1
  H  1958  1  0.22971300  0.90918900  0.57469500  1
  H  1960  1  0.18358800  0.88712400  0.64265000  1
  H  1963  1  0.73054500  0.05629700  0.09543200  1
  H  1964  1  0.73129200  0.07390300  0.07879300  1
  H  1965  1  0.75098400  0.07790000  0.09411600  1
  H  1970  1  0.68647200  0.14231700  0.13585000  1
  H  1971  1  0.66639100  0.14051200  0.12056600  1
  H  1972  1  0.66573600  0.12070100  0.13602100  1
  H  1976  1  0.71247800  0.07888600  0.14437900  1
  H  1978  1  0.68961100  0.12460600  0.07666500  1
  H  1981  1  0.88183900  0.94835900  0.59543500  1
  H  1982  1  0.88109500  0.93074500  0.57880100  1
  H  1983  1  0.86140900  0.92674800  0.59412800  1
  H  1988  1  0.92593200  0.86233000  0.63585200  1
  H  1989  1  0.94599500  0.86412500  0.62055700  1
  H  1990  1  0.94667600  0.88394000  0.63600700  1
  H  1994  1  0.89994900  0.92573700  0.64448400  1
  H  1996  1  0.92268000  0.87999900  0.57665500  1
  H  1999  1  0.75315500  0.92773100  0.84587500  1
  H  2000  1  0.73549000  0.92868200  0.82924800  1
  H  2001  1  0.73150900  0.94814600  0.84468500  1
  H  2006  1  0.66653000  0.88336500  0.88578300  1
  H  2007  1  0.66833200  0.86363600  0.87030500  1
  H  2008  1  0.68804800  0.86251500  0.88582300  1
  H  2012  1  0.73016500  0.90865000  0.89496700  1
  H  2014  1  0.68492900  0.88695500  0.82675300  1
  H  2017  1  0.85925300  0.07687200  0.34587800  1
  H  2018  1  0.87690700  0.07596900  0.32924600  1
  H  2019  1  0.88093200  0.05649400  0.34467200  1
  H  2024  1  0.94586700  0.12126200  0.38577100  1
  H  2025  1  0.94406100  0.14100500  0.37030400  1
  H  2026  1  0.92436800  0.14213200  0.38583500  1
  H  2030  1  0.88222500  0.09598000  0.39490000  1
  H  2032  1  0.92748000  0.11774800  0.32677400  1
  H  2035  1  0.88185400  0.44830200  0.37368000  1
  H  2036  1  0.88112200  0.43079200  0.39036800  1
  H  2037  1  0.86142100  0.42670400  0.37506800  1
  H  2042  1  0.92612200  0.36195900  0.33361600  1
  H  2043  1  0.94616300  0.36401900  0.34890700  1
  H  2044  1  0.94675800  0.38366800  0.33333333  1
  H  2048  1  0.90037000  0.42529600  0.32475400  1
  H  2050  1  0.92300300  0.38029500  0.39263600  1
  H  2053  1  0.73055900  0.55633700  0.87369000  1
  H  2054  1  0.73128700  0.57385500  0.89037600  1
  H  2055  1  0.75098400  0.57794300  0.87507200  1
  H  2060  1  0.68627500  0.64268800  0.83362700  1
  H  2061  1  0.66625100  0.64063500  0.84892900  1
  H  2062  1  0.66563500  0.62098100  0.83337900  1
  H  2066  1  0.71200700  0.57937700  0.82466200  1
  H  2068  1  0.68950700  0.62439900  0.89265800  1
  H  2071  1  0.85927400  0.57895000  0.62382100  1
  H  2072  1  0.87682000  0.57814600  0.64051100  1
  H  2073  1  0.88083400  0.55847100  0.62520300  1
  H  2078  1  0.94581800  0.62306500  0.58373300  1
  H  2079  1  0.94369300  0.64306900  0.59901400  1
  H  2080  1  0.92397700  0.64356600  0.58347500  1
  H  2084  1  0.88251000  0.59735200  0.57478700  1
  H  2086  1  0.92749700  0.61987500  0.64286000  1
  H  2089  1  0.75311300  0.42573600  0.12381600  1
  H  2090  1  0.73557500  0.42650000  0.14050900  1
  H  2091  1  0.73152400  0.44618400  0.12521200  1
  H  2096  1  0.66658100  0.38160200  0.08374100  1
  H  2097  1  0.66870700  0.36158300  0.09901300  1
  H  2098  1  0.68840300  0.36108000  0.08346100  1
  H  2102  1  0.72990400  0.40728200  0.07485100  1
  H  2104  1  0.68488000  0.38472700  0.14283600  1
  H  2107  1  0.23151600  0.55634700  0.59583500  1
  H  2108  1  0.23238300  0.57394300  0.57918900  1
  H  2109  1  0.25192200  0.57799000  0.59459600  1
  H  2114  1  0.18702900  0.64281600  0.63568300  1
  H  2115  1  0.16717900  0.64090400  0.62026300  1
  H  2116  1  0.16619200  0.62129200  0.63582800  1
  H  2120  1  0.21237700  0.57942700  0.64484600  1
  H  2122  1  0.19067100  0.62447500  0.57675100  1
  H  2125  1  0.38086700  0.44831100  0.09583300  1
  H  2126  1  0.38000700  0.43071500  0.07918600  1
  H  2127  1  0.36046900  0.42666100  0.09459400  1
  H  2132  1  0.42536900  0.36183200  0.13567600  1
  H  2133  1  0.44520400  0.36374100  0.12024800  1
  H  2134  1  0.44620900  0.38335400  0.13580900  1
  H  2138  1  0.40004400  0.42519900  0.14493600  1
  H  2140  1  0.42164400  0.38014900  0.07673300  1
  H  2143  1  0.25216600  0.42572600  0.34547600  1
  H  2144  1  0.23448400  0.42652100  0.32885800  1
  H  2145  1  0.23053000  0.44613800  0.34420000  1
  H  2150  1  0.16591300  0.38177900  0.38592800  1
  H  2151  1  0.16772700  0.36175600  0.37063500  1
  H  2152  1  0.18758800  0.36110200  0.38608500  1
  H  2156  1  0.22945200  0.40770400  0.39454700  1
  H  2158  1  0.18386300  0.38477600  0.32669400  1
  H  2161  1  0.36024400  0.57888300  0.84548400  1
  H  2162  1  0.37791600  0.57813000  0.82886000  1
  H  2163  1  0.38190800  0.55850300  0.84419400  1
  H  2168  1  0.44648600  0.62284800  0.88592200  1
  H  2169  1  0.44467100  0.64288500  0.87063700  1
  H  2170  1  0.42483100  0.64354800  0.88610000  1
  H  2174  1  0.38293600  0.59695200  0.89449000  1
  H  2176  1  0.42854500  0.61992900  0.82671900  1
  H  2179  1  0.32788000  0.02517200  0.95265700  1
  H  2180  1  0.32347900  0.04702200  0.96644200  1
  H  2181  1  0.30546000  0.02338900  0.96642200  1
  H  2186  1  0.37119800  0.96576800  0.01290700  1
  H  2187  1  0.38008300  0.99278500  0.01789600  1
  H  2188  1  0.39528000  0.97882800  0.00336000  1
  H  2192  1  0.32884100  0.95413400  0.98043300  1
  H  2194  1  0.35936700  0.05067900  0.00414600  1
  H  2197  1  0.28446800  0.97957100  0.45263600  1
  H  2198  1  0.28889400  0.95769100  0.46639600  1
  H  2199  1  0.30697300  0.98127700  0.46633600  1
  H  2204  1  0.24120700  0.03894800  0.51292800  1
  H  2205  1  0.23240800  0.01189800  0.51790700  1
  H  2206  1  0.21718700  0.02580400  0.50336100  1
  H  2210  1  0.28363500  0.05067900  0.48038900  1
  H  2212  1  0.25247500  0.95399000  0.50398000  1
  H  2215  1  0.28342800  0.02392400  0.20262800  1
  H  2216  1  0.26149000  0.01956500  0.21638800  1
  H  2217  1  0.28511700  0.00151200  0.21636800  1
  H  2222  1  0.34289200  0.06716400  0.26291700  1
  H  2223  1  0.31578900  0.07595000  0.26789100  1
  H  2224  1  0.32974600  0.09115100  0.25335700  1
  H  2228  1  0.35466000  0.02483800  0.23040900  1
  H  2230  1  0.25780700  0.05574400  0.25400400  1
  H  2233  1  0.32906900  0.98073000  0.70264600  1
  H  2234  1  0.35098400  0.98508400  0.71642400  1
  H  2235  1  0.32732800  0.00310300  0.71641300  1
  H  2240  1  0.26956700  0.93747800  0.76289600  1
  H  2241  1  0.29664300  0.92860900  0.76787300  1
  H  2242  1  0.28264200  0.91345100  0.75333800  1
  H  2246  1  0.25784700  0.97975100  0.73039700  1
  H  2248  1  0.35471700  0.94931100  0.75415700  1
  H  2251  1  0.78347000  0.97948200  0.01675500  1
  H  2252  1  0.78788600  0.95762600  0.00297700  1
  H  2253  1  0.80589700  0.98126200  0.00299600  1
  H  2258  1  0.74015300  0.03881300  0.95647900  1
  H  2259  1  0.73128200  0.01179500  0.95147800  1
  H  2260  1  0.71607700  0.02571700  0.96602600  1
  H  2264  1  0.78247500  0.05050300  0.98885400  1
  H  2266  1  0.75216900  0.95382200  0.96531900  1
  H  2269  1  0.82898300  0.02507000  0.51677600  1
  H  2270  1  0.82453800  0.04695600  0.50302200  1
  H  2271  1  0.80646800  0.02336500  0.50308400  1
  H  2276  1  0.87224100  0.96576600  0.45645900  1
  H  2277  1  0.88102400  0.99281500  0.45146700  1
  H  2278  1  0.89625500  0.97894700  0.46602400  1
  H  2282  1  0.82984900  0.95397600  0.48889500  1
  H  2284  1  0.86078200  0.05080500  0.46548100  1
  H  2287  1  0.82956000  0.98096600  0.76687600  1
  H  2288  1  0.85145100  0.98554900  0.75312500  1
  H  2289  1  0.82773800  0.00348200  0.75322600  1
  H  2294  1  0.77066800  0.93751500  0.70636200  1
  H  2295  1  0.79776800  0.92843600  0.70165200  1
  H  2296  1  0.78349500  0.91357100  0.71619700  1
  H  2300  1  0.75855200  0.97990000  0.73866600  1
  H  2302  1  0.85558700  0.95110500  0.71527000  1
  H  2305  1  0.78272900  0.02366600  0.26685700  1
  H  2306  1  0.76086000  0.01909300  0.25308900  1
  H  2307  1  0.78460200  0.00119400  0.25317400  1
  H  2312  1  0.84164300  0.06714000  0.20638600  1
  H  2313  1  0.81457800  0.07632800  0.20167900  1
  H  2314  1  0.82891900  0.09113700  0.21622200  1
  H  2318  1  0.85371200  0.02481700  0.23866900  1
  H  2320  1  0.75667400  0.05307700  0.21512900  1
  H  2323  1  0.82891900  0.52516500  0.45264400  1
  H  2324  1  0.82449400  0.54701500  0.46642500  1
  H  2325  1  0.80648300  0.52338000  0.46639600  1
  H  2330  1  0.87217300  0.46591100  0.51298400  1
  H  2331  1  0.88126100  0.49290000  0.51785900  1
  H  2332  1  0.89629500  0.47876100  0.50332900  1
  H  2336  1  0.82983900  0.45418100  0.48061200  1
  H  2338  1  0.86011100  0.55073100  0.50415800  1
  H  2341  1  0.78342700  0.47957700  0.95262300  1
  H  2342  1  0.78787700  0.45770000  0.96638100  1
  H  2343  1  0.80595000  0.48128900  0.96631000  1
  H  2348  1  0.74023600  0.53880700  0.01300300  1
  H  2349  1  0.73121500  0.51179300  0.01786300  1
  H  2350  1  0.71617200  0.52589200  0.00331900  1
  H  2354  1  0.78263800  0.55063700  0.98057800  1
  H  2356  1  0.75172600  0.45393600  0.00399600  1
  H  2359  1  0.78283500  0.52582500  0.70252300  1
  H  2360  1  0.76093400  0.52124600  0.71627000  1
  H  2361  1  0.78464500  0.50331000  0.71617500  1
  H  2366  1  0.84180600  0.56933100  0.76297200  1
  H  2367  1  0.81467300  0.57817300  0.76781600  1
  H  2368  1  0.82871200  0.59323200  0.75325600  1
  H  2372  1  0.85388100  0.52695600  0.73066000  1
  H  2374  1  0.75671300  0.55579300  0.75404900  1
  H  2377  1  0.82967100  0.47884300  0.20254200  1
  H  2378  1  0.85154700  0.48340800  0.21630700  1
  H  2379  1  0.82780700  0.50130700  0.21623300  1
  H  2384  1  0.77067700  0.43531200  0.26294700  1
  H  2385  1  0.79777700  0.42634500  0.26778500  1
  H  2386  1  0.78365800  0.41135700  0.25322400  1
  H  2390  1  0.75865100  0.47761800  0.23065300  1
  H  2392  1  0.85582500  0.44931100  0.25418800  1
  H  2395  1  0.28456000  0.47948900  0.51676800  1
  H  2396  1  0.28900000  0.45763300  0.50299400  1
  H  2397  1  0.30700700  0.48127200  0.50302200  1
  H  2402  1  0.24130600  0.53868100  0.45641100  1
  H  2403  1  0.23223600  0.51169200  0.45151600  1
  H  2404  1  0.21719100  0.52578600  0.46606000  1
  H  2408  1  0.28360600  0.55045800  0.48867600  1
  H  2410  1  0.25354900  0.45377000  0.46531200  1
  H  2413  1  0.32789300  0.52506400  0.01679000  1
  H  2414  1  0.32342700  0.54694900  0.00303900  1
  H  2415  1  0.30535900  0.52335700  0.00311000  1
  H  2420  1  0.37108200  0.46590500  0.95638600  1
  H  2421  1  0.38007600  0.49292300  0.95150600  1
  H  2422  1  0.39513800  0.47887000  0.96606100  1
  H  2426  1  0.32871400  0.45402000  0.98871100  1
  H  2428  1  0.35940800  0.55086400  0.96546900  1
  H  2431  1  0.32895700  0.47863700  0.26679600  1
  H  2432  1  0.35090000  0.48303500  0.25304600  1
  H  2433  1  0.32726600  0.50107700  0.25307800  1
  H  2438  1  0.26970500  0.43546400  0.20639700  1
  H  2439  1  0.29677900  0.42649000  0.20152100  1
  H  2440  1  0.28268400  0.41144400  0.21606400  1
  H  2444  1  0.25778800  0.47773200  0.23869700  1
  H  2446  1  0.35479600  0.44729700  0.21544700  1
  H  2449  1  0.28334400  0.52600400  0.76677900  1
  H  2450  1  0.26142400  0.52161100  0.75301200  1
  H  2451  1  0.28508700  0.50360400  0.75303200  1
  H  2456  1  0.34263100  0.56918500  0.70641900  1
  H  2457  1  0.31558700  0.57825700  0.70154400  1
  H  2458  1  0.32973700  0.59324900  0.71608700  1
  H  2462  1  0.35450200  0.52697500  0.73870300  1
  H  2464  1  0.25747500  0.55695000  0.71530300  1
  C  1  1  0.40055400  0.89661500  0.96963600  1
  C  2  1  0.41814800  0.90676100  0.97785600  1
  C  3  1  0.43770800  0.89508700  0.97557200  1
  C  4  1  0.43369800  0.87661500  0.96581900  1
  C  5  1  0.45248400  0.86332600  0.96121100  1
  C  6  1  0.47460200  0.86898300  0.96640300  1
  C  7  1  0.47739800  0.88838000  0.97587600  1
  C  8  1  0.45916300  0.90125800  0.98075000  1
  C  9  1  0.41492600  0.92548200  0.98745000  1
  C  10  1  0.39338700  0.93447300  0.98814000  1
  C  11  1  0.37562100  0.92717600  0.97859100  1
  C  12  1  0.37905800  0.90708400  0.96983900  1
  C  13  1  0.40374900  0.87566800  0.94459600  1
  C  14  1  0.39063400  0.85673300  0.94129100  1
  C  15  1  0.38656800  0.84460500  0.95487900  1
  C  16  1  0.39729300  0.85509900  0.96752300  1
  C  17  1  0.37264000  0.82575500  0.95691100  1
  C  18  1  0.36948700  0.81702600  0.97209500  1
  C  19  1  0.38103100  0.82621900  0.98510300  1
  C  20  1  0.39437600  0.84581900  0.98281500  1
  C  21  1  0.40809800  0.89136200  0.93228000  1
  C  22  1  0.39970300  0.88730600  0.91680000  1
  C  23  1  0.38656500  0.86783600  0.91421300  1
  C  24  1  0.38210500  0.85248400  0.92622500  1
  C  37  1  0.40908200  0.87585100  0.96182100  1
  C  42  1  0.21183200  0.10804800  0.46963700  1
  C  43  1  0.19424300  0.09790300  0.47786200  1
  C  44  1  0.17467700  0.10955700  0.47556300  1
  C  45  1  0.17868300  0.12803000  0.46580900  1
  C  46  1  0.15990100  0.14133100  0.46120900  1
  C  47  1  0.13777400  0.13559400  0.46634500  1
  C  48  1  0.13498100  0.11624300  0.47586100  1
  C  49  1  0.15322200  0.10336900  0.48072900  1
  C  50  1  0.19748800  0.07921200  0.48748200  1
  C  51  1  0.21902000  0.07020000  0.48814600  1
  C  52  1  0.23677900  0.07749700  0.47858900  1
  C  53  1  0.23333500  0.09759700  0.46985000  1
  C  54  1  0.20863800  0.12898800  0.44459600  1
  C  55  1  0.22176000  0.14791800  0.44129100  1
  C  56  1  0.22582000  0.16005000  0.45487800  1
  C  57  1  0.21511500  0.14953600  0.46752200  1
  C  58  1  0.23975700  0.17889000  0.45691400  1
  C  59  1  0.24290800  0.18761400  0.47210100  1
  C  60  1  0.23135600  0.17841500  0.48510500  1
  C  61  1  0.21800000  0.15882700  0.48281100  1
  C  62  1  0.20429500  0.11329000  0.43228200  1
  C  63  1  0.21272700  0.11732400  0.41681000  1
  C  64  1  0.22584300  0.13680600  0.41421700  1
  C  65  1  0.23029800  0.15216100  0.42622700  1
  C  78  1  0.20330100  0.12880400  0.46181800  1
  C  83  1  0.41213900  0.09648900  0.21963600  1
  C  84  1  0.40194900  0.11405000  0.22783600  1
  C  85  1  0.41365300  0.13356400  0.22555400  1
  C  86  1  0.43217300  0.12956100  0.21580900  1
  C  87  1  0.44550000  0.14830200  0.21120300  1
  C  88  1  0.43977000  0.17038100  0.21635000  1
  C  89  1  0.42037400  0.17316900  0.22586500  1
  C  90  1  0.40745800  0.15497300  0.23072500  1
  C  91  1  0.38324900  0.11080300  0.23748200  1
  C  92  1  0.37422500  0.08931400  0.23815500  1
  C  93  1  0.38153100  0.07159400  0.22859400  1
  C  94  1  0.40167300  0.07502900  0.21985500  1
  C  95  1  0.43310600  0.09963600  0.19459900  1
  C  96  1  0.45210200  0.08658100  0.19129100  1
  C  97  1  0.46425600  0.08253000  0.20487700  1
  C  98  1  0.45371900  0.09321200  0.21752100  1
  C  99  1  0.48313900  0.06862900  0.20691700  1
  C  100  1  0.49187700  0.06548800  0.22210500  1
  C  101  1  0.48267600  0.07703100  0.23510800  1
  C  102  1  0.46303100  0.09033900  0.23281100  1
  C  103  1  0.41740000  0.10400800  0.18227600  1
  C  104  1  0.42144900  0.09558600  0.16680500  1
  C  105  1  0.44098000  0.08250900  0.16421400  1
  C  106  1  0.45636400  0.07806800  0.17622700  1
  C  119  1  0.43293800  0.10499600  0.21181500  1
  C  124  1  0.20027600  0.90816100  0.71962900  1
  C  125  1  0.21046500  0.89059800  0.72782900  1
  C  126  1  0.19874200  0.87109000  0.72556000  1
  C  127  1  0.18020500  0.87510100  0.71583200  1
  C  128  1  0.16689500  0.85635500  0.71120800  1
  C  129  1  0.17259100  0.83428200  0.71638300  1
  C  130  1  0.19201400  0.83148400  0.72587000  1
  C  131  1  0.20494100  0.84967700  0.73072000  1
  C  132  1  0.22919100  0.89382400  0.73745300  1
  C  133  1  0.23819200  0.91532200  0.73815300  1
  C  134  1  0.23090700  0.93303800  0.72858200  1
  C  135  1  0.21076200  0.92961300  0.71984200  1
  C  136  1  0.17928200  0.90498500  0.69459200  1
  C  137  1  0.16032400  0.91810200  0.69129500  1
  C  138  1  0.14815400  0.92213600  0.70487700  1
  C  139  1  0.15868300  0.91145000  0.71752300  1
  C  140  1  0.12926300  0.93602800  0.70690900  1
  C  141  1  0.12050700  0.93916100  0.72209200  1
  C  142  1  0.12969800  0.92762100  0.73509800  1
  C  143  1  0.14935000  0.91431800  0.73280800  1
  C  144  1  0.19500300  0.90064900  0.68227100  1
  C  145  1  0.19093500  0.90904100  0.66679300  1
  C  146  1  0.17141100  0.92213100  0.66420800  1
  C  147  1  0.15604200  0.92659100  0.67622700  1
  C  160  1  0.17946300  0.89966200  0.71181800  1
  C  165  1  0.21262100  0.89751600  0.49762600  1
  C  166  1  0.19422500  0.90752900  0.49016000  1
  C  167  1  0.17485900  0.89604900  0.49356600  1
  C  168  1  0.17949900  0.87760700  0.50321000  1
  C  169  1  0.16091400  0.86414300  0.50814300  1
  C  170  1  0.13852700  0.86936300  0.50317000  1
  C  171  1  0.13526700  0.88865900  0.49369500  1
  C  172  1  0.15316300  0.90177400  0.48862700  1
  C  173  1  0.19599900  0.92642700  0.48044500  1
  C  174  1  0.21715700  0.93541700  0.47764400  1
  C  175  1  0.23651800  0.92652800  0.48494900  1
  C  176  1  0.23416100  0.90760600  0.49523000  1
  C  177  1  0.20984000  0.87734200  0.52396100  1
  C  178  1  0.22335000  0.85873200  0.52746400  1
  C  179  1  0.22701900  0.84609900  0.51407100  1
  C  180  1  0.21597600  0.85614900  0.50136700  1
  C  181  1  0.24019900  0.82666000  0.51234100  1
  C  182  1  0.24283200  0.81726400  0.49730700  1
  C  183  1  0.23136700  0.82632100  0.48421700  1
  C  184  1  0.21834800  0.84617300  0.48626400  1
  C  185  1  0.20287700  0.89139200  0.53666900  1
  C  186  1  0.21063100  0.88726700  0.55232400  1
  C  187  1  0.22470600  0.86848800  0.55497200  1
  C  188  1  0.23106700  0.85418600  0.54272900  1
  C  201  1  0.20439500  0.87723900  0.50664500  1
  C  206  1  0.39976100  0.10706000  0.99760500  1
  C  207  1  0.41816800  0.09707300  0.99013300  1
  C  208  1  0.43752100  0.10856900  0.99354900  1
  C  209  1  0.43286900  0.12698500  0.00321200  1
  C  210  1  0.45143800  0.14048300  0.00813100  1
  C  211  1  0.47383000  0.13527700  0.00316400  1
  C  212  1  0.47710400  0.11596700  0.99370300  1
  C  213  1  0.45922200  0.10285200  0.98862000  1
  C  214  1  0.41642400  0.07815800  0.98042900  1
  C  215  1  0.39528800  0.06910700  0.97764600  1
  C  216  1  0.37592500  0.07795800  0.98496300  1
  C  217  1  0.37824500  0.09691400  0.99522200  1
  C  218  1  0.40252100  0.12725500  0.02394300  1
  C  219  1  0.38902400  0.14587500  0.02744600  1
  C  220  1  0.38536700  0.15851100  0.01405500  1
  C  221  1  0.39639700  0.14844900  0.00135000  1
  C  222  1  0.37222900  0.17798100  0.01233400  1
  C  223  1  0.36957900  0.18736300  0.99729700  1
  C  224  1  0.38103800  0.17829800  0.98420600  1
  C  225  1  0.39403600  0.15843300  0.98625000  1
  C  226  1  0.40949100  0.11321700  0.03665600  1
  C  227  1  0.40174500  0.11735900  0.05231000  1
  C  228  1  0.38768200  0.13614900  0.05495500  1
  C  229  1  0.38132200  0.15044400  0.04270900  1
  C  242  1  0.40796800  0.12735000  0.00662700  1
  C  247  1  0.20115600  0.09570600  0.24761900  1
  C  248  1  0.21119300  0.11406800  0.24015600  1
  C  249  1  0.19968700  0.13338800  0.24356700  1
  C  250  1  0.18122000  0.12875700  0.25322100  1
  C  251  1  0.16770800  0.14729500  0.25814200  1
  C  252  1  0.17293900  0.16963700  0.25317300  1
  C  253  1  0.19229000  0.17289000  0.24370900  1
  C  254  1  0.20542900  0.15503800  0.23863500  1
  C  255  1  0.23013200  0.11230700  0.23043900  1
  C  256  1  0.23920000  0.09121000  0.22768200  1
  C  257  1  0.23037600  0.07193600  0.23508000  1
  C  258  1  0.21126400  0.07421200  0.24522800  1
  C  259  1  0.18095600  0.09846400  0.27395300  1
  C  260  1  0.16230400  0.08498700  0.27745900  1
  C  261  1  0.14963400  0.08133800  0.26407100  1
  C  262  1  0.15970400  0.09235800  0.25136600  1
  C  263  1  0.13014900  0.06819200  0.26233900  1
  C  264  1  0.12074700  0.06554800  0.24730300  1
  C  265  1  0.12984200  0.07697200  0.23421300  1
  C  266  1  0.14972200  0.08998300  0.23626100  1
  C  267  1  0.19504200  0.10540400  0.28666000  1
  C  268  1  0.19090200  0.09767200  0.30231500  1
  C  269  1  0.17208100  0.08362800  0.30496200  1
  C  270  1  0.15776200  0.07725900  0.29271700  1
  C  283  1  0.18083900  0.10391200  0.25664100  1
  C  288  1  0.41119000  0.90894500  0.74759900  1
  C  289  1  0.40118100  0.89057400  0.74012900  1
  C  290  1  0.41270900  0.87126800  0.74353900  1
  C  291  1  0.43116300  0.87591300  0.75320200  1
  C  292  1  0.44468100  0.85737900  0.75812700  1
  C  293  1  0.43946100  0.83503100  0.75316500  1
  C  294  1  0.42011200  0.83176700  0.74370000  1
  C  295  1  0.40698900  0.84961500  0.73859800  1
  C  296  1  0.38222900  0.89230500  0.73041900  1
  C  297  1  0.37308200  0.91337600  0.72769800  1
  C  298  1  0.38187800  0.93265700  0.73509500  1
  C  299  1  0.40101800  0.93041600  0.74522600  1
  C  300  1  0.43140700  0.90620700  0.77393900  1
  C  301  1  0.45006600  0.91967000  0.77744900  1
  C  302  1  0.46275300  0.92329800  0.76406600  1
  C  303  1  0.45266400  0.91231500  0.75135200  1
  C  304  1  0.48223200  0.93645600  0.76233900  1
  C  305  1  0.49165000  0.93909500  0.74730700  1
  C  306  1  0.48256000  0.92767900  0.73421300  1
  C  307  1  0.46266200  0.91468900  0.73625100  1
  C  308  1  0.41733700  0.89925500  0.78665200  1
  C  309  1  0.42143200  0.90700600  0.80231100  1
  C  310  1  0.44027200  0.92103500  0.80495100  1
  C  311  1  0.45461600  0.92737400  0.79271300  1
  C  324  1  0.43152100  0.90076100  0.75662300  1
  C  329  1  0.71082400  0.10779200  0.99963200  1
  C  330  1  0.69301600  0.09752100  0.99170400  1
  C  331  1  0.67353600  0.10922300  0.99420800  1
  C  332  1  0.67811400  0.12811300  0.00341500  1
  C  333  1  0.65992000  0.14238500  0.00751600  1
  C  334  1  0.63753800  0.13629900  0.00335400  1
  C  335  1  0.63385200  0.11595500  0.99533300  1
  C  336  1  0.65169200  0.10273200  0.99010200  1
  C  337  1  0.69610700  0.07889100  0.98201000  1
  C  338  1  0.71769000  0.06997900  0.98111600  1
  C  339  1  0.73555900  0.07722000  0.99061500  1
  C  340  1  0.73227500  0.09731400  0.99935700  1
  C  341  1  0.70781100  0.12886200  0.02462800  1
  C  342  1  0.72084900  0.14782400  0.02797500  1
  C  343  1  0.72499200  0.15994000  0.01439400  1
  C  344  1  0.71444300  0.14938800  0.00170400  1
  C  345  1  0.73877000  0.17889700  0.01241200  1
  C  346  1  0.74191000  0.18767200  0.99724000  1
  C  347  1  0.73044200  0.17844600  0.98420800  1
  C  348  1  0.71723600  0.15875400  0.98643900  1
  C  349  1  0.70332400  0.11321500  0.03695500  1
  C  350  1  0.71157100  0.11732400  0.05247000  1
  C  351  1  0.72467200  0.13680800  0.05508700  1
  C  352  1  0.72920900  0.15213900  0.04307700  1
  C  365  1  0.70263900  0.12868400  0.00737600  1
  C  370  1  0.90159000  0.89684100  0.49963200  1
  C  371  1  0.91939400  0.90711200  0.49170100  1
  C  372  1  0.93887800  0.89542100  0.49421300  1
  C  373  1  0.93430200  0.87652900  0.50341800  1
  C  374  1  0.95249000  0.86224600  0.50750500  1
  C  375  1  0.97487300  0.86834500  0.50335600  1
  C  376  1  0.97856200  0.88867900  0.49532200  1
  C  377  1  0.96072400  0.90192800  0.49012600  1
  C  378  1  0.91628200  0.92571000  0.48198100  1
  C  379  1  0.89470700  0.93464500  0.48111100  1
  C  380  1  0.87684400  0.92740600  0.49061800  1
  C  381  1  0.88013300  0.90730400  0.49934800  1
  C  382  1  0.90460300  0.87577900  0.52463100  1
  C  383  1  0.89155400  0.85682200  0.52797600  1
  C  384  1  0.88741900  0.84470400  0.51439700  1
  C  385  1  0.89795100  0.85526900  0.50170600  1
  C  386  1  0.87363200  0.82575200  0.51240800  1
  C  387  1  0.87049400  0.81698500  0.49723400  1
  C  388  1  0.88196600  0.82621700  0.48420600  1
  C  389  1  0.89518300  0.84589900  0.48644300  1
  C  390  1  0.90908300  0.89143000  0.53695500  1
  C  391  1  0.90079900  0.88734300  0.55246200  1
  C  392  1  0.88772000  0.86784500  0.55508400  1
  C  393  1  0.88318400  0.85251200  0.54307500  1
  C  406  1  0.90977600  0.87595700  0.50737900  1
  C  411  1  0.70165700  0.90805900  0.74975100  1
  C  412  1  0.71182500  0.89049500  0.74155200  1
  C  413  1  0.69991600  0.87108000  0.74369800  1
  C  414  1  0.68128300  0.87520500  0.75332000  1
  C  415  1  0.66796400  0.85648100  0.75799000  1
  C  416  1  0.67370200  0.83435300  0.75293300  1
  C  417  1  0.69311400  0.83148900  0.74344700  1
  C  418  1  0.70610000  0.84963800  0.73859100  1
  C  419  1  0.73050500  0.89377700  0.73189100  1
  C  420  1  0.73939900  0.91532500  0.73116000  1
  C  421  1  0.73215200  0.93297400  0.74081500  1
  C  422  1  0.71210800  0.92949700  0.74961400  1
  C  423  1  0.68082400  0.90476700  0.77472900  1
  C  424  1  0.66204300  0.91794900  0.77819200  1
  C  425  1  0.65027900  0.92276200  0.76465200  1
  C  426  1  0.66028700  0.91235700  0.75166600  1
  C  427  1  0.63180800  0.93718800  0.76333700  1
  C  428  1  0.62283500  0.94132800  0.74848800  1
  C  429  1  0.63128900  0.93054300  0.73492200  1
  C  430  1  0.65028500  0.91593600  0.73654000  1
  C  431  1  0.69647800  0.90023700  0.78707900  1
  C  432  1  0.69250000  0.90861600  0.80259300  1
  C  433  1  0.67301900  0.92170800  0.80527100  1
  C  434  1  0.65769600  0.92627200  0.79330200  1
  C  447  1  0.68071100  0.89976400  0.75740100  1
  C  452  1  0.91068500  0.09659000  0.24977400  1
  C  453  1  0.90052800  0.11415400  0.24156900  1
  C  454  1  0.91246300  0.13355800  0.24369900  1
  C  455  1  0.93111400  0.12942300  0.25330100  1
  C  456  1  0.94441800  0.14814400  0.25799400  1
  C  457  1  0.93872700  0.17026500  0.25290400  1
  C  458  1  0.91928700  0.17314100  0.24344300  1
  C  459  1  0.90628200  0.15500200  0.23859700  1
  C  460  1  0.88182700  0.11089600  0.23192400  1
  C  461  1  0.87296700  0.08933400  0.23115600  1
  C  462  1  0.88018100  0.07169200  0.24083100  1
  C  463  1  0.90021900  0.07516100  0.24964100  1
  C  464  1  0.93156500  0.09991500  0.27474900  1
  C  465  1  0.95030500  0.08666600  0.27819200  1
  C  466  1  0.96208000  0.08188000  0.26465100  1
  C  467  1  0.95205800  0.09228300  0.25166900  1
  C  468  1  0.98055900  0.06746600  0.26332800  1
  C  469  1  0.98951300  0.06333200  0.24847200  1
  C  470  1  0.98103200  0.07410300  0.23490700  1
  C  471  1  0.96203300  0.08870000  0.23653600  1
  C  472  1  0.91589700  0.10440000  0.28709700  1
  C  473  1  0.91990600  0.09604900  0.30261800  1
  C  474  1  0.93938300  0.08294900  0.30528400  1
  C  475  1  0.95468600  0.07836800  0.29330500  1
  C  488  1  0.93164400  0.10487600  0.25741400  1
  C  493  1  0.90081200  0.10688900  0.47189400  1
  C  494  1  0.91941800  0.09680800  0.47908400  1
  C  495  1  0.93868600  0.10827500  0.47537800  1
  C  496  1  0.93347100  0.12706500  0.46623900  1
  C  497  1  0.95144500  0.14151100  0.46179500  1
  C  498  1  0.97408400  0.13591900  0.46574800  1
  C  499  1  0.97825800  0.11573000  0.47380600  1
  C  500  1  0.96076800  0.10226700  0.47924800  1
  C  501  1  0.91781300  0.07803700  0.48892300  1
  C  502  1  0.89667000  0.06903800  0.49188300  1
  C  503  1  0.87720000  0.07786100  0.48466500  1
  C  504  1  0.87934200  0.09679100  0.47439900  1
  C  505  1  0.90327000  0.12714500  0.44555700  1
  C  506  1  0.88994800  0.14587700  0.44204200  1
  C  507  1  0.88627700  0.15849300  0.45543800  1
  C  508  1  0.89712300  0.14833700  0.46817800  1
  C  509  1  0.87323800  0.17802400  0.45714300  1
  C  510  1  0.87061000  0.18742000  0.47217500  1
  C  511  1  0.88201200  0.17831000  0.48527400  1
  C  512  1  0.89488700  0.15836900  0.48326200  1
  C  513  1  0.91007200  0.11301200  0.43283800  1
  C  514  1  0.90227600  0.11715300  0.41718600  1
  C  515  1  0.88849600  0.13615200  0.41454300  1
  C  516  1  0.88233700  0.15054500  0.42677600  1
  C  529  1  0.90865600  0.12726600  0.46289600  1
  C  534  1  0.71159300  0.89781700  0.97192100  1
  C  535  1  0.69297700  0.90787400  0.97911300  1
  C  536  1  0.67371900  0.89639800  0.97539500  1
  C  537  1  0.67894800  0.87762100  0.96625000  1
  C  538  1  0.66098200  0.86316400  0.96180200  1
  C  539  1  0.63833500  0.86874600  0.96574700  1
  C  540  1  0.63414900  0.88894100  0.97379400  1
  C  541  1  0.65163100  0.90240300  0.97924800  1
  C  542  1  0.69455200  0.92666700  0.98893800  1
  C  543  1  0.71567400  0.93572900  0.99187700  1
  C  544  1  0.73514600  0.92694600  0.98464700  1
  C  545  1  0.73304000  0.90797700  0.97440800  1
  C  546  1  0.70916000  0.87754700  0.94558100  1
  C  547  1  0.72247500  0.85880800  0.94206700  1
  C  548  1  0.72613600  0.84618500  0.95545800  1
  C  549  1  0.71530100  0.85634800  0.96820100  1
  C  550  1  0.73913400  0.82662300  0.95714800  1
  C  551  1  0.74177800  0.81722900  0.97217700  1
  C  552  1  0.73038700  0.82633800  0.98528200  1
  C  553  1  0.71753000  0.84629600  0.98327900  1
  C  554  1  0.70236200  0.89167600  0.93285800  1
  C  555  1  0.71014400  0.88751400  0.91720400  1
  C  556  1  0.72391500  0.86850600  0.91456500  1
  C  557  1  0.73007200  0.85412100  0.92679900  1
  C  570  1  0.70377000  0.87742800  0.96292100  1
  C  575  1  0.91015600  0.90870900  0.72188100  1
  C  576  1  0.90003200  0.89035600  0.72928000  1
  C  577  1  0.91165900  0.87110800  0.72594300  1
  C  578  1  0.93028800  0.87586000  0.71645500  1
  C  579  1  0.94376400  0.85733900  0.71146400  1
  C  580  1  0.93846400  0.83496200  0.71632000  1
  C  581  1  0.91906800  0.83163100  0.72572700  1
  C  582  1  0.90586800  0.84944000  0.73079400  1
  C  583  1  0.88105100  0.89216600  0.73895800  1
  C  584  1  0.87220200  0.91333600  0.74181500  1
  C  585  1  0.88133200  0.93256000  0.73454400  1
  C  586  1  0.90028200  0.93024600  0.72431000  1
  C  587  1  0.93015500  0.90581300  0.69555300  1
  C  588  1  0.94847900  0.91957900  0.69194300  1
  C  589  1  0.96075400  0.92397800  0.70529400  1
  C  590  1  0.95130200  0.91311400  0.71831600  1
  C  591  1  0.97979500  0.93770200  0.70631800  1
  C  592  1  0.98946400  0.94130300  0.72101300  1
  C  593  1  0.98116600  0.93056000  0.73463700  1
  C  594  1  0.96192700  0.91624700  0.73326300  1
  C  595  1  0.91629700  0.89858700  0.68277700  1
  C  596  1  0.92046100  0.90625400  0.66708000  1
  C  597  1  0.93914900  0.92045000  0.66442000  1
  C  598  1  0.95317000  0.92716100  0.67666900  1
  C  611  1  0.93055700  0.90069900  0.71297800  1
  C  616  1  0.70235200  0.09595800  0.22188100  1
  C  617  1  0.71243800  0.11431800  0.22929800  1
  C  618  1  0.70078400  0.13355000  0.22596200  1
  C  619  1  0.68217700  0.12878500  0.21645900  1
  C  620  1  0.66868400  0.14729300  0.21146600  1
  C  621  1  0.67395800  0.16967500  0.21632600  1
  C  622  1  0.69334300  0.17302000  0.22574100  1
  C  623  1  0.70653200  0.15522000  0.23083500  1
  C  624  1  0.73142500  0.11253700  0.23897200  1
  C  625  1  0.74035200  0.09138900  0.24179200  1
  C  626  1  0.73125700  0.07216100  0.23451100  1
  C  627  1  0.71228100  0.07444200  0.22429300  1
  C  628  1  0.68232000  0.09882700  0.19555200  1
  C  629  1  0.66398000  0.08508000  0.19194600  1
  C  630  1  0.65170700  0.08070400  0.20530500  1
  C  631  1  0.66119700  0.09153700  0.21832600  1
  C  632  1  0.63266400  0.06698500  0.20634200  1
  C  633  1  0.62301500  0.06340000  0.22104500  1
  C  634  1  0.63137400  0.07409200  0.23467600  1
  C  635  1  0.65061300  0.08839200  0.23328600  1
  C  636  1  0.69615500  0.10605700  0.18276500  1
  C  637  1  0.69202000  0.09837000  0.16706800  1
  C  638  1  0.67331000  0.08419200  0.16442100  1
  C  639  1  0.65926900  0.07751700  0.17667100  1
  C  652  1  0.68193900  0.10394600  0.21297800  1
  C  657  1  0.90167900  0.39701600  0.46967400  1
  C  658  1  0.91929000  0.40709900  0.47790200  1
  C  659  1  0.93875200  0.39521200  0.47573700  1
  C  660  1  0.93461200  0.37663900  0.46610200  1
  C  661  1  0.95337300  0.36334400  0.46142200  1
  C  662  1  0.97555600  0.36898000  0.46652200  1
  C  663  1  0.97842900  0.38839600  0.47596700  1
  C  664  1  0.96024900  0.40135400  0.48084400  1
  C  665  1  0.91607000  0.42582000  0.48749700  1
  C  666  1  0.89449300  0.43474400  0.48823100  1
  C  667  1  0.87677100  0.42754200  0.47859900  1
  C  668  1  0.88022300  0.40752900  0.46979200  1
  C  669  1  0.90503400  0.37617400  0.44469000  1
  C  670  1  0.89180700  0.35744700  0.44122300  1
  C  671  1  0.88696800  0.34571700  0.45476300  1
  C  672  1  0.89739200  0.35570800  0.46775100  1
  C  673  1  0.87251600  0.32727900  0.45606900  1
  C  674  1  0.86838100  0.31830900  0.47091300  1
  C  675  1  0.87921200  0.32673800  0.48446900  1
  C  676  1  0.89380400  0.34573000  0.48287600  1
  C  677  1  0.90955400  0.39180900  0.43235000  1
  C  678  1  0.90123300  0.38779500  0.41682300  1
  C  679  1  0.88808900  0.36837600  0.41413800  1
  C  680  1  0.88349600  0.35309000  0.42610600  1
  C  693  1  0.90999300  0.37610000  0.46202300  1
  C  698  1  0.71072000  0.60766800  0.96968800  1
  C  699  1  0.69310900  0.59757500  0.97790900  1
  C  700  1  0.67364300  0.60945100  0.97573800  1
  C  701  1  0.67778200  0.62803000  0.96610500  1
  C  702  1  0.65902000  0.64133200  0.96143300  1
  C  703  1  0.63682800  0.63560700  0.96646700  1
  C  704  1  0.63395900  0.61623200  0.97595000  1
  C  705  1  0.65214400  0.60328100  0.98082300  1
  C  706  1  0.69633200  0.57884800  0.98749800  1
  C  707  1  0.71791200  0.56993200  0.98823100  1
  C  708  1  0.73562900  0.57713100  0.97859200  1
  C  709  1  0.73217700  0.59716100  0.96980600  1
  C  710  1  0.70736000  0.62850100  0.94470300  1
  C  711  1  0.72060700  0.64721400  0.94123300  1
  C  712  1  0.72544100  0.65895900  0.95476700  1
  C  713  1  0.71502500  0.64897200  0.96775900  1
  C  714  1  0.73989700  0.67739600  0.95606300  1
  C  715  1  0.74402900  0.68638900  0.97090000  1
  C  716  1  0.73318300  0.67798300  0.98445600  1
  C  717  1  0.71859200  0.65898800  0.98287500  1
  C  718  1  0.70283600  0.61286100  0.93236700  1
  C  719  1  0.71119300  0.61684500  0.91684600  1
  C  720  1  0.72431500  0.63627500  0.91415000  1
  C  721  1  0.72892000  0.65155900  0.92611500  1
  C  734  1  0.70240600  0.62858400  0.96203800  1
  C  739  1  0.91090500  0.59860800  0.71975400  1
  C  740  1  0.90057500  0.61635900  0.72767500  1
  C  741  1  0.91227800  0.63580200  0.72516800  1
  C  742  1  0.93121800  0.63124000  0.71596800  1
  C  743  1  0.94551800  0.64939000  0.71187500  1
  C  744  1  0.93940100  0.67171500  0.71603100  1
  C  745  1  0.91901100  0.67540000  0.72405200  1
  C  746  1  0.90574500  0.65759600  0.72925800  1
  C  747  1  0.88194100  0.61322700  0.73739500  1
  C  748  1  0.87305800  0.59167100  0.73828400  1
  C  749  1  0.88035600  0.57387000  0.72877000  1
  C  750  1  0.90048300  0.57717900  0.72003700  1
  C  751  1  0.93196200  0.60156600  0.69476200  1
  C  752  1  0.95097600  0.58857500  0.69141200  1
  C  753  1  0.96312300  0.58445000  0.70499000  1
  C  754  1  0.95255200  0.59497500  0.71768200  1
  C  755  1  0.98210000  0.57067600  0.70698000  1
  C  756  1  0.99089100  0.56754500  0.72215300  1
  C  757  1  0.98167300  0.57901600  0.73518300  1
  C  758  1  0.96194400  0.59220100  0.73294600  1
  C  759  1  0.91627700  0.60604800  0.68243700  1
  C  760  1  0.92035200  0.59774000  0.66693800  1
  C  761  1  0.93990400  0.58471400  0.66431100  1
  C  762  1  0.95528300  0.58021100  0.67631500  1
  C  775  1  0.93182000  0.60677500  0.71200600  1
  C  780  1  0.70153200  0.40603500  0.21973100  1
  C  781  1  0.71188100  0.38827100  0.22763300  1
  C  782  1  0.70013100  0.36884600  0.22516500  1
  C  783  1  0.68118200  0.37341400  0.21597400  1
  C  784  1  0.66688000  0.35526400  0.21187700  1
  C  785  1  0.67299200  0.33293800  0.21603400  1
  C  786  1  0.69338000  0.32925300  0.22405600  1
  C  787  1  0.70665500  0.34705000  0.22925500  1
  C  788  1  0.73049800  0.39139900  0.23737000  1
  C  789  1  0.73935400  0.41296500  0.23829400  1
  C  790  1  0.73209300  0.43075500  0.22875700  1
  C  791  1  0.71197000  0.42745700  0.22001700  1
  C  792  1  0.68043700  0.40305300  0.19474400  1
  C  793  1  0.66145600  0.41610300  0.19141000  1
  C  794  1  0.64929800  0.42020600  0.20498700  1
  C  795  1  0.65987300  0.40967800  0.21767500  1
  C  796  1  0.63031400  0.43397200  0.20697800  1
  C  797  1  0.62152500  0.43709600  0.22215400  1
  C  798  1  0.63075400  0.42562700  0.23518100  1
  C  799  1  0.65048200  0.41244100  0.23293900  1
  C  800  1  0.69613200  0.39860800  0.18242000  1
  C  801  1  0.69203400  0.40688900  0.16691600  1
  C  802  1  0.67248800  0.41992900  0.16429800  1
  C  803  1  0.65712600  0.42444600  0.17631000  1
  C  816  1  0.68060200  0.39787600  0.21199600  1
  C  821  1  0.71154400  0.39783700  0.99753300  1
  C  822  1  0.69311700  0.40778300  0.99007100  1
  C  823  1  0.67383500  0.39612500  0.99340800  1
  C  824  1  0.67861000  0.37757700  0.00292700  1
  C  825  1  0.66003500  0.36413500  0.00794100  1
  C  826  1  0.63758500  0.36935100  0.00306800  1
  C  827  1  0.63425900  0.38867300  0.99362900  1
  C  828  1  0.65210200  0.40184800  0.98855300  1
  C  829  1  0.69485200  0.42670400  0.98037400  1
  C  830  1  0.71600400  0.43571000  0.97755800  1
  C  831  1  0.73537200  0.42682200  0.98485700  1
  C  832  1  0.73305500  0.40796200  0.99517600  1
  C  833  1  0.70864200  0.37770800  0.02384800  1
  C  834  1  0.72227800  0.35929000  0.02742800  1
  C  835  1  0.72666900  0.34709400  0.01405400  1
  C  836  1  0.71590500  0.35667100  0.00103800  1
  C  837  1  0.74032500  0.32802600  0.01301200  1
  C  838  1  0.74397900  0.31846200  0.99829700  1
  C  839  1  0.73339000  0.32690400  0.98464600  1
  C  840  1  0.71899400  0.34606100  0.98608500  1
  C  841  1  0.70164300  0.39162600  0.03664800  1
  C  842  1  0.70942900  0.38743200  0.05232100  1
  C  843  1  0.72336300  0.36855400  0.05494900  1
  C  844  1  0.72982200  0.35446500  0.04269100  1
  C  857  1  0.70352300  0.37740800  0.00641300  1
  C  862  1  0.90086600  0.60671800  0.49752000  1
  C  863  1  0.91930400  0.59680100  0.49005000  1
  C  864  1  0.93857400  0.60847100  0.49339500  1
  C  865  1  0.93378700  0.62698500  0.50294400  1
  C  866  1  0.95234100  0.64047400  0.50793300  1
  C  867  1  0.97479700  0.63528100  0.50306200  1
  C  868  1  0.97814500  0.61595800  0.49362900  1
  C  869  1  0.96031500  0.60277100  0.48854300  1
  C  870  1  0.91759400  0.57786600  0.48036100  1
  C  871  1  0.89645700  0.56880900  0.47756000  1
  C  872  1  0.87709300  0.57765400  0.48487500  1
  C  873  1  0.87937600  0.59654400  0.49517400  1
  C  874  1  0.90373500  0.62687000  0.52383600  1
  C  875  1  0.89011400  0.64530200  0.52740900  1
  C  876  1  0.88573300  0.65748900  0.51403100  1
  C  877  1  0.89649200  0.64789200  0.50101900  1
  C  878  1  0.87209600  0.67656800  0.51298500  1
  C  879  1  0.86843000  0.68610200  0.49826400  1
  C  880  1  0.87900700  0.67763800  0.48461200  1
  C  881  1  0.89341000  0.65849200  0.48606100  1
  C  882  1  0.91072500  0.61296100  0.53664300  1
  C  883  1  0.90294700  0.61718400  0.55231300  1
  C  884  1  0.88902700  0.63607500  0.55493200  1
  C  885  1  0.88257500  0.65015400  0.54266800  1
  C  898  1  0.90886600  0.62715700  0.50640300  1
  C  903  1  0.70213800  0.59801800  0.74749400  1
  C  904  1  0.71240100  0.61654700  0.74036800  1
  C  905  1  0.70096700  0.63578300  0.74407800  1
  C  906  1  0.68207600  0.63059400  0.75316300  1
  C  907  1  0.66761900  0.64853000  0.75759700  1
  C  908  1  0.67329900  0.67110200  0.75367100  1
  C  909  1  0.69356600  0.67526400  0.74565500  1
  C  910  1  0.70705100  0.65780200  0.74022500  1
  C  911  1  0.73123100  0.61486900  0.73055000  1
  C  912  1  0.74008100  0.59371200  0.72754800  1
  C  913  1  0.73100900  0.57438100  0.73473400  1
  C  914  1  0.71198000  0.57652000  0.74490700  1
  C  915  1  0.68187000  0.60041200  0.77381500  1
  C  916  1  0.66316200  0.58700000  0.77727100  1
  C  917  1  0.65055300  0.58335700  0.76387200  1
  C  918  1  0.66068600  0.59430300  0.75117000  1
  C  919  1  0.63104900  0.57025400  0.76214100  1
  C  920  1  0.62169600  0.56760300  0.74709700  1
  C  921  1  0.63083400  0.57903100  0.73402400  1
  C  922  1  0.65072300  0.59200800  0.73606600  1
  C  923  1  0.69592500  0.60725400  0.78657900  1
  C  924  1  0.69167500  0.59946200  0.80221400  1
  C  925  1  0.67271600  0.58556000  0.80477700  1
  C  926  1  0.65845700  0.57929000  0.79249800  1
  C  939  1  0.68175900  0.60584500  0.75648700  1
  C  944  1  0.91019500  0.40663400  0.24747100  1
  C  945  1  0.89996300  0.38809300  0.24033700  1
  C  946  1  0.91142300  0.36887400  0.24404600  1
  C  947  1  0.93030000  0.37408200  0.25314000  1
  C  948  1  0.94476300  0.35615600  0.25758200  1
  C  949  1  0.93909300  0.33357800  0.25366400  1
  C  950  1  0.91883200  0.32940200  0.24564700  1
  C  951  1  0.90536700  0.34685200  0.24017700  1
  C  952  1  0.88111200  0.38973700  0.23053400  1
  C  953  1  0.87217500  0.41086700  0.22757400  1
  C  954  1  0.88121300  0.43020500  0.23476300  1
  C  955  1  0.90028100  0.42810500  0.24490900  1
  C  956  1  0.93047800  0.40426700  0.27379600  1
  C  957  1  0.94919800  0.41765900  0.27726000  1
  C  958  1  0.96182600  0.42128400  0.26386500  1
  C  959  1  0.95166900  0.41037800  0.25115300  1
  C  960  1  0.98132600  0.43439300  0.26214100  1
  C  961  1  0.99069700  0.43703700  0.24710200  1
  C  962  1  0.98156500  0.42562200  0.23402300  1
  C  963  1  0.96165400  0.41267000  0.23605400  1
  C  964  1  0.91644900  0.39740800  0.28656900  1
  C  965  1  0.92065400  0.40521600  0.30221000  1
  C  966  1  0.93963200  0.41909900  0.30476500  1
  C  967  1  0.95391500  0.42534100  0.29249200  1
  C  980  1  0.93059100  0.39883500  0.25646500  1
  C  985  1  0.21183600  0.60740100  0.49960500  1
  C  986  1  0.19400900  0.59719900  0.49166600  1
  C  987  1  0.17462500  0.60911500  0.49404800  1
  C  988  1  0.17933500  0.62809800  0.50313700  1
  C  989  1  0.16116100  0.64237600  0.50730400  1
  C  990  1  0.13871900  0.63631500  0.50324000  1
  C  991  1  0.13495800  0.61595000  0.49526000  1
  C  992  1  0.15274100  0.60265400  0.49002200  1
  C  993  1  0.19709800  0.57857100  0.48196700  1
  C  994  1  0.21871300  0.56971900  0.48102900  1
  C  995  1  0.23654200  0.57686200  0.49061300  1
  C  996  1  0.23324400  0.59687300  0.49941400  1
  C  997  1  0.20866300  0.62834100  0.52456100  1
  C  998  1  0.22181700  0.64709700  0.52806200  1
  C  999  1  0.22673200  0.65882300  0.51452900  1
  C  1000  1  0.21647600  0.64879600  0.50149300  1
  C  1001  1  0.24103700  0.67737600  0.51327900  1
  C  1002  1  0.24514900  0.68642800  0.49845400  1
  C  1003  1  0.23438800  0.67799300  0.48487200  1
  C  1004  1  0.21994100  0.65888900  0.48639900  1
  C  1005  1  0.20401800  0.61276000  0.53692700  1
  C  1006  1  0.21220400  0.61680900  0.55249300  1
  C  1007  1  0.22531200  0.63625500  0.55518200  1
  C  1008  1  0.22996300  0.65152000  0.54321200  1
  C  1021  1  0.20386100  0.62844000  0.50719100  1
  C  1026  1  0.40058200  0.39724800  0.99960900  1
  C  1027  1  0.41840400  0.40745000  0.99166600  1
  C  1028  1  0.43779200  0.39554900  0.99405800  1
  C  1029  1  0.43308400  0.37656800  0.00314900  1
  C  1030  1  0.45124700  0.36226800  0.00729700  1
  C  1031  1  0.47369000  0.36833900  0.00324600  1
  C  1032  1  0.47745600  0.38870300  0.99526300  1
  C  1033  1  0.45967800  0.40202300  0.99005100  1
  C  1034  1  0.41528600  0.42603600  0.98193300  1
  C  1035  1  0.39367800  0.43490700  0.98102100  1
  C  1036  1  0.37586000  0.42777400  0.99061800  1
  C  1037  1  0.37916600  0.40775200  0.99940700  1
  C  1038  1  0.40375500  0.37631000  0.02456600  1
  C  1039  1  0.39058700  0.35755900  0.02806100  1
  C  1040  1  0.38569000  0.34583300  0.01452600  1
  C  1041  1  0.39594200  0.35587500  0.00149300  1
  C  1042  1  0.37138000  0.32728700  0.01326400  1
  C  1043  1  0.36725600  0.31826700  0.99843300  1
  C  1044  1  0.37801200  0.32672300  0.98485200  1
  C  1045  1  0.39247500  0.34580800  0.98639300  1
  C  1046  1  0.40838900  0.39189400  0.03693000  1
  C  1047  1  0.40015800  0.38786300  0.05248600  1
  C  1048  1  0.38708000  0.36840100  0.05517900  1
  C  1049  1  0.38242800  0.35313900  0.04320700  1
  C  1062  1  0.40856000  0.37621800  0.00719800  1
  C  1067  1  0.20089000  0.40602300  0.24959600  1
  C  1068  1  0.21115300  0.38822600  0.24169100  1
  C  1069  1  0.19919400  0.36889100  0.24405600  1
  C  1070  1  0.18016000  0.37359700  0.25313200  1
  C  1071  1  0.16584300  0.35546900  0.25729500  1
  C  1072  1  0.17192600  0.33307700  0.25324200  1
  C  1073  1  0.19233700  0.32931500  0.24526600  1
  C  1074  1  0.20568700  0.34705200  0.24005500  1
  C  1075  1  0.22974500  0.39134700  0.23192900  1
  C  1076  1  0.23863100  0.41291000  0.23101100  1
  C  1077  1  0.23148400  0.43069000  0.24061100  1
  C  1078  1  0.21141200  0.42739600  0.24939100  1
  C  1079  1  0.17991200  0.40289400  0.27453800  1
  C  1080  1  0.16110000  0.41599500  0.27804300  1
  C  1081  1  0.14935200  0.42088400  0.26451000  1
  C  1082  1  0.15941800  0.41065700  0.25147800  1
  C  1083  1  0.13075200  0.43514400  0.26325300  1
  C  1084  1  0.12172000  0.43926500  0.24842000  1
  C  1085  1  0.13021900  0.42857800  0.23482900  1
  C  1086  1  0.14932700  0.41412300  0.23638100  1
  C  1087  1  0.19549800  0.39820000  0.28690500  1
  C  1088  1  0.19144000  0.40639200  0.30246200  1
  C  1089  1  0.17195000  0.41945900  0.30516500  1
  C  1090  1  0.15666900  0.42412700  0.29319000  1
  C  1103  1  0.17980800  0.39806700  0.25717800  1
  C  1108  1  0.41146100  0.59863800  0.74962000  1
  C  1109  1  0.40120700  0.61643500  0.74170900  1
  C  1110  1  0.41318300  0.63576300  0.74406000  1
  C  1111  1  0.43222600  0.63105400  0.75312500  1
  C  1112  1  0.44653300  0.64918200  0.75730400  1
  C  1113  1  0.44046200  0.67157500  0.75324700  1
  C  1114  1  0.42005800  0.67533900  0.74526400  1
  C  1115  1  0.40670100  0.65760400  0.74005700  1
  C  1116  1  0.38259800  0.61332900  0.73195900  1
  C  1117  1  0.37374700  0.59175100  0.73100900  1
  C  1118  1  0.38086500  0.57398000  0.74062600  1
  C  1119  1  0.40092700  0.57727000  0.74941700  1
  C  1120  1  0.43247900  0.60179400  0.77455900  1
  C  1121  1  0.45125100  0.58862700  0.77804500  1
  C  1122  1  0.46300900  0.58376500  0.76451200  1
  C  1123  1  0.45293300  0.59399600  0.75148400  1
  C  1124  1  0.48161300  0.56951600  0.76324400  1
  C  1125  1  0.49062500  0.56539600  0.74840500  1
  C  1126  1  0.48210400  0.57607300  0.73481400  1
  C  1127  1  0.46299600  0.59052400  0.73637900  1
  C  1128  1  0.41688100  0.60644300  0.78692800  1
  C  1129  1  0.42096800  0.59827900  0.80248800  1
  C  1130  1  0.44045300  0.58519900  0.80517900  1
  C  1131  1  0.45571200  0.58051300  0.79319400  1
  C  1144  1  0.43255300  0.60658900  0.75719400  1
  C  1149  1  0.39980200  0.60658500  0.97201300  1
  C  1150  1  0.41843100  0.59657100  0.97920900  1
  C  1151  1  0.43761700  0.60823600  0.97560400  1
  C  1152  1  0.43226700  0.62715700  0.96662900  1
  C  1153  1  0.45022500  0.64156700  0.96207500  1
  C  1154  1  0.47292200  0.63595800  0.96589000  1
  C  1155  1  0.47717100  0.61573300  0.97388400  1
  C  1156  1  0.45973800  0.60221000  0.97934800  1
  C  1157  1  0.41685400  0.57775700  0.98901000  1
  C  1158  1  0.39571400  0.56873700  0.99196700  1
  C  1159  1  0.37624200  0.57756500  0.98475400  1
  C  1160  1  0.37835600  0.59644400  0.97446000  1
  C  1161  1  0.40255400  0.62680200  0.94571100  1
  C  1162  1  0.38887800  0.64515800  0.94207200  1
  C  1163  1  0.38438100  0.65736100  0.95543700  1
  C  1164  1  0.39502700  0.64780500  0.96850800  1
  C  1165  1  0.37089700  0.67655100  0.95641200  1
  C  1166  1  0.36729100  0.68622100  0.97110100  1
  C  1167  1  0.37779600  0.67778000  0.98478700  1
  C  1168  1  0.39205800  0.65852800  0.98342300  1
  C  1169  1  0.40997500  0.61308200  0.93291400  1
  C  1170  1  0.40248200  0.61734100  0.91717900  1
  C  1171  1  0.38833100  0.63604200  0.91450500  1
  C  1172  1  0.38153400  0.64999100  0.92676000  1
  C  1185  1  0.40746000  0.62713100  0.96318100  1
  C  1190  1  0.21258900  0.39815500  0.47202600  1
  C  1191  1  0.19395400  0.40813700  0.47923100  1
  C  1192  1  0.17477600  0.39646200  0.47561300  1
  C  1193  1  0.18013800  0.37756700  0.46661600  1
  C  1194  1  0.16219400  0.36312800  0.46207700  1
  C  1195  1  0.13949100  0.36872000  0.46588800  1
  C  1196  1  0.13522600  0.38894800  0.47387400  1
  C  1197  1  0.15264800  0.40247400  0.47934900  1
  C  1198  1  0.19550500  0.42696500  0.48902400  1
  C  1199  1  0.21662900  0.43603900  0.49196400  1
  C  1200  1  0.23609900  0.42725300  0.48473300  1
  C  1201  1  0.23401500  0.40834500  0.47446000  1
  C  1202  1  0.20986600  0.37791300  0.44572100  1
  C  1203  1  0.22353000  0.35954400  0.44209100  1
  C  1204  1  0.22801700  0.34735000  0.45545900  1
  C  1205  1  0.21737900  0.35692500  0.46852700  1
  C  1206  1  0.24148300  0.32815000  0.45643800  1
  C  1207  1  0.24510000  0.31850900  0.47113400  1
  C  1208  1  0.23460800  0.32697000  0.48482200  1
  C  1209  1  0.22034000  0.34621400  0.48344700  1
  C  1210  1  0.20244600  0.39161700  0.43291700  1
  C  1211  1  0.20993800  0.38733500  0.41718500  1
  C  1212  1  0.22407700  0.36862300  0.41451900  1
  C  1213  1  0.23086500  0.35468500  0.42678100  1
  C  1226  1  0.20495000  0.37759800  0.46319100  1
  C  1231  1  0.41064500  0.40680400  0.22199200  1
  C  1232  1  0.40061800  0.38820400  0.22918100  1
  C  1233  1  0.41228300  0.36906300  0.22554200  1
  C  1234  1  0.43119500  0.37440300  0.21651700  1
  C  1235  1  0.44567400  0.35649300  0.21199900  1
  C  1236  1  0.44009000  0.33384800  0.21585200  1
  C  1237  1  0.41983700  0.32960000  0.22386100  1
  C  1238  1  0.40627700  0.34699000  0.22931700  1
  C  1239  1  0.38178700  0.38976700  0.23900800  1
  C  1240  1  0.37270700  0.41085000  0.24194000  1
  C  1241  1  0.38146000  0.43023800  0.23463100  1
  C  1242  1  0.40049500  0.42820400  0.22444200  1
  C  1243  1  0.43075400  0.40417500  0.19564800  1
  C  1244  1  0.44927400  0.41764100  0.19197900  1
  C  1245  1  0.46156700  0.42204900  0.20533200  1
  C  1246  1  0.45195100  0.41149600  0.21841900  1
  C  1247  1  0.48077200  0.43554200  0.20631000  1
  C  1248  1  0.49047600  0.43913300  0.22099600  1
  C  1249  1  0.48209100  0.42854300  0.23465800  1
  C  1250  1  0.46267900  0.41446900  0.23334000  1
  C  1251  1  0.41668600  0.39719900  0.18290000  1
  C  1252  1  0.42077900  0.40490800  0.16719400  1
  C  1253  1  0.43978200  0.41865300  0.16447000  1
  C  1254  1  0.45405500  0.42502900  0.17667100  1
  C  1267  1  0.43118000  0.39917000  0.21310500  1
  C  1272  1  0.20178700  0.59783000  0.72202000  1
  C  1273  1  0.21178500  0.61644200  0.72921500  1
  C  1274  1  0.20010100  0.63557200  0.72557500  1
  C  1275  1  0.18120100  0.63021300  0.71654300  1
  C  1276  1  0.16672200  0.64811700  0.71201500  1
  C  1277  1  0.17230000  0.67077100  0.71585400  1
  C  1278  1  0.19254700  0.67503000  0.72386700  1
  C  1279  1  0.20608400  0.65764800  0.72936300  1
  C  1280  1  0.23063800  0.61491700  0.73902700  1
  C  1281  1  0.23980500  0.59386000  0.74192100  1
  C  1282  1  0.23108600  0.57446300  0.73461200  1
  C  1283  1  0.21201100  0.57645900  0.72445000  1
  C  1284  1  0.18167200  0.60043300  0.69566900  1
  C  1285  1  0.16314600  0.58698400  0.69199000  1
  C  1286  1  0.15082900  0.58258800  0.70533600  1
  C  1287  1  0.16045000  0.59311500  0.71843200  1
  C  1288  1  0.13161400  0.56910300  0.70629800  1
  C  1289  1  0.12185000  0.56555500  0.72096900  1
  C  1290  1  0.13023000  0.57611800  0.73463900  1
  C  1291  1  0.14968200  0.59015000  0.73334200  1
  C  1292  1  0.19572200  0.60743000  0.68291500  1
  C  1293  1  0.19167700  0.59970700  0.66720200  1
  C  1294  1  0.17265800  0.58598000  0.66448200  1
  C  1295  1  0.15835900  0.57962500  0.67667600  1
  C  1308  1  0.18123700  0.60544000  0.71313000  1
  C  1313  1  0.35018000  0.72666000  0.02220600  1
  C  1314  1  0.36562900  0.73925200  0.01186700  1
  C  1319  1  0.37578100  0.77703500  0.00307000  1
  C  1320  1  0.39237200  0.76730100  0.99322600  1
  C  1321  1  0.40879200  0.77904100  0.98315200  1
  C  1326  1  0.38308700  0.72972100  0.00259300  1
  C  1327  1  0.37418900  0.79975400  0.00720000  1
  C  1329  1  0.39020400  0.70753900  0.00012600  1
  C  1331  1  0.26225800  0.27795400  0.52221800  1
  C  1332  1  0.24676700  0.26534700  0.51192100  1
  C  1337  1  0.23659700  0.22755600  0.50314600  1
  C  1338  1  0.22003900  0.23728900  0.49327000  1
  C  1339  1  0.20361200  0.22557800  0.48318500  1
  C  1344  1  0.22930400  0.27486500  0.50264700  1
  C  1345  1  0.23820500  0.20482800  0.50723100  1
  C  1347  1  0.22229300  0.29698800  0.49998900  1
  C  1349  1  0.58241600  0.04616900  0.27223400  1
  C  1350  1  0.56977800  0.06160500  0.26192400  1
  C  1355  1  0.53190800  0.07175400  0.25314300  1
  C  1356  1  0.54166500  0.08829400  0.24328300  1
  C  1357  1  0.52993400  0.10467600  0.23318600  1
  C  1362  1  0.57932100  0.07899500  0.25262400  1
  C  1363  1  0.50913200  0.07015300  0.25722900  1
  C  1365  1  0.60148300  0.08609500  0.25007000  1
  C  1367  1  0.02991600  0.95843800  0.77221500  1
  C  1368  1  0.04255000  0.94304000  0.76187500  1
  C  1373  1  0.08042000  0.93290700  0.75308600  1
  C  1374  1  0.07066000  0.91636200  0.74323000  1
  C  1375  1  0.08242100  0.89997200  0.73315600  1
  C  1380  1  0.03300800  0.92562800  0.75259400  1
  C  1381  1  0.10319500  0.93449900  0.75719100  1
  C  1383  1  0.01084100  0.91834800  0.75023100  1
  C  1385  1  0.26224000  0.72664700  0.44718000  1
  C  1386  1  0.24680600  0.73921800  0.45753600  1
  C  1391  1  0.23664100  0.77697600  0.46635200  1
  C  1392  1  0.22004900  0.76723700  0.47619200  1
  C  1393  1  0.20363700  0.77900100  0.48626100  1
  C  1398  1  0.22936100  0.72966900  0.46681100  1
  C  1399  1  0.23819400  0.79967000  0.46219600  1
  C  1401  1  0.22212200  0.70752200  0.46918900  1
  C  1403  1  0.35013800  0.27798000  0.94717400  1
  C  1404  1  0.36560600  0.26539600  0.95749800  1
  C  1409  1  0.37577700  0.22762800  0.96629000  1
  C  1410  1  0.39233400  0.23736200  0.97616500  1
  C  1411  1  0.40875700  0.22561800  0.98623900  1
  C  1416  1  0.38305000  0.27493300  0.96677600  1
  C  1417  1  0.37420900  0.20492500  0.96217100  1
  C  1419  1  0.39018500  0.29705800  0.96929200  1
  C  1421  1  0.02997000  0.04617000  0.19717400  1
  C  1422  1  0.04256900  0.06160000  0.20750700  1
  C  1427  1  0.08042500  0.07176300  0.21628400  1
  C  1428  1  0.07067200  0.08829000  0.22615300  1
  C  1429  1  0.08244200  0.10466500  0.23623700  1
  C  1434  1  0.03299700  0.07895700  0.21682800  1
  C  1435  1  0.10317400  0.07022100  0.21216000  1
  C  1437  1  0.01077600  0.08603800  0.21933600  1
  C  1439  1  0.58247000  0.95845200  0.69718800  1
  C  1440  1  0.56987600  0.94304500  0.70754100  1
  C  1445  1  0.53201900  0.93289200  0.71631700  1
  C  1446  1  0.54177000  0.91635900  0.72618200  1
  C  1447  1  0.52998100  0.89998200  0.73625400  1
  C  1452  1  0.57944700  0.92566500  0.71684200  1
  C  1453  1  0.50926900  0.93443500  0.71218100  1
  C  1455  1  0.60168800  0.91849800  0.71924200  1
  C  1457  1  0.76114900  0.27804100  0.94719500  1
  C  1458  1  0.74570200  0.26545000  0.95753300  1
  C  1463  1  0.73557000  0.22765600  0.96631000  1
  C  1464  1  0.71897500  0.23736500  0.97616300  1
  C  1465  1  0.70255900  0.22560500  0.98623100  1
  C  1470  1  0.72823900  0.27496500  0.96681100  1
  C  1471  1  0.73717500  0.20496100  0.96214400  1
  C  1473  1  0.72108200  0.29713700  0.96927500  1
  C  1475  1  0.85121100  0.72664000  0.44718400  1
  C  1476  1  0.86670000  0.73924600  0.45747900  1
  C  1481  1  0.87685000  0.77704700  0.46623200  1
  C  1482  1  0.89341200  0.76734000  0.47611800  1
  C  1483  1  0.90983300  0.77907100  0.48619800  1
  C  1488  1  0.88416900  0.72974600  0.46675700  1
  C  1489  1  0.87522700  0.79975200  0.46211200  1
  C  1491  1  0.89122100  0.70763100  0.46941300  1
  C  1493  1  0.85121100  0.27801600  0.52223000  1
  C  1494  1  0.86665300  0.26543600  0.51188600  1
  C  1499  1  0.87683200  0.22766300  0.50311900  1
  C  1500  1  0.89340500  0.23738400  0.49325000  1
  C  1501  1  0.90981000  0.22562500  0.48316800  1
  C  1506  1  0.88406900  0.27497000  0.50258000  1
  C  1507  1  0.87526500  0.20497900  0.50727600  1
  C  1509  1  0.89126300  0.29709400  0.50011400  1
  C  1511  1  0.76117000  0.72659700  0.02221800  1
  C  1512  1  0.74573900  0.73917100  0.01186300  1
  C  1517  1  0.73557400  0.77694700  0.00309300  1
  C  1518  1  0.71899700  0.76722700  0.99322400  1
  C  1519  1  0.70259100  0.77900200  0.98315400  1
  C  1524  1  0.72830900  0.72963700  0.00256700  1
  C  1525  1  0.73713700  0.79963000  0.00726100  1
  C  1527  1  0.72102600  0.70749900  0.00020600  1
  C  1529  1  0.08146300  0.54834100  0.77220600  1
  C  1530  1  0.06884300  0.56373000  0.76185100  1
  C  1535  1  0.03097500  0.57384400  0.75306800  1
  C  1536  1  0.04071200  0.59040000  0.74321100  1
  C  1537  1  0.02892300  0.60679700  0.73315800  1
  C  1542  1  0.07838300  0.58114500  0.75256500  1
  C  1543  1  0.00823000  0.57224500  0.75723800  1
  C  1545  1  0.10059500  0.58838200  0.75020900  1
  C  1547  1  0.53096600  0.45633900  0.27221200  1
  C  1548  1  0.54360700  0.44090900  0.26190000  1
  C  1553  1  0.58148200  0.43078200  0.25314000  1
  C  1554  1  0.57175000  0.41425900  0.24325200  1
  C  1555  1  0.58351100  0.39785600  0.23318800  1
  C  1560  1  0.53408500  0.42348800  0.25261700  1
  C  1561  1  0.60423800  0.43239400  0.25726500  1
  C  1563  1  0.51193400  0.41635300  0.25006900  1
  C  1565  1  0.53100300  0.54828000  0.69715700  1
  C  1566  1  0.54360400  0.56371400  0.70748500  1
  C  1571  1  0.58145900  0.57388400  0.71622500  1
  C  1572  1  0.57173500  0.59040700  0.72611600  1
  C  1573  1  0.58351000  0.60677800  0.73620200  1
  C  1578  1  0.53405600  0.58108600  0.71680300  1
  C  1579  1  0.60416900  0.57233800  0.71202600  1
  C  1581  1  0.51184200  0.58814000  0.71931700  1
  C  1583  1  0.08143700  0.45634400  0.19717100  1
  C  1584  1  0.06884200  0.44092900  0.20751800  1
  C  1589  1  0.03098300  0.43077000  0.21625800  1
  C  1590  1  0.04070700  0.41424300  0.22614600  1
  C  1591  1  0.02891200  0.39786900  0.23622000  1
  C  1596  1  0.07838700  0.42353600  0.21681700  1
  C  1597  1  0.00827300  0.43231800  0.21204900  1
  C  1599  1  0.10062300  0.41639700  0.21922400  1
  C  1601  1  0.58029600  0.87706700  0.98644200  1
  C  1602  1  0.56954100  0.86444900  0.97357600  1
  C  1607  1  0.53229100  0.85241800  0.96546200  1
  C  1608  1  0.54220400  0.83845900  0.95398000  1
  C  1609  1  0.52915200  0.82327100  0.94380800  1
  C  1614  1  0.57980000  0.85026600  0.96212000  1
  C  1615  1  0.51001800  0.85323100  0.97025200  1
  C  1617  1  0.60253600  0.84499300  0.95950000  1
  C  1619  1  0.03209900  0.12758600  0.48643700  1
  C  1620  1  0.04287500  0.14029100  0.47362200  1
  C  1625  1  0.08012200  0.15230400  0.46551300  1
  C  1626  1  0.07021600  0.16619700  0.45398700  1
  C  1627  1  0.08326300  0.18136800  0.44379900  1
  C  1632  1  0.03261400  0.15440200  0.46212500  1
  C  1633  1  0.10240800  0.15143300  0.47026500  1
  C  1635  1  0.00988200  0.15966500  0.45949100  1
  C  1637  1  0.43171500  0.27585800  0.23644700  1
  C  1638  1  0.44446400  0.26512900  0.22363200  1
  C  1643  1  0.45651800  0.22796500  0.21551700  1
  C  1644  1  0.47044700  0.23786000  0.20400000  1
  C  1645  1  0.48562000  0.22482900  0.19379600  1
  C  1650  1  0.45865000  0.27538800  0.21217000  1
  C  1651  1  0.45556800  0.20572300  0.22023900  1
  C  1653  1  0.46382800  0.29809800  0.20948800  1
  C  1655  1  0.18069300  0.72878100  0.73644600  1
  C  1656  1  0.16800300  0.73950200  0.72359800  1
  C  1661  1  0.15590500  0.77666900  0.71550900  1
  C  1662  1  0.14197000  0.76677400  0.70399700  1
  C  1663  1  0.12678200  0.77980500  0.69380300  1
  C  1668  1  0.15380200  0.72924600  0.71214400  1
  C  1669  1  0.15684000  0.79891000  0.72023900  1
  C  1671  1  0.14858500  0.70653800  0.70948300  1
  C  1673  1  0.03257700  0.87694700  0.48299300  1
  C  1674  1  0.04344800  0.86434000  0.49582500  1
  C  1679  1  0.08075500  0.85249600  0.50402900  1
  C  1680  1  0.07081800  0.83845900  0.51546000  1
  C  1681  1  0.08378800  0.82323700  0.52564200  1
  C  1686  1  0.03325400  0.85007100  0.50725100  1
  C  1687  1  0.10309100  0.85336500  0.49929000  1
  C  1689  1  0.01057700  0.84475500  0.50985100  1
  C  1691  1  0.57984600  0.12770100  0.98299400  1
  C  1692  1  0.56896000  0.14039900  0.99577600  1
  C  1697  1  0.53166000  0.15221300  0.00398500  1
  C  1698  1  0.54158800  0.16619000  0.01545700  1
  C  1699  1  0.52861400  0.18139200  0.02565200  1
  C  1704  1  0.57915900  0.15459400  0.00724300  1
  C  1705  1  0.50932500  0.15118600  0.99930300  1
  C  1707  1  0.60183600  0.15989100  0.00985400  1
  C  1709  1  0.18056900  0.27541000  0.23298400  1
  C  1710  1  0.16781400  0.26457000  0.24575800  1
  C  1715  1  0.15597400  0.22735100  0.25398500  1
  C  1716  1  0.14196100  0.23727100  0.26544700  1
  C  1717  1  0.12675400  0.22431400  0.27565600  1
  C  1722  1  0.15355800  0.27476600  0.25719900  1
  C  1723  1  0.15700700  0.20505800  0.24930700  1
  C  1725  1  0.14834000  0.29742300  0.25985100  1
  C  1727  1  0.43183300  0.72925600  0.73298300  1
  C  1728  1  0.44451100  0.74008400  0.74580200  1
  C  1733  1  0.45640900  0.77730500  0.75399200  1
  C  1734  1  0.47042800  0.76738300  0.76545000  1
  C  1735  1  0.48564900  0.78034000  0.77565000  1
  C  1740  1  0.45879500  0.72988900  0.75722400  1
  C  1741  1  0.45538300  0.79959800  0.74931000  1
  C  1743  1  0.46404900  0.70723300  0.75985000  1
  C  1745  1  0.68167900  0.72890000  0.73295700  1
  C  1746  1  0.66905400  0.73964600  0.74582900  1
  C  1751  1  0.65702800  0.77683000  0.75394100  1
  C  1752  1  0.64303400  0.76695200  0.76542500  1
  C  1753  1  0.62781000  0.77996300  0.77560000  1
  C  1758  1  0.65482400  0.72943700  0.75728400  1
  C  1759  1  0.65779900  0.79904400  0.74910800  1
  C  1761  1  0.64948600  0.70677800  0.75990700  1
  C  1763  1  0.93071300  0.27579000  0.23295800  1
  C  1764  1  0.94343200  0.26503500  0.24578000  1
  C  1769  1  0.95542400  0.22786000  0.25390100  1
  C  1770  1  0.96936100  0.23772600  0.26542400  1
  C  1771  1  0.98456500  0.22471000  0.27560900  1
  C  1776  1  0.95758600  0.27524900  0.25728000  1
  C  1777  1  0.95450100  0.20564900  0.24912300  1
  C  1779  1  0.96290400  0.29790600  0.25991700  1
  C  1781  1  0.93079300  0.72924700  0.73639600  1
  C  1782  1  0.94352500  0.74009800  0.72361400  1
  C  1787  1  0.95540200  0.77730300  0.71541700  1
  C  1788  1  0.96940500  0.76740500  0.70394300  1
  C  1789  1  0.98461200  0.78035700  0.69373200  1
  C  1794  1  0.95781200  0.72992700  0.71218200  1
  C  1795  1  0.95443000  0.79957600  0.72012000  1
  C  1797  1  0.96306700  0.70730200  0.70952700  1
  C  1799  1  0.68160800  0.27538800  0.23639800  1
  C  1800  1  0.66893100  0.26454700  0.22358200  1
  C  1805  1  0.65701500  0.22733600  0.21540900  1
  C  1806  1  0.64300700  0.23723700  0.20393800  1
  C  1807  1  0.62778800  0.22428500  0.19373700  1
  C  1812  1  0.65463100  0.27471500  0.21215800  1
  C  1813  1  0.65798200  0.20506300  0.22011700  1
  C  1815  1  0.64933600  0.29733900  0.20952800  1
  C  1817  1  0.08134600  0.37707900  0.48645000  1
  C  1818  1  0.07059900  0.36446600  0.47358100  1
  C  1823  1  0.03333300  0.35244400  0.46544900  1
  C  1824  1  0.04327300  0.33848000  0.45398100  1
  C  1825  1  0.03023400  0.32328000  0.44380900  1
  C  1830  1  0.08088500  0.35030500  0.46212500  1
  C  1831  1  0.01104600  0.35325700  0.47025400  1
  C  1833  1  0.10364500  0.34505900  0.45950500  1
  C  1835  1  0.53104500  0.62757000  0.98644300  1
  C  1836  1  0.54181500  0.64027200  0.97362500  1
  C  1841  1  0.57908000  0.65227600  0.96550000  1
  C  1842  1  0.56914700  0.66617600  0.95398900  1
  C  1843  1  0.58218200  0.68135900  0.94380200  1
  C  1848  1  0.53152900  0.65436300  0.96212800  1
  C  1849  1  0.60138000  0.65140300  0.97026800  1
  C  1851  1  0.50877100  0.65960000  0.95949300  1
  C  1853  1  0.53150100  0.37696100  0.98298900  1
  C  1854  1  0.54237400  0.36426800  0.99577700  1
  C  1859  1  0.57969400  0.35246700  0.00400400  1
  C  1860  1  0.56973400  0.33846100  0.01544900  1
  C  1861  1  0.58270400  0.32326600  0.02565100  1
  C  1866  1  0.53214800  0.35002300  0.00720300  1
  C  1867  1  0.60204500  0.35344100  0.99928500  1
  C  1869  1  0.50943800  0.34481000  0.00984800  1
  C  1871  1  0.08088600  0.62767500  0.48299000  1
  C  1872  1  0.07001700  0.64031600  0.49580700  1
  C  1877  1  0.03269300  0.65217700  0.50399900  1
  C  1878  1  0.04265700  0.66617800  0.51544500  1
  C  1879  1  0.02969300  0.68138500  0.52564400  1
  C  1884  1  0.08024100  0.65457200  0.50722400  1
  C  1885  1  0.01032300  0.65122200  0.49929800  1
  C  1887  1  0.10295100  0.65981500  0.50984800  1
  C  1889  1  0.37786300  0.93114100  0.87759200  1
  C  1890  1  0.39322700  0.91588200  0.86911300  1
  C  1895  1  0.40329900  0.90350300  0.84256000  1
  C  1896  1  0.41940000  0.88888700  0.84943000  1
  C  1897  1  0.43484400  0.87379100  0.84086800  1
  C  1902  1  0.40952800  0.90134900  0.87595100  1
  C  1903  1  0.40239900  0.90975300  0.82662900  1
  C  1905  1  0.41290400  0.89426800  0.89155200  1
  C  1907  1  0.23454500  0.07350000  0.37759300  1
  C  1908  1  0.21917400  0.08874900  0.36911300  1
  C  1913  1  0.20910400  0.10112800  0.34256400  1
  C  1914  1  0.19301200  0.11576100  0.34943500  1
  C  1915  1  0.17756100  0.13085900  0.34087800  1
  C  1920  1  0.20287700  0.10328600  0.37594800  1
  C  1921  1  0.20993000  0.09488300  0.32664700  1
  C  1923  1  0.19955600  0.11039100  0.39154100  1
  C  1925  1  0.37750500  0.07384800  0.12759500  1
  C  1926  1  0.39282000  0.08915500  0.11911700  1
  C  1931  1  0.40522200  0.09920200  0.09256300  1
  C  1932  1  0.41990100  0.11525300  0.09943000  1
  C  1933  1  0.43500100  0.13069500  0.09086800  1
  C  1938  1  0.40751600  0.10531000  0.12594200  1
  C  1939  1  0.39894500  0.09839200  0.07665000  1
  C  1941  1  0.41445900  0.10878900  0.14155700  1
  C  1943  1  0.23488100  0.93081000  0.62760300  1
  C  1944  1  0.21958500  0.91548900  0.61912200  1
  C  1949  1  0.20720200  0.90542700  0.59256100  1
  C  1950  1  0.19252500  0.88937700  0.59943000  1
  C  1951  1  0.17740100  0.87395700  0.59087200  1
  C  1956  1  0.20495500  0.89927400  0.62594500  1
  C  1957  1  0.21343200  0.90630800  0.57662500  1
  C  1959  1  0.19789900  0.89583400  0.64154700  1
  C  1961  1  0.73356300  0.07347900  0.09149500  1
  C  1962  1  0.71833900  0.08881800  0.10002300  1
  C  1967  1  0.70877500  0.10138500  0.12660100  1
  C  1968  1  0.69236300  0.11577900  0.11986300  1
  C  1969  1  0.67686900  0.13065500  0.12857000  1
  C  1974  1  0.70188700  0.10328300  0.09329100  1
  C  1975  1  0.71008900  0.09523500  0.14251200  1
  C  1977  1  0.69831400  0.11029700  0.07770000  1
  C  1979  1  0.87882700  0.93117500  0.59150300  1
  C  1980  1  0.89405900  0.91584500  0.60003200  1
  C  1985  1  0.90363000  0.90328300  0.62660700  1
  C  1986  1  0.92002500  0.88886900  0.61986600  1
  C  1987  1  0.93552800  0.87398900  0.62856400  1
  C  1992  1  0.91050600  0.90137900  0.59330000  1
  C  1993  1  0.90239400  0.90942200  0.64250700  1
  C  1995  1  0.91401700  0.89433500  0.57771900  1
  C  1997  1  0.73593400  0.93079300  0.84196500  1
  C  1998  1  0.72055800  0.91550600  0.85041000  1
  C  2003  1  0.70780300  0.90556300  0.87690500  1
  C  2004  1  0.69330400  0.88940600  0.86997600  1
  C  2005  1  0.67821800  0.87385800  0.87845400  1
  C  2010  1  0.70601400  0.89925900  0.84353000  1
  C  2011  1  0.71383900  0.90632500  0.89286500  1
  C  2013  1  0.69928300  0.89561100  0.82789300  1
  C  2015  1  0.87647500  0.07384300  0.34196100  1
  C  2016  1  0.89183000  0.08914700  0.35040900  1
  C  2021  1  0.90456900  0.09910000  0.37691100  1
  C  2022  1  0.91906500  0.11525900  0.36998100  1
  C  2023  1  0.93417700  0.13078500  0.37845400  1
  C  2028  1  0.90630500  0.10545700  0.34353300  1
  C  2029  1  0.89858000  0.09825900  0.39289200  1
  C  2031  1  0.91314900  0.10907100  0.32791000  1
  C  2033  1  0.87884400  0.43114300  0.37766500  1
  C  2034  1  0.89406400  0.41575900  0.36917200  1
  C  2039  1  0.90361900  0.40292200  0.34264600  1
  C  2040  1  0.92007100  0.38864400  0.34945300  1
  C  2041  1  0.93565300  0.37374500  0.34084300  1
  C  2046  1  0.91059400  0.40143200  0.37595500  1
  C  2047  1  0.90242900  0.40892200  0.32669700  1
  C  2049  1  0.91432200  0.39461900  0.39156500  1
  C  2051  1  0.73356500  0.57349900  0.87767200  1
  C  2052  1  0.71833600  0.58887400  0.86917800  1
  C  2057  1  0.70878500  0.60170800  0.84265400  1
  C  2058  1  0.69234300  0.61600700  0.84946400  1
  C  2059  1  0.67675100  0.63090500  0.84086100  1
  C  2064  1  0.70181200  0.60320400  0.87596000  1
  C  2065  1  0.70989200  0.59571500  0.82671800  1
  C  2067  1  0.69814600  0.61004700  0.89155900  1
  C  2069  1  0.87645700  0.57587300  0.62780700  1
  C  2070  1  0.89193800  0.59100100  0.61932200  1
  C  2075  1  0.90483000  0.60048000  0.59280100  1
  C  2076  1  0.91912000  0.61693400  0.59959700  1
  C  2077  1  0.93397700  0.63253500  0.59096400  1
  C  2082  1  0.90648000  0.60733600  0.62610300  1
  C  2083  1  0.89890300  0.59927400  0.57686100  1
  C  2085  1  0.91325400  0.61104400  0.64172600  1
  C  2087  1  0.73592700  0.42878400  0.12780700  1
  C  2088  1  0.72046600  0.41364200  0.11932000  1
  C  2093  1  0.70759700  0.40414600  0.09279000  1
  C  2094  1  0.69330500  0.38769600  0.09958800  1
  C  2095  1  0.67842300  0.37211600  0.09096000  1
  C  2100  1  0.70598900  0.39725000  0.12609900  1
  C  2101  1  0.71347900  0.40542700  0.07682900  1
  C  2103  1  0.69910500  0.39357100  0.14170900  1
  C  2105  1  0.23453600  0.57353000  0.59190300  1
  C  2106  1  0.21920000  0.58885400  0.60034800  1
  C  2111  1  0.20932400  0.60167300  0.62683800  1
  C  2112  1  0.19305400  0.61604400  0.61991400  1
  C  2113  1  0.17749000  0.63109900  0.62840500  1
  C  2118  1  0.20279300  0.60322100  0.59345800  1
  C  2119  1  0.21029100  0.59577600  0.64282900  1
  C  2121  1  0.19924300  0.61008700  0.57782700  1
  C  2123  1  0.37785300  0.43112800  0.09190000  1
  C  2124  1  0.39319500  0.41580900  0.10034600  1
  C  2129  1  0.40306200  0.40298800  0.12683200  1
  C  2130  1  0.41932800  0.38860200  0.11990800  1
  C  2131  1  0.43490100  0.37354800  0.12839200  1
  C  2136  1  0.40960300  0.40144300  0.09345900  1
  C  2137  1  0.40217700  0.40888400  0.14280600  1
  C  2139  1  0.41310300  0.39455700  0.07783800  1
  C  2141  1  0.23494200  0.42875600  0.34156100  1
  C  2142  1  0.21957800  0.41356300  0.35009600  1
  C  2147  1  0.20693700  0.40406600  0.37667700  1
  C  2148  1  0.19249800  0.38769200  0.36993900  1
  C  2149  1  0.17760300  0.37221200  0.37864000  1
  C  2154  1  0.20502200  0.39718600  0.34338400  1
  C  2155  1  0.21309600  0.40528800  0.39257900  1
  C  2157  1  0.19824200  0.39339900  0.32777900  1
  C  2159  1  0.37747000  0.57588200  0.84156400  1
  C  2160  1  0.39281500  0.59108800  0.85010100  1
  C  2165  1  0.40543400  0.60060200  0.87669000  1
  C  2166  1  0.41987300  0.61697200  0.86995000  1
  C  2167  1  0.43479500  0.63243200  0.87864600  1
  C  2172  1  0.40730400  0.60752400  0.84339100  1
  C  2173  1  0.39932100  0.59930600  0.89261400  1
  C  2175  1  0.41419100  0.61128400  0.82780000  1
  C  2177  1  0.32279900  0.02890300  0.96474100  1
  C  2178  1  0.33754500  0.01680300  0.97579700  1
  C  2183  1  0.35116100  0.97931900  0.98326300  1
  C  2184  1  0.36389600  0.98995000  0.99539900  1
  C  2185  1  0.37833600  0.98110600  0.00801900  1
  C  2190  1  0.34973400  0.02695500  0.98827200  1
  C  2191  1  0.34532800  0.95652000  0.98130400  1
  C  2193  1  0.35250500  0.04914000  0.99343700  1
  C  2195  1  0.28961100  0.97580900  0.46470100  1
  C  2196  1  0.27496400  0.98793200  0.47581000  1
  C  2201  1  0.26144600  0.02542700  0.48333000  1
  C  2202  1  0.24861600  0.01479600  0.49541800  1
  C  2203  1  0.23413200  0.02358600  0.50803300  1
  C  2208  1  0.26278300  0.97779200  0.48829300  1
  C  2209  1  0.26716300  0.04824500  0.48134800  1
  C  2211  1  0.25956700  0.95565500  0.49332100  1
  C  2213  1  0.27964800  0.01883400  0.21470200  1
  C  2214  1  0.29179400  0.03348300  0.22578900  1
  C  2219  1  0.32936000  0.04699900  0.23330900  1
  C  2220  1  0.31869900  0.05979400  0.24539800  1
  C  2221  1  0.32750800  0.07423900  0.25801900  1
  C  2226  1  0.28162100  0.04571200  0.23822800  1
  C  2227  1  0.35222400  0.04127800  0.23135200  1
  C  2229  1  0.25944200  0.04874400  0.24331600  1
  C  2231  1  0.33282600  0.98579300  0.71472900  1
  C  2232  1  0.32068900  0.97109300  0.72578700  1
  C  2237  1  0.28312300  0.95755900  0.73328700  1
  C  2238  1  0.29378800  0.94477100  0.74538100  1
  C  2239  1  0.28493200  0.93035500  0.75800000  1
  C  2244  1  0.33085900  0.95890300  0.73824700  1
  C  2245  1  0.26026000  0.96330700  0.73133500  1
  C  2247  1  0.35304200  0.95616400  0.74345700  1
  C  2249  1  0.78855900  0.97574500  0.00467400  1
  C  2250  1  0.77381800  0.98783900  0.99361100  1
  C  2255  1  0.76018700  0.02526600  0.98609900  1
  C  2256  1  0.74745500  0.01462500  0.97397300  1
  C  2257  1  0.73301800  0.02347000  0.96136000  1
  C  2262  1  0.76163200  0.97767800  0.98114300  1
  C  2263  1  0.76599600  0.04805400  0.98798500  1
  C  2265  1  0.75885000  0.95547500  0.97607600  1
  C  2267  1  0.82383000  0.02883500  0.50471300  1
  C  2268  1  0.83847000  0.01672000  0.49359700  1
  C  2273  1  0.85200300  0.97928100  0.48603300  1
  C  2274  1  0.86482800  0.98992300  0.47395400  1
  C  2275  1  0.87931200  0.98113300  0.46134500  1
  C  2280  1  0.85064400  0.02686800  0.48112000  1
  C  2281  1  0.84631200  0.95647600  0.48794100  1
  C  2283  1  0.85387400  0.04901800  0.47618800  1
  C  2285  1  0.83328800  0.98617400  0.75482000  1
  C  2286  1  0.82118000  0.97156200  0.74368700  1
  C  2291  1  0.78385300  0.95766600  0.73611000  1
  C  2292  1  0.79462400  0.94497600  0.72400800  1
  C  2293  1  0.78592100  0.93039200  0.71142700  1
  C  2298  1  0.83137400  0.95969200  0.73111400  1
  C  2299  1  0.76102100  0.96344500  0.73790200  1
  C  2301  1  0.85359500  0.95725700  0.72617700  1
  C  2303  1  0.77902300  0.01848800  0.25479200  1
  C  2304  1  0.79112400  0.03315500  0.24368800  1
  C  2309  1  0.82844100  0.04709400  0.23613800  1
  C  2310  1  0.81766400  0.05978100  0.22403400  1
  C  2311  1  0.82642100  0.07432600  0.21145200  1
  C  2316  1  0.78093100  0.04498800  0.23109700  1
  C  2317  1  0.85127000  0.04127800  0.23791900  1
  C  2319  1  0.75870500  0.04708000  0.22604000  1
  C  2321  1  0.82382100  0.52889500  0.46472500  1
  C  2322  1  0.83855600  0.51679600  0.47578800  1
  C  2327  1  0.85220300  0.47936900  0.48328000  1
  C  2328  1  0.86494200  0.48999900  0.49541100  1
  C  2329  1  0.87939200  0.48116500  0.50802400  1
  C  2334  1  0.85070800  0.52693800  0.48828000  1
  C  2335  1  0.84633200  0.45659400  0.48140100  1
  C  2337  1  0.85339900  0.54912100  0.49340700  1
  C  2339  1  0.78858700  0.47582000  0.96468600  1
  C  2340  1  0.77395400  0.48794200  0.97580200  1
  C  2345  1  0.76040700  0.52538300  0.98334700  1
  C  2346  1  0.74756900  0.51475100  0.99542600  1
  C  2347  1  0.73307400  0.52353600  0.00803200  1
  C  2352  1  0.76181400  0.47781400  0.98830300  1
  C  2353  1  0.76615900  0.54817600  0.98144700  1
  C  2355  1  0.75866900  0.45568200  0.99329500  1
  C  2357  1  0.77909900  0.52061900  0.71457800  1
  C  2358  1  0.79120300  0.53523100  0.72571400  1
  C  2363  1  0.82852900  0.54911500  0.73330800  1
  C  2364  1  0.81774800  0.56180000  0.74540700  1
  C  2365  1  0.82645800  0.57636500  0.75799100  1
  C  2370  1  0.78098800  0.54714400  0.73826000  1
  C  2371  1  0.85137400  0.54339700  0.73150800  1
  C  2373  1  0.75874900  0.54967200  0.74313800  1
  C  2375  1  0.83338400  0.48401400  0.21460800  1
  C  2376  1  0.82129100  0.46934100  0.22571000  1
  C  2381  1  0.78397300  0.45541700  0.23327800  1
  C  2382  1  0.79475800  0.44273900  0.24537900  1
  C  2383  1  0.78599300  0.42820900  0.25796400  1
  C  2388  1  0.83150300  0.45746900  0.23827600  1
  C  2389  1  0.76112900  0.46117000  0.23148900  1
  C  2391  1  0.85374900  0.45528300  0.24327500  1
  C  2393  1  0.28966800  0.47575400  0.50469000  1
  C  2394  1  0.27493900  0.48784800  0.49361900  1
  C  2399  1  0.26127800  0.52522000  0.48608200  1
  C  2400  1  0.24854000  0.51457800  0.47396300  1
  C  2401  1  0.23409400  0.52341700  0.46135700  1
  C  2406  1  0.26279200  0.47769500  0.48113400  1
  C  2407  1  0.26712200  0.54798300  0.48789100  1
  C  2409  1  0.26008100  0.45549400  0.47610600  1
  C  2411  1  0.32272300  0.52882800  0.00473000  1
  C  2412  1  0.33734800  0.51671200  0.99360500  1
  C  2417  1  0.35091000  0.47932800  0.98601500  1
  C  2418  1  0.36374200  0.48997000  0.97394500  1
  C  2419  1  0.37823500  0.48118700  0.96134300  1
  C  2424  1  0.34948300  0.52685200  0.98111100  1
  C  2425  1  0.34518300  0.45654700  0.98784400  1
  C  2427  1  0.35264800  0.54899900  0.97621600  1
  C  2429  1  0.33273900  0.48375400  0.25472900  1
  C  2430  1  0.32059700  0.46912800  0.24362600  1
  C  2435  1  0.28314400  0.45556500  0.23603600  1
  C  2436  1  0.29381700  0.44277100  0.22396200  1
  C  2437  1  0.28501400  0.42831400  0.21135700  1
  C  2442  1  0.33077000  0.45694300  0.23117500  1
  C  2443  1  0.26031500  0.46129600  0.23784200  1
  C  2445  1  0.35295700  0.45396700  0.22622100  1
  C  2447  1  0.27958500  0.52091400  0.75470200  1
  C  2448  1  0.29171700  0.53559200  0.74362800  1
  C  2453  1  0.32916900  0.54917500  0.73605900  1
  C  2454  1  0.31849400  0.56196300  0.72398100  1
  C  2455  1  0.32734500  0.57638900  0.71137800  1
  C  2460  1  0.28154500  0.54774000  0.73115900  1
  C  2461  1  0.35199700  0.54341500  0.73785700  1
  C  2463  1  0.25935000  0.55041600  0.72608300  1
  N  38  1  0.37702600  0.81821900  0.99946800  1
  N  39  1  0.35586500  0.93770500  0.97932200  1
  N  40  1  0.49390600  0.85993400  0.96116100  1
  N  41  1  0.40165100  0.90029500  0.90389200  1
  N  79  1  0.23536900  0.18638800  0.49947400  1
  N  80  1  0.25654800  0.06700500  0.47932700  1
  N  81  1  0.11848400  0.14472300  0.46114500  1
  N  82  1  0.21074900  0.10434100  0.40390300  1
  N  120  1  0.49064900  0.07300800  0.24947700  1
  N  121  1  0.37103000  0.05186100  0.22933800  1
  N  122  1  0.44890700  0.18963100  0.21113800  1
  N  123  1  0.40845900  0.09751800  0.15388800  1
  N  161  1  0.12169500  0.93164000  0.74946200  1
  N  162  1  0.24143200  0.95276100  0.72932400  1
  N  163  1  0.16349700  0.81501800  0.71115100  1
  N  164  1  0.20392300  0.90710900  0.65387200  1
  N  202  1  0.23534000  0.81812200  0.46992000  1
  N  203  1  0.25324400  0.94120400  0.48299900  1
  N  204  1  0.11925000  0.86005200  0.50839000  1
  N  205  1  0.20234200  0.89603500  0.56566900  1
  N  243  1  0.37705800  0.18648700  0.96991100  1
  N  244  1  0.35923600  0.06325700  0.98302600  1
  N  245  1  0.49310800  0.14459000  0.00839100  1
  N  246  1  0.41003200  0.10861900  0.06566500  1
  N  284  1  0.12164600  0.07304000  0.21990800  1
  N  285  1  0.24494500  0.05515600  0.23303500  1
  N  286  1  0.16361400  0.18887800  0.25839800  1
  N  287  1  0.19966200  0.10594300  0.31566900  1
  N  325  1  0.49078300  0.93160900  0.71991500  1
  N  326  1  0.36724300  0.94938300  0.73308800  1
  N  327  1  0.44878300  0.81578800  0.75839500  1
  N  328  1  0.41268900  0.89870500  0.81566100  1
  N  366  1  0.73439100  0.18647900  0.96985700  1
  N  367  1  0.75534800  0.06680200  0.98990200  1
  N  368  1  0.61952500  0.14841300  0.00670300  1
  N  369  1  0.70962600  0.10433800  0.06537200  1
  N  407  1  0.87801100  0.81821100  0.46985100  1
  N  408  1  0.85703800  0.93778400  0.48989700  1
  N  409  1  0.99288800  0.85623300  0.50670200  1
  N  410  1  0.90277400  0.90032300  0.56536400  1
  N  448  1  0.61644400  0.93322600  0.72322200  1
  N  449  1  0.74226100  0.95284600  0.73995200  1
  N  450  1  0.66457000  0.81511700  0.75818800  1
  N  451  1  0.70544200  0.90673600  0.81553300  1
  N  489  1  0.99585400  0.07140000  0.22318700  1
  N  490  1  0.87005700  0.05182900  0.23996300  1
  N  491  1  0.94781000  0.18951400  0.25818400  1
  N  492  1  0.90696700  0.09792700  0.31556200  1
  N  530  1  0.87808300  0.18652100  0.49956100  1
  N  531  1  0.86049900  0.06319000  0.48659900  1
  N  532  1  0.99192200  0.14841100  0.46240300  1
  N  533  1  0.91017200  0.10808900  0.40380500  1
  N  571  1  0.73431500  0.81810200  0.99956300  1
  N  572  1  0.75181400  0.94164200  0.98656600  1
  N  573  1  0.62050400  0.85624100  0.96240400  1
  N  574  1  0.70225100  0.89654600  0.90381100  1
  N  612  1  0.99616200  0.93315100  0.74622800  1
  N  613  1  0.86711800  0.94948900  0.73660300  1
  N  614  1  0.94778100  0.81575500  0.71104900  1
  N  615  1  0.91187100  0.89799800  0.65366200  1
  N  653  1  0.61644200  0.07144600  0.24631000  1
  N  654  1  0.74553000  0.05528200  0.23652400  1
  N  655  1  0.66463600  0.18887900  0.21104900  1
  N  656  1  0.70059500  0.10665300  0.15365600  1
  N  694  1  0.87654200  0.31190200  0.49616500  1
  N  695  1  0.85692100  0.43783000  0.47939500  1
  N  696  1  0.99485600  0.35994500  0.46121600  1
  N  697  1  0.90311900  0.40073000  0.40390500  1
  N  735  1  0.73583100  0.69284800  0.99613300  1
  N  736  1  0.75549700  0.56688700  0.97940200  1
  N  737  1  0.61753800  0.64471800  0.96120200  1
  N  738  1  0.70927500  0.60391100  0.90392800  1
  N  776  1  0.98970500  0.57505100  0.74953500  1
  N  777  1  0.87011400  0.55405700  0.72954700  1
  N  778  1  0.95155700  0.68966100  0.71267300  1
  N  779  1  0.90736700  0.59964000  0.65402200  1
  N  817  1  0.62274100  0.42959700  0.24953600  1
  N  818  1  0.74235900  0.45055700  0.22953500  1
  N  819  1  0.66084700  0.31497800  0.21268200  1
  N  820  1  0.70501700  0.40498900  0.15399300  1
  N  858  1  0.73589500  0.31189600  0.97306600  1
  N  859  1  0.75210300  0.44144400  0.98291600  1
  N  860  1  0.61829600  0.36006100  0.00834300  1
  N  861  1  0.70156900  0.39630800  0.06577000  1
  N  899  1  0.87651200  0.69265800  0.47302900  1
  N  900  1  0.86039000  0.56301400  0.48294400  1
  N  901  1  0.99406900  0.64459400  0.50834500  1
  N  902  1  0.91080600  0.60834600  0.56577400  1
  N  940  1  0.62268100  0.57513000  0.71972200  1
  N  941  1  0.74528800  0.55749000  0.73268600  1
  N  942  1  0.66076800  0.68886700  0.75700600  1
  N  943  1  0.70053800  0.60741000  0.81564900  1
  N  981  1  0.98974700  0.42952000  0.21972800  1
  N  982  1  0.86686900  0.44704300  0.23276500  1
  N  983  1  0.95162700  0.31581900  0.25701000  1
  N  984  1  0.91180300  0.39723800  0.31563700  1
  N  1022  1  0.23696900  0.69288500  0.47321100  1
  N  1023  1  0.25642400  0.56668000  0.48983100  1
  N  1024  1  0.12068700  0.64840800  0.50665900  1
  N  1025  1  0.21029800  0.60387200  0.56543700  1
  N  1063  1  0.37541700  0.31185900  0.97317300  1
  N  1064  1  0.35595900  0.43790500  0.98982500  1
  N  1065  1  0.49171900  0.35624100  0.00665800  1
  N  1066  1  0.40209800  0.40079000  0.06543000  1
  N  1104  1  0.11535400  0.43117800  0.22314400  1
  N  1105  1  0.24162900  0.45055000  0.23981500  1
  N  1106  1  0.15980200  0.31509600  0.25665700  1
  N  1107  1  0.20438300  0.40448200  0.31539600  1
  N  1145  1  0.49694400  0.57344900  0.72311100  1
  N  1146  1  0.37070500  0.55412400  0.73982800  1
  N  1147  1  0.45259500  0.68955400  0.75666200  1
  N  1148  1  0.40803200  0.60018100  0.81542800  1
  N  1186  1  0.37534500  0.69282200  0.99634500  1
  N  1187  1  0.35952700  0.56295300  0.98667900  1
  N  1188  1  0.49075500  0.64844100  0.96245500  1
  N  1189  1  0.41078100  0.60875600  0.90376300  1
  N  1227  1  0.23704800  0.31191800  0.49638100  1
  N  1228  1  0.25278300  0.44188400  0.48664200  1
  N  1229  1  0.12166800  0.35621500  0.46245700  1
  N  1230  1  0.20164000  0.39588500  0.40375800  1
  N  1268  1  0.49708200  0.43109600  0.24626300  1
  N  1269  1  0.36695000  0.44700000  0.23664500  1
  N  1270  1  0.45261000  0.31605400  0.21243800  1
  N  1271  1  0.41171800  0.39712500  0.15377300  1
  N  1309  1  0.11524400  0.57354600  0.74624000  1
  N  1310  1  0.24566300  0.55775700  0.73658200  1
  N  1311  1  0.15977300  0.68855800  0.71243000  1
  N  1312  1  0.20072400  0.60752000  0.65378600  1
  N  1318  1  0.36355000  0.76214400  0.01188000  1
  N  1325  1  0.39476600  0.74472600  0.99378900  1
  N  1336  1  0.24883800  0.24245500  0.51194300  1
  N  1343  1  0.21764800  0.25985900  0.49383500  1
  N  1354  1  0.54683500  0.05954000  0.26194200  1
  N  1361  1  0.56428700  0.09065600  0.24383000  1
  N  1372  1  0.06548900  0.94511900  0.76188400  1
  N  1379  1  0.04803600  0.91396200  0.74379600  1
  N  1390  1  0.24887700  0.76210700  0.45753300  1
  N  1397  1  0.21765500  0.74465900  0.47561500  1
  N  1408  1  0.36353600  0.24250900  0.95748500  1
  N  1415  1  0.39472900  0.25993700  0.97558900  1
  N  1426  1  0.06550900  0.05955300  0.20748100  1
  N  1433  1  0.04804400  0.09063100  0.22561800  1
  N  1444  1  0.54693800  0.94510200  0.70751700  1
  N  1451  1  0.56440000  0.91399200  0.72563500  1
  N  1462  1  0.74779100  0.24256300  0.95750800  1
  N  1469  1  0.71657000  0.25994000  0.97560900  1
  N  1480  1  0.86461800  0.76213500  0.45744600  1
  N  1487  1  0.89581400  0.74477000  0.47556300  1
  N  1498  1  0.86459200  0.24255100  0.51191400  1
  N  1505  1  0.89577500  0.25996300  0.49379300  1
  N  1516  1  0.74781000  0.76205500  0.01188500  1
  N  1523  1  0.71660700  0.74464400  0.99377600  1
  N  1534  1  0.04590700  0.56164700  0.76187100  1
  N  1541  1  0.06333700  0.59280400  0.74377000  1
  N  1552  1  0.56654300  0.44298900  0.26192900  1
  N  1559  1  0.54912900  0.41185400  0.24381200  1
  N  1570  1  0.56653400  0.56166900  0.70744100  1
  N  1577  1  0.54910700  0.59275400  0.72559300  1
  N  1588  1  0.04591200  0.44298500  0.20747700  1
  N  1595  1  0.06333600  0.41187000  0.22561200  1
  N  1606  1  0.54674100  0.86439000  0.97451400  1
  N  1613  1  0.56509300  0.83819400  0.95312000  1
  N  1624  1  0.06567100  0.14032900  0.47456200  1
  N  1631  1  0.04732700  0.16644900  0.45311400  1
  N  1642  1  0.44450300  0.24238000  0.22455900  1
  N  1649  1  0.47069900  0.26070600  0.20313700  1
  N  1660  1  0.16793200  0.76225300  0.72454300  1
  N  1667  1  0.14172400  0.74392700  0.70313000  1
  N  1678  1  0.06626200  0.86440200  0.49493800  1
  N  1685  1  0.04794000  0.83807000  0.51627600  1
  N  1696  1  0.54615100  0.14030700  0.99489800  1
  N  1703  1  0.56446700  0.16657200  0.01628200  1
  N  1714  1  0.16791200  0.24180500  0.24489700  1
  N  1721  1  0.14158000  0.26010600  0.26626300  1
  N  1732  1  0.44445400  0.76284900  0.74491600  1
  N  1739  1  0.47080500  0.74454800  0.76626800  1
  N  1750  1  0.66900900  0.76239700  0.74488700  1
  N  1757  1  0.64274600  0.74411700  0.76628700  1
  N  1768  1  0.94344400  0.24228900  0.24484900  1
  N  1775  1  0.96964000  0.26056300  0.26629600  1
  N  1786  1  0.94344400  0.76285600  0.72449500  1
  N  1793  1  0.96978900  0.74457800  0.70312000  1
  N  1804  1  0.66898200  0.24178700  0.22448100  1
  N  1811  1  0.64262900  0.26006400  0.20311300  1
  N  1822  1  0.04779300  0.36440200  0.47450700  1
  N  1829  1  0.06617100  0.33822600  0.45312700  1
  N  1840  1  0.56461800  0.64031400  0.97455300  1
  N  1847  1  0.54624800  0.66641800  0.95312000  1
  N  1858  1  0.56519000  0.36436700  0.99491500  1
  N  1865  1  0.54684700  0.33807000  0.01625900  1
  N  1876  1  0.04719900  0.64025600  0.49492200  1
  N  1883  1  0.06554500  0.66655600  0.51626200  1
  N  1894  1  0.39155800  0.91638100  0.85302800  1
  N  1901  1  0.42112600  0.88873400  0.86536100  1
  N  1912  1  0.22084000  0.08825200  0.35302900  1
  N  1919  1  0.19128400  0.11591300  0.36536500  1
  N  1930  1  0.39230500  0.08751100  0.10303200  1
  N  1937  1  0.42010300  0.11694900  0.11536200  1
  N  1948  1  0.22009600  0.91714000  0.60303600  1
  N  1955  1  0.19233900  0.88766800  0.61536200  1
  N  1966  1  0.72033500  0.08845800  0.11608100  1
  N  1973  1  0.69035600  0.11586100  0.10394600  1
  N  1984  1  0.89207200  0.91620800  0.61609000  1
  N  1991  1  0.92203200  0.88878500  0.60394800  1
  N  2002  1  0.72085600  0.91723200  0.86650000  1
  N  2009  1  0.69333700  0.88762800  0.85405500  1
  N  2020  1  0.89154100  0.08741000  0.36649800  1
  N  2027  1  0.91901200  0.11705300  0.35405900  1
  N  2038  1  0.89203900  0.41594700  0.35310700  1
  N  2045  1  0.92212200  0.38876300  0.36536100  1
  N  2056  1  0.72035700  0.58868400  0.85311400  1
  N  2063  1  0.69029200  0.61588600  0.86537100  1
  N  2074  1  0.89173800  0.58898300  0.60325900  1
  N  2081  1  0.91908300  0.61893500  0.61551000  1
  N  2092  1  0.72066300  0.41566500  0.10325600  1
  N  2099  1  0.69335900  0.38568300  0.11550200  1
  N  2110  1  0.22101000  0.58862500  0.61643700  1
  N  2117  1  0.19120500  0.61592600  0.60399500  1
  N  2128  1  0.39138700  0.41603600  0.11643200  1
  N  2135  1  0.42118300  0.38872300  0.10399000  1
  N  2146  1  0.21991300  0.41557200  0.36615300  1
  N  2153  1  0.19243300  0.38565600  0.35402500  1
  N  2164  1  0.39248500  0.58907400  0.86615900  1
  N  2171  1  0.41992300  0.61902200  0.85403600  1
  N  2182  1  0.33857800  0.99390300  0.97438800  1
  N  2189  1  0.36217400  0.01243100  0.99675100  1
  N  2200  1  0.27397600  0.01083700  0.47442400  1
  N  2207  1  0.25033200  0.99232000  0.49675000  1
  N  2218  1  0.31474700  0.03447300  0.22441000  1
  N  2225  1  0.29617000  0.05812000  0.24670600  1
  N  2236  1  0.29774000  0.97008400  0.72439400  1
  N  2243  1  0.31631900  0.94648000  0.74672500  1
  N  2254  1  0.77278500  0.01073400  0.99499900  1
  N  2261  1  0.74917400  0.99214700  0.97263700  1
  N  2272  1  0.83945900  0.99381900  0.49496300  1
  N  2279  1  0.86311700  0.01239600  0.47263800  1
  N  2290  1  0.79827300  0.97029400  0.74507400  1
  N  2297  1  0.81711000  0.94699900  0.72261800  1
  N  2308  1  0.81402300  0.03445600  0.24509400  1
  N  2315  1  0.79517700  0.05771000  0.22260200  1
  N  2326  1  0.83960400  0.49390500  0.47438700  1
  N  2333  1  0.86318800  0.51247000  0.49676700  1
  N  2344  1  0.77295300  0.51083800  0.97442200  1
  N  2351  1  0.74931700  0.49228700  0.99676600  1
  N  2362  1  0.81411400  0.53648500  0.72434100  1
  N  2369  1  0.79525300  0.55981500  0.74677300  1
  N  2380  1  0.79838700  0.46805300  0.22431800  1
  N  2387  1  0.81725500  0.44477200  0.24678900  1
  N  2398  1  0.27389000  0.51073400  0.49500000  1
  N  2405  1  0.25029000  0.49211100  0.47262200  1
  N  2416  1  0.33835100  0.49382100  0.99496300  1
  N  2423  1  0.36200000  0.51243300  0.97262300  1
  N  2434  1  0.29765900  0.46811900  0.24497600  1
  N  2441  1  0.31633000  0.44447100  0.22266500  1
  N  2452  1  0.31465100  0.53661900  0.74499400  1
  N  2459  1  0.29597700  0.56022700  0.72264700  1
