# generated using pymatgen
data_K2Zn19H192(C81O20)4
_symmetry_space_group_name_H-M   'P 1'
_cell_length_a   32.38936000
_cell_length_b   32.39225000
_cell_length_c   33.36865596
_cell_angle_alpha   118.88282903
_cell_angle_beta   118.88438173
_cell_angle_gamma   90.17704000
_symmetry_Int_Tables_number   1
_chemical_formula_structural   K2Zn19H192(C81O20)4
_chemical_formula_sum   'K4 Zn38 H384 C648 O160'
_cell_volume   25532.94287493
_cell_formula_units_Z   2
loop_
 _symmetry_equiv_pos_site_id
 _symmetry_equiv_pos_as_xyz
  1  'x, y, z'
loop_
 _atom_site_type_symbol
 _atom_site_label
 _atom_site_symmetry_multiplicity
 _atom_site_fract_x
 _atom_site_fract_y
 _atom_site_fract_z
 _atom_site_occupancy
  K  K1  1  0.35988000  0.62474000  0.75022000  1.0
  K  K2  1  0.39095000  0.12594000  0.75004000  1.0
  K  K3  1  0.37527000  0.64015000  0.24978000  1.0
  K  K4  1  0.87409000  0.60904000  0.24998000  1.0
  Zn  Zn1  1  0.36757000  0.73965000  0.70433000  1.0
  Zn  Zn2  1  0.24921000  0.66320000  0.62830000  1.0
  Zn  Zn3  1  0.32462000  0.62807000  0.58656000  1.0
  Zn  Zn4  1  0.79143000  0.18290000  0.39516000  1.0
  Zn  Zn5  1  0.33767000  0.96522000  0.70443000  1.0
  Zn  Zn6  1  0.38017000  0.96596000  0.62848000  1.0
  Zn  Zn7  1  0.26269000  0.96009000  0.58749000  1.0
  Zn  Zn8  1  0.60191000  0.21074000  0.39372000  1.0
  Zn  Zn9  1  0.48938000  0.58673000  0.20363000  1.0
  Zn  Zn10  1  0.41123000  0.62958000  0.12995000  1.0
  Zn  Zn11  1  0.37891000  0.51145000  0.08569000  1.0
  Zn  Zn12  1  0.93190000  0.85267000  0.89429000  1.0
  Zn  Zn13  1  0.71532000  0.61838000  0.20496000  1.0
  Zn  Zn14  1  0.71968000  0.50183000  0.13171000  1.0
  Zn  Zn15  1  0.70720000  0.57428000  0.08627000  1.0
  Zn  Zn16  1  0.96151000  0.04225000  0.89431000  1.0
  Zn  Zn17  1  0.38167000  0.28468000  0.79505000  1.0
  Zn  Zn18  1  0.49838000  0.28027000  0.86817000  1.0
  Zn  Zn19  1  0.42575000  0.29276000  0.91368000  1.0
  Zn  Zn20  1  0.95777000  0.03852000  0.10570000  1.0
  Zn  Zn21  1  0.41325000  0.51062000  0.79636000  1.0
  Zn  Zn22  1  0.37043000  0.58875000  0.87006000  1.0
  Zn  Zn23  1  0.48855000  0.62109000  0.91431000  1.0
  Zn  Zn24  1  0.14734000  0.06810000  0.10572000  1.0
  Zn  Zn25  1  0.26037000  0.63242000  0.29569000  1.0
  Zn  Zn26  1  0.33690000  0.75070000  0.37159000  1.0
  Zn  Zn27  1  0.37195000  0.67537000  0.41347000  1.0
  Zn  Zn28  1  0.81709000  0.20856000  0.60481000  1.0
  Zn  Zn29  1  0.03480000  0.66234000  0.29559000  1.0
  Zn  Zn30  1  0.03403000  0.61983000  0.37150000  1.0
  Zn  Zn31  1  0.03994000  0.73732000  0.41252000  1.0
  Zn  Zn32  1  0.78910000  0.39786000  0.60610000  1.0
  Zn  Zn33  1  0.68030000  0.17984000  0.36071000  1.0
  Zn  Zn34  1  0.92983000  0.92987000  0.86072000  1.0
  Zn  Zn35  1  0.07026000  0.07028000  0.13942000  1.0
  Zn  Zn36  1  0.81998000  0.31969000  0.63902000  1.0
  Zn  Zn37  1  0.74927000  0.24956000  0.49949000  1.0
  Zn  Zn38  1  0.99990000  0.00011000  0.00001000  1.0
  H  H1  1  0.83334000  0.24253000  0.49564000  1.0
  H  H2  1  0.33510000  0.65155000  0.66993000  1.0
  H  H3  1  0.75974000  0.17287000  0.44475000  1.0
  H  H4  1  0.49279000  0.83757000  0.87739000  1.0
  H  H5  1  0.55640000  0.86964000  0.97533000  1.0
  H  H6  1  0.47276000  0.75453000  0.96181000  1.0
  H  H7  1  0.40935000  0.72379000  0.86538000  1.0
  H  H8  1  0.57128000  0.90831000  0.06883000  1.0
  H  H9  1  0.66116000  0.86478000  0.17861000  1.0
  H  H10  1  0.55501000  0.75427000  0.00714000  1.0
  H  H11  1  0.57871000  0.96835000  0.14686000  1.0
  H  H12  1  0.62194000  0.05722000  0.22351000  1.0
  H  H13  1  0.75672000  0.02300000  0.29449000  1.0
  H  H14  1  0.71442000  0.93453000  0.21712000  1.0
  H  H15  1  0.64142000  0.80420000  0.18575000  1.0
  H  H16  1  0.66385000  0.73663000  0.19889000  1.0
  H  H17  1  0.63015000  0.64814000  0.03532000  1.0
  H  H18  1  0.60854000  0.71550000  0.02113000  1.0
  H  H19  1  0.14392000  0.60773000  0.65318000  1.0
  H  H20  1  0.10945000  0.56944000  0.68426000  1.0
  H  H21  1  0.23018000  0.50789000  0.72264000  1.0
  H  H22  1  0.26353000  0.54506000  0.69080000  1.0
  H  H23  1  0.07366000  0.48650000  0.66622000  1.0
  H  H24  1  0.11603000  0.47586000  0.80416000  1.0
  H  H25  1  0.22626000  0.54444000  0.79952000  1.0
  H  H26  1  0.00701000  0.49391000  0.66949000  1.0
  H  H27  1  0.91924000  0.45295000  0.62697000  1.0
  H  H28  1  0.96399000  0.36322000  0.69285000  1.0
  H  H29  1  0.05198000  0.40463000  0.73623000  1.0
  H  H30  1  0.18210000  0.45591000  0.85134000  1.0
  H  H31  1  0.25288000  0.47139000  0.93861000  1.0
  H  H32  1  0.33136000  0.60264000  0.97230000  1.0
  H  H33  1  0.26193000  0.58784000  0.88502000  1.0
  H  H34  1  0.58668000  0.73321000  0.93810000  1.0
  H  H35  1  0.62580000  0.79448000  0.93223000  1.0
  H  H36  1  0.50386000  0.72487000  0.76333000  1.0
  H  H37  1  0.46423000  0.66623000  0.77065000  1.0
  H  H38  1  0.66506000  0.81613000  0.89771000  1.0
  H  H39  1  0.63032000  0.91192000  0.83831000  1.0
  H  H40  1  0.51334000  0.80190000  0.79277000  1.0
  H  H41  1  0.72360000  0.89230000  0.97376000  1.0
  H  H42  1  0.81263000  0.93986000  0.03037000  1.0
  H  H43  1  0.79303000  0.94627000  0.89627000  1.0
  H  H44  1  0.70393000  0.90088000  0.84093000  1.0
  H  H45  1  0.56637000  0.89341000  0.75040000  1.0
  H  H46  1  0.49769000  0.91627000  0.69644000  1.0
  H  H47  1  0.41232000  0.88248000  0.74871000  1.0
  H  H48  1  0.47983000  0.85886000  0.80246000  1.0
  H  H49  1  0.66295000  0.25662000  0.49413000  1.0
  H  H50  1  0.33663000  0.01933000  0.67072000  1.0
  H  H51  1  0.68282000  0.27173000  0.44626000  1.0
  H  H52  1  0.38496000  0.04014000  0.87718000  1.0
  H  H53  1  0.41868000  0.10600000  0.97495000  1.0
  H  H54  1  0.48919000  0.20753000  0.96165000  1.0
  H  H55  1  0.45675000  0.14190000  0.86539000  1.0
  H  H56  1  0.49715000  0.16057000  0.06842000  1.0
  H  H57  1  0.51718000  0.31377000  0.17830000  1.0
  H  H58  1  0.45213000  0.25314000  0.00687000  1.0
  H  H59  1  0.56800000  0.17861000  0.14645000  1.0
  H  H60  1  0.60181000  0.16648000  0.22327000  1.0
  H  H61  1  0.53790000  0.27140000  0.29445000  1.0
  H  H62  1  0.50254000  0.28245000  0.21698000  1.0
  H  H63  1  0.54439000  0.38158000  0.18553000  1.0
  H  H64  1  0.53509000  0.46232000  0.19865000  1.0
  H  H65  1  0.40555000  0.38750000  0.03506000  1.0
  H  H66  1  0.41299000  0.30593000  0.02081000  1.0
  H  H67  1  0.51029000  0.04619000  0.65343000  1.0
  H  H68  1  0.57571000  0.11574000  0.68475000  1.0
  H  H69  1  0.49254000  0.21505000  0.72217000  1.0
  H  H70  1  0.42751000  0.14585000  0.69012000  1.0
  H  H71  1  0.59329000  0.18058000  0.66660000  1.0
  H  H72  1  0.68845000  0.32904000  0.80459000  1.0
  H  H73  1  0.57353000  0.25556000  0.79969000  1.0
  H  H74  1  0.66268000  0.17619000  0.66932000  1.0
  H  H75  1  0.70751000  0.17435000  0.62620000  1.0
  H  H76  1  0.72916000  0.32980000  0.69220000  1.0
  H  H77  1  0.68497000  0.33228000  0.73611000  1.0
  H  H78  1  0.66925000  0.39613000  0.85186000  1.0
  H  H79  1  0.68587000  0.46757000  0.93937000  1.0
  H  H80  1  0.64138000  0.36964000  0.97287000  1.0
  H  H81  1  0.62313000  0.29745000  0.88525000  1.0
  H  H82  1  0.35181000  0.20438000  0.93797000  1.0
  H  H83  1  0.30682000  0.13736000  0.93218000  1.0
  H  H84  1  0.26024000  0.03817000  0.76325000  1.0
  H  H85  1  0.30682000  0.10428000  0.77047000  1.0
  H  H86  1  0.23234000  0.08090000  0.89696000  1.0
  H  H87  1  0.20849000  0.92602000  0.83844000  1.0
  H  H88  1  0.27976000  0.99033000  0.79259000  1.0
  H  H89  1  0.24972000  0.08103000  0.97295000  1.0
  H  H90  1  0.21720000  0.09066000  0.02972000  1.0
  H  H91  1  0.10311000  0.95006000  0.89631000  1.0
  H  H92  1  0.13691000  0.93955000  0.84083000  1.0
  H  H93  1  0.18462000  0.85642000  0.75026000  1.0
  H  H94  1  0.19957000  0.77998000  0.69591000  1.0
  H  H95  1  0.33716000  0.86663000  0.74902000  1.0
  H  H96  1  0.32307000  0.94361000  0.80292000  1.0
  H  H97  1  0.98821000  0.91325000  0.99448000  1.0
  H  H98  1  0.40091000  0.58118000  0.16963000  1.0
  H  H99  1  0.92342000  0.93424000  0.94555000  1.0
  H  H100  1  0.58720000  0.63446000  0.37673000  1.0
  H  H101  1  0.61908000  0.66857000  0.47461000  1.0
  H  H102  1  0.50417000  0.73833000  0.46083000  1.0
  H  H103  1  0.47372000  0.70568000  0.36457000  1.0
  H  H104  1  0.65783000  0.74721000  0.56806000  1.0
  H  H105  1  0.61411000  0.76667000  0.67778000  1.0
  H  H106  1  0.50372000  0.70179000  0.50638000  1.0
  H  H107  1  0.71803000  0.81766000  0.64599000  1.0
  H  H108  1  0.80686000  0.85129000  0.72279000  1.0
  H  H109  1  0.77220000  0.78734000  0.79382000  1.0
  H  H110  1  0.68377000  0.75224000  0.71649000  1.0
  H  H111  1  0.55379000  0.79424000  0.68497000  1.0
  H  H112  1  0.48628000  0.78469000  0.69841000  1.0
  H  H113  1  0.39742000  0.65501000  0.53512000  1.0
  H  H114  1  0.46457000  0.66254000  0.52041000  1.0
  H  H115  1  0.35731000  0.76056000  0.15320000  1.0
  H  H116  1  0.31855000  0.82550000  0.18368000  1.0
  H  H117  1  0.25682000  0.74260000  0.22191000  1.0
  H  H118  1  0.29469000  0.67807000  0.19089000  1.0
  H  H119  1  0.23588000  0.84307000  0.16573000  1.0
  H  H120  1  0.22537000  0.93792000  0.30380000  1.0
  H  H121  1  0.29349000  0.82322000  0.29879000  1.0
  H  H122  1  0.24307000  0.91278000  0.16863000  1.0
  H  H123  1  0.20247000  0.95821000  0.12639000  1.0
  H  H124  1  0.11323000  0.97939000  0.19293000  1.0
  H  H125  1  0.15421000  0.93457000  0.23600000  1.0
  H  H126  1  0.20562000  0.91912000  0.35113000  1.0
  H  H127  1  0.22158000  0.93608000  0.43884000  1.0
  H  H128  1  0.35224000  0.89088000  0.47191000  1.0
  H  H129  1  0.33717000  0.87295000  0.38435000  1.0
  H  H130  1  0.48394000  0.60131000  0.43857000  1.0
  H  H131  1  0.54499000  0.55643000  0.43255000  1.0
  H  H132  1  0.47504000  0.50943000  0.26352000  1.0
  H  H133  1  0.41660000  0.55624000  0.27098000  1.0
  H  H134  1  0.56618000  0.48225000  0.39754000  1.0
  H  H135  1  0.66215000  0.45840000  0.33838000  1.0
  H  H136  1  0.55226000  0.52936000  0.29265000  1.0
  H  H137  1  0.64253000  0.49991000  0.47371000  1.0
  H  H138  1  0.69005000  0.46762000  0.53044000  1.0
  H  H139  1  0.69594000  0.35331000  0.39616000  1.0
  H  H140  1  0.65062000  0.38695000  0.34075000  1.0
  H  H141  1  0.64382000  0.43452000  0.25034000  1.0
  H  H142  1  0.66710000  0.45000000  0.19682000  1.0
  H  H143  1  0.63276000  0.58688000  0.24883000  1.0
  H  H144  1  0.60895000  0.57245000  0.30229000  1.0
  H  H145  1  0.00647000  0.08107000  0.99415000  1.0
  H  H146  1  0.76939000  0.58963000  0.17017000  1.0
  H  H147  1  0.02173000  0.01242000  0.94576000  1.0
  H  H148  1  0.79065000  0.74343000  0.37827000  1.0
  H  H149  1  0.85687000  0.80705000  0.47603000  1.0
  H  H150  1  0.95750000  0.72291000  0.46175000  1.0
  H  H151  1  0.89129000  0.65935000  0.36560000  1.0
  H  H152  1  0.91133000  0.82195000  0.56905000  1.0
  H  H153  1  0.06468000  0.91186000  0.67866000  1.0
  H  H154  1  0.00387000  0.80505000  0.50733000  1.0
  H  H155  1  0.92877000  0.82893000  0.64643000  1.0
  H  H156  1  0.91636000  0.87152000  0.72300000  1.0
  H  H157  1  0.02182000  0.00680000  0.79469000  1.0
  H  H158  1  0.03337000  0.96499000  0.71759000  1.0
  H  H159  1  0.13237000  0.89145000  0.68586000  1.0
  H  H160  1  0.21316000  0.91400000  0.69892000  1.0
  H  H161  1  0.13864000  0.88045000  0.53553000  1.0
  H  H162  1  0.05689000  0.85826000  0.52103000  1.0
  H  H163  1  0.79621000  0.39280000  0.15384000  1.0
  H  H164  1  0.86557000  0.35856000  0.18443000  1.0
  H  H165  1  0.96497000  0.47973000  0.22218000  1.0
  H  H166  1  0.89604000  0.51298000  0.19107000  1.0
  H  H167  1  0.93027000  0.32308000  0.16633000  1.0
  H  H168  1  0.07881000  0.36623000  0.30428000  1.0
  H  H169  1  0.00559000  0.47590000  0.29924000  1.0
  H  H170  1  0.92612000  0.25648000  0.16935000  1.0
  H  H171  1  0.92450000  0.16881000  0.12680000  1.0
  H  H172  1  0.08015000  0.21406000  0.19332000  1.0
  H  H173  1  0.08226000  0.30190000  0.23653000  1.0
  H  H174  1  0.14565000  0.43205000  0.35147000  1.0
  H  H175  1  0.21737000  0.50283000  0.43887000  1.0
  H  H176  1  0.11998000  0.58132000  0.47205000  1.0
  H  H177  1  0.04744000  0.51162000  0.38482000  1.0
  H  H178  1  0.95377000  0.83655000  0.43777000  1.0
  H  H179  1  0.88690000  0.87565000  0.43210000  1.0
  H  H180  1  0.78747000  0.75376000  0.26318000  1.0
  H  H181  1  0.85338000  0.71435000  0.27029000  1.0
  H  H182  1  0.83115000  0.91492000  0.39750000  1.0
  H  H183  1  0.67618000  0.88037000  0.33890000  1.0
  H  H184  1  0.73983000  0.76330000  0.29262000  1.0
  H  H185  1  0.83123000  0.97405000  0.47363000  1.0
  H  H186  1  0.83991000  0.06292000  0.53002000  1.0
  H  H187  1  0.69901000  0.04195000  0.39573000  1.0
  H  H188  1  0.68974000  0.95319000  0.34064000  1.0
  H  H189  1  0.60619000  0.81648000  0.25091000  1.0
  H  H190  1  0.52940000  0.74739000  0.19646000  1.0
  H  H191  1  0.61527000  0.66184000  0.24770000  1.0
  H  H192  1  0.69254000  0.72985000  0.30212000  1.0
  H  H193  1  0.91897000  0.99352000  0.00590000  1.0
  H  H194  1  0.41054000  0.23068000  0.82984000  1.0
  H  H195  1  0.98759000  0.97832000  0.05428000  1.0
  H  H196  1  0.25658000  0.20934000  0.62173000  1.0
  H  H197  1  0.19295000  0.14312000  0.52397000  1.0
  H  H198  1  0.27710000  0.04251000  0.53828000  1.0
  H  H199  1  0.34065000  0.10870000  0.63442000  1.0
  H  H200  1  0.17806000  0.08867000  0.43096000  1.0
  H  H201  1  0.08815000  0.93532000  0.32134000  1.0
  H  H202  1  0.19495000  0.99614000  0.49269000  1.0
  H  H203  1  0.17109000  0.07121000  0.35358000  1.0
  H  H204  1  0.12851000  0.08364000  0.27702000  1.0
  H  H205  1  0.99320000  0.97818000  0.20530000  1.0
  H  H206  1  0.03501000  0.96662000  0.28240000  1.0
  H  H207  1  0.10856000  0.86765000  0.31416000  1.0
  H  H208  1  0.08600000  0.78686000  0.30108000  1.0
  H  H209  1  0.11957000  0.86135000  0.46448000  1.0
  H  H210  1  0.14176000  0.94311000  0.47899000  1.0
  H  H211  1  0.60724000  0.20373000  0.84615000  1.0
  H  H212  1  0.64147000  0.13437000  0.81556000  1.0
  H  H213  1  0.52028000  0.03498000  0.77780000  1.0
  H  H214  1  0.48702000  0.10393000  0.80891000  1.0
  H  H215  1  0.67692000  0.06970000  0.83365000  1.0
  H  H216  1  0.63378000  0.92118000  0.69572000  1.0
  H  H217  1  0.52410000  0.99439000  0.70075000  1.0
  H  H218  1  0.74353000  0.07387000  0.83066000  1.0
  H  H219  1  0.83121000  0.07550000  0.87322000  1.0
  H  H220  1  0.78598000  0.91987000  0.80672000  1.0
  H  H221  1  0.69812000  0.91774000  0.76348000  1.0
  H  H222  1  0.56798000  0.85437000  0.64856000  1.0
  H  H223  1  0.49720000  0.78264000  0.56116000  1.0
  H  H224  1  0.41867000  0.87999000  0.52792000  1.0
  H  H225  1  0.48837000  0.95253000  0.61516000  1.0
  H  H226  1  0.16344000  0.04625000  0.56224000  1.0
  H  H227  1  0.12437000  0.11314000  0.56791000  1.0
  H  H228  1  0.24628000  0.21254000  0.73683000  1.0
  H  H229  1  0.28565000  0.14661000  0.72972000  1.0
  H  H230  1  0.08509000  0.16886000  0.60250000  1.0
  H  H231  1  0.11964000  0.32382000  0.66111000  1.0
  H  H232  1  0.23673000  0.26018000  0.70738000  1.0
  H  H233  1  0.02595000  0.16879000  0.52639000  1.0
  H  H234  1  0.93707000  0.16011000  0.47000000  1.0
  H  H235  1  0.95804000  0.30099000  0.60428000  1.0
  H  H236  1  0.04681000  0.31026000  0.65936000  1.0
  H  H237  1  0.18352000  0.39379000  0.74908000  1.0
  H  H238  1  0.25260000  0.47059000  0.80353000  1.0
  H  H239  1  0.33820000  0.38475000  0.75233000  1.0
  H  H240  1  0.27018000  0.30748000  0.69791000  1.0
  H  H241  1  0.08678000  0.01173000  0.00554000  1.0
  H  H242  1  0.41878000  0.59907000  0.83035000  1.0
  H  H243  1  0.06577000  0.07660000  0.05447000  1.0
  H  H244  1  0.36554000  0.41282000  0.62328000  1.0
  H  H245  1  0.33142000  0.38092000  0.52539000  1.0
  H  H246  1  0.26166000  0.49583000  0.53915000  1.0
  H  H247  1  0.29432000  0.52628000  0.63541000  1.0
  H  H248  1  0.25279000  0.34217000  0.43194000  1.0
  H  H249  1  0.23331000  0.38588000  0.32220000  1.0
  H  H250  1  0.29820000  0.49626000  0.49360000  1.0
  H  H251  1  0.18233000  0.28196000  0.35399000  1.0
  H  H252  1  0.14874000  0.19313000  0.27721000  1.0
  H  H253  1  0.21270000  0.22781000  0.20620000  1.0
  H  H254  1  0.24777000  0.31623000  0.28351000  1.0
  H  H255  1  0.20576000  0.44621000  0.31502000  1.0
  H  H256  1  0.21530000  0.51370000  0.30157000  1.0
  H  H257  1  0.34500000  0.60254000  0.46486000  1.0
  H  H258  1  0.33748000  0.53541000  0.47958000  1.0
  H  H259  1  0.23945000  0.64269000  0.84681000  1.0
  H  H260  1  0.17449000  0.68144000  0.81632000  1.0
  H  H261  1  0.25742000  0.74318000  0.77810000  1.0
  H  H262  1  0.32196000  0.70531000  0.80912000  1.0
  H  H263  1  0.15696000  0.76414000  0.83429000  1.0
  H  H264  1  0.06208000  0.77463000  0.69620000  1.0
  H  H265  1  0.17678000  0.70651000  0.70121000  1.0
  H  H266  1  0.08721000  0.75693000  0.83136000  1.0
  H  H267  1  0.04180000  0.79754000  0.87362000  1.0
  H  H268  1  0.02062000  0.88678000  0.80708000  1.0
  H  H269  1  0.06543000  0.84580000  0.76400000  1.0
  H  H270  1  0.08089000  0.79438000  0.64887000  1.0
  H  H271  1  0.06395000  0.77844000  0.56117000  1.0
  H  H272  1  0.10910000  0.64775000  0.52809000  1.0
  H  H273  1  0.12702000  0.66282000  0.61564000  1.0
  H  H274  1  0.39869000  0.51608000  0.56142000  1.0
  H  H275  1  0.44357000  0.45503000  0.56744000  1.0
  H  H276  1  0.49059000  0.52497000  0.73647000  1.0
  H  H277  1  0.44379000  0.58341000  0.72902000  1.0
  H  H278  1  0.51777000  0.43385000  0.60246000  1.0
  H  H279  1  0.54160000  0.33788000  0.66161000  1.0
  H  H280  1  0.47064000  0.44776000  0.70734000  1.0
  H  H281  1  0.50008000  0.35752000  0.52630000  1.0
  H  H282  1  0.53231000  0.30994000  0.46952000  1.0
  H  H283  1  0.64667000  0.30405000  0.60380000  1.0
  H  H284  1  0.61306000  0.34939000  0.65923000  1.0
  H  H285  1  0.56551000  0.35622000  0.74964000  1.0
  H  H286  1  0.55003000  0.33289000  0.80312000  1.0
  H  H287  1  0.41313000  0.36722000  0.75115000  1.0
  H  H288  1  0.42755000  0.39108000  0.69771000  1.0
  H  H289  1  0.75767000  0.16670000  0.50439000  1.0
  H  H290  1  0.34850000  0.66471000  0.33008000  1.0
  H  H291  1  0.82647000  0.23995000  0.55457000  1.0
  H  H292  1  0.16242000  0.50721000  0.12261000  1.0
  H  H293  1  0.13037000  0.44360000  0.02468000  1.0
  H  H294  1  0.24547000  0.52724000  0.03819000  1.0
  H  H295  1  0.27621000  0.59065000  0.13462000  1.0
  H  H296  1  0.09168000  0.42870000  0.93116000  1.0
  H  H297  1  0.13522000  0.33886000  0.82140000  1.0
  H  H298  1  0.24574000  0.44500000  0.99286000  1.0
  H  H299  1  0.03160000  0.42126000  0.85312000  1.0
  H  H300  1  0.94273000  0.37802000  0.77644000  1.0
  H  H301  1  0.97700000  0.24328000  0.70551000  1.0
  H  H302  1  0.06547000  0.28559000  0.78290000  1.0
  H  H303  1  0.19582000  0.35861000  0.81427000  1.0
  H  H304  1  0.26337000  0.33615000  0.80111000  1.0
  H  H305  1  0.35189000  0.36984000  0.96468000  1.0
  H  H306  1  0.28452000  0.39148000  0.97888000  1.0
  H  H307  1  0.39231000  0.85609000  0.34682000  1.0
  H  H308  1  0.43059000  0.89056000  0.31572000  1.0
  H  H309  1  0.49215000  0.76984000  0.27734000  1.0
  H  H310  1  0.45499000  0.73650000  0.30920000  1.0
  H  H311  1  0.51351000  0.92633000  0.33375000  1.0
  H  H312  1  0.52413000  0.88397000  0.19581000  1.0
  H  H313  1  0.45559000  0.77376000  0.20048000  1.0
  H  H314  1  0.50604000  0.99292000  0.33045000  1.0
  H  H315  1  0.54702000  0.08068000  0.37298000  1.0
  H  H316  1  0.63678000  0.03600000  0.30714000  1.0
  H  H317  1  0.59537000  0.94799000  0.26374000  1.0
  H  H318  1  0.54410000  0.81791000  0.14864000  1.0
  H  H319  1  0.52863000  0.74712000  0.06138000  1.0
  H  H320  1  0.39735000  0.66865000  0.02770000  1.0
  H  H321  1  0.41216000  0.73810000  0.11498000  1.0
  H  H322  1  0.26679000  0.41334000  0.06191000  1.0
  H  H323  1  0.20551000  0.37421000  0.06778000  1.0
  H  H324  1  0.27512000  0.49616000  0.23668000  1.0
  H  H325  1  0.33377000  0.53579000  0.22936000  1.0
  H  H326  1  0.18387000  0.33496000  0.10231000  1.0
  H  H327  1  0.08807000  0.36969000  0.16169000  1.0
  H  H328  1  0.19810000  0.48666000  0.20724000  1.0
  H  H329  1  0.10770000  0.27643000  0.02626000  1.0
  H  H330  1  0.06015000  0.18739000  0.96965000  1.0
  H  H331  1  0.05372000  0.20700000  0.10375000  1.0
  H  H332  1  0.09909000  0.29608000  0.15907000  1.0
  H  H333  1  0.10659000  0.43366000  0.24962000  1.0
  H  H334  1  0.08375000  0.50234000  0.30359000  1.0
  H  H335  1  0.11751000  0.58768000  0.25128000  1.0
  H  H336  1  0.14111000  0.52015000  0.19751000  1.0
  H  H337  1  0.74325000  0.33679000  0.50567000  1.0
  H  H338  1  0.98068000  0.66341000  0.32929000  1.0
  H  H339  1  0.72820000  0.31684000  0.55354000  1.0
  H  H340  1  0.95989000  0.61505000  0.12284000  1.0
  H  H341  1  0.89404000  0.58133000  0.02507000  1.0
  H  H342  1  0.79249000  0.51080000  0.03834000  1.0
  H  H343  1  0.85812000  0.54325000  0.13461000  1.0
  H  H344  1  0.83945000  0.50283000  0.93157000  1.0
  H  H345  1  0.68623000  0.48282000  0.82169000  1.0
  H  H346  1  0.74687000  0.54786000  0.99311000  1.0
  H  H347  1  0.82140000  0.43198000  0.85353000  1.0
  H  H348  1  0.83352000  0.39817000  0.77670000  1.0
  H  H349  1  0.72861000  0.46210000  0.70553000  1.0
  H  H350  1  0.71755000  0.49746000  0.78300000  1.0
  H  H351  1  0.61841000  0.45562000  0.81447000  1.0
  H  H352  1  0.53768000  0.46494000  0.80136000  1.0
  H  H353  1  0.61253000  0.59445000  0.96495000  1.0
  H  H354  1  0.69410000  0.58700000  0.97919000  1.0
  H  H355  1  0.95383000  0.48971000  0.34657000  1.0
  H  H356  1  0.88428000  0.42431000  0.31528000  1.0
  H  H357  1  0.78496000  0.50747000  0.27787000  1.0
  H  H358  1  0.85415000  0.57248000  0.30988000  1.0
  H  H359  1  0.81944000  0.40672000  0.33344000  1.0
  H  H360  1  0.67095000  0.31156000  0.19541000  1.0
  H  H361  1  0.74446000  0.42649000  0.20034000  1.0
  H  H362  1  0.82382000  0.33733000  0.33070000  1.0
  H  H363  1  0.82566000  0.29249000  0.37381000  1.0
  H  H364  1  0.67019000  0.27085000  0.30780000  1.0
  H  H365  1  0.66771000  0.31504000  0.26390000  1.0
  H  H366  1  0.60387000  0.33076000  0.14813000  1.0
  H  H367  1  0.53244000  0.31413000  0.06060000  1.0
  H  H368  1  0.63041000  0.35862000  0.02714000  1.0
  H  H369  1  0.70258000  0.37691000  0.11479000  1.0
  H  H370  1  0.79562000  0.64819000  0.06204000  1.0
  H  H371  1  0.86264000  0.69318000  0.06782000  1.0
  H  H372  1  0.96185000  0.73977000  0.23677000  1.0
  H  H373  1  0.89572000  0.69319000  0.22954000  1.0
  H  H374  1  0.91909000  0.76764000  0.10304000  1.0
  H  H375  1  0.07401000  0.79153000  0.16159000  1.0
  H  H376  1  0.00968000  0.72023000  0.20742000  1.0
  H  H377  1  0.91898000  0.75028000  0.02706000  1.0
  H  H378  1  0.90934000  0.78280000  0.97029000  1.0
  H  H379  1  0.04993000  0.89690000  0.10371000  1.0
  H  H380  1  0.06046000  0.86310000  0.15919000  1.0
  H  H381  1  0.14363000  0.81540000  0.24978000  1.0
  H  H382  1  0.22007000  0.80044000  0.30411000  1.0
  H  H383  1  0.13344000  0.66287000  0.25103000  1.0
  H  H384  1  0.05644000  0.67695000  0.19713000  1.0
  C  C1  1  0.41025000  0.75684000  0.80497000  1.0
  C  C2  1  0.44711000  0.77851000  0.86478000  1.0
  C  C3  1  0.48840000  0.82016000  0.89654000  1.0
  C  C4  1  0.52384000  0.83812000  0.95140000  1.0
  C  C5  1  0.51928000  0.81420000  0.97540000  1.0
  C  C6  1  0.47733000  0.77305000  0.94367000  1.0
  C  C7  1  0.44149000  0.75571000  0.88924000  1.0
  C  C8  1  0.55862000  0.82967000  0.03187000  1.0
  C  C9  1  0.58195000  0.87955000  0.07605000  1.0
  C  C10  1  0.61891000  0.89260000  0.12922000  1.0
  C  C11  1  0.63265000  0.85501000  0.13763000  1.0
  C  C12  1  0.61030000  0.80496000  0.09404000  1.0
  C  C13  1  0.57330000  0.79296000  0.04149000  1.0
  C  C14  1  0.64358000  0.94503000  0.17582000  1.0
  C  C15  1  0.61789000  0.98038000  0.17858000  1.0
  C  C16  1  0.64177000  0.03000000  0.22155000  1.0
  C  C17  1  0.69214000  0.04569000  0.26347000  1.0
  C  C18  1  0.71782000  0.01060000  0.26194000  1.0
  C  C19  1  0.69382000  0.96111000  0.21872000  1.0
  C  C20  1  0.71749000  0.09852000  0.30793000  1.0
  C  C21  1  0.62419000  0.76528000  0.10279000  1.0
  C  C22  1  0.63989000  0.77062000  0.15288000  1.0
  C  C23  1  0.65225000  0.73281000  0.16053000  1.0
  C  C24  1  0.64897000  0.68861000  0.11811000  1.0
  C  C25  1  0.63264000  0.68267000  0.06782000  1.0
  C  C26  1  0.62049000  0.72049000  0.06019000  1.0
  C  C27  1  0.39894000  0.71147000  0.62696000  1.0
  C  C28  1  0.22943000  0.60530000  0.65627000  1.0
  C  C29  1  0.20614000  0.57952000  0.67062000  1.0
  C  C30  1  0.16203000  0.58520000  0.66771000  1.0
  C  C31  1  0.14269000  0.56344000  0.68476000  1.0
  C  C32  1  0.16752000  0.53620000  0.70578000  1.0
  C  C33  1  0.21100000  0.52954000  0.70723000  1.0
  C  C34  1  0.22987000  0.55061000  0.68945000  1.0
  C  C35  1  0.15139000  0.51809000  0.73052000  1.0
  C  C36  1  0.10184000  0.49414000  0.70632000  1.0
  C  C37  1  0.08876000  0.47767000  0.73194000  1.0
  C  C38  1  0.12611000  0.48638000  0.78288000  1.0
  C  C39  1  0.17593000  0.51091000  0.80815000  1.0
  C  C40  1  0.18782000  0.52594000  0.78104000  1.0
  C  C41  1  0.03635000  0.45219000  0.70580000  1.0
  C  C42  1  0.99780000  0.46478000  0.67403000  1.0
  C  C43  1  0.94846000  0.44194000  0.65012000  1.0
  C  C44  1  0.93563000  0.40480000  0.65627000  1.0
  C  C45  1  0.97356000  0.39137000  0.68722000  1.0
  C  C46  1  0.02303000  0.41506000  0.71190000  1.0
  C  C47  1  0.74928000  0.24960000  0.36743000  1.0
  C  C48  1  0.21623000  0.52101000  0.86170000  1.0
  C  C49  1  0.21419000  0.48859000  0.87783000  1.0
  C  C50  1  0.25380000  0.49690000  0.92666000  1.0
  C  C51  1  0.29605000  0.53815000  0.96119000  1.0
  C  C52  1  0.29840000  0.57088000  0.94572000  1.0
  C  C53  1  0.25903000  0.56226000  0.89648000  1.0
  C  C54  1  0.21740000  0.58755000  0.51371000  1.0
  C  C55  1  0.49706000  0.66204000  0.86006000  1.0
  C  C56  1  0.52288000  0.69604000  0.85514000  1.0
  C  C57  1  0.56913000  0.73162000  0.90000000  1.0
  C  C58  1  0.59119000  0.76547000  0.89628000  1.0
  C  C59  1  0.56765000  0.76441000  0.84753000  1.0
  C  C60  1  0.52229000  0.72719000  0.80193000  1.0
  C  C61  1  0.50001000  0.69376000  0.80582000  1.0
  C  C62  1  0.58705000  0.80398000  0.84513000  1.0
  C  C63  1  0.63774000  0.82813000  0.87396000  1.0
  C  C64  1  0.65365000  0.86638000  0.87079000  1.0
  C  C65  1  0.61818000  0.88090000  0.83882000  1.0
  C  C66  1  0.56729000  0.85847000  0.81132000  1.0
  C  C67  1  0.55269000  0.81977000  0.81427000  1.0
  C  C68  1  0.70705000  0.89286000  0.90301000  1.0
  C  C69  1  0.73885000  0.90381000  0.95670000  1.0
  C  C70  1  0.78861000  0.93050000  0.98862000  1.0
  C  C71  1  0.80884000  0.94579000  0.96707000  1.0
  C  C72  1  0.77789000  0.93437000  0.91318000  1.0
  C  C73  1  0.72769000  0.90902000  0.88224000  1.0
  C  C74  1  0.88923000  0.22306000  0.49880000  1.0
  C  C75  1  0.52844000  0.87481000  0.78086000  1.0
  C  C76  1  0.53312000  0.89156000  0.75100000  1.0
  C  C77  1  0.49478000  0.90436000  0.72055000  1.0
  C  C78  1  0.45126000  0.90140000  0.71993000  1.0
  C  C79  1  0.44626000  0.88475000  0.74956000  1.0
  C  C80  1  0.48432000  0.87156000  0.77957000  1.0
  C  C81  1  0.27955000  0.77262000  0.68952000  1.0
  C  C82  1  0.39524000  0.04850000  0.80488000  1.0
  C  C83  1  0.41820000  0.08659000  0.86470000  1.0
  C  C84  1  0.40845000  0.07670000  0.89639000  1.0
  C  C85  1  0.42758000  0.11359000  0.95115000  1.0
  C  C86  1  0.45608000  0.16148000  0.97514000  1.0
  C  C87  1  0.46655000  0.17086000  0.94349000  1.0
  C  C88  1  0.44824000  0.13381000  0.88914000  1.0
  C  C89  1  0.47300000  0.20240000  0.03155000  1.0
  C  C90  1  0.49378000  0.19657000  0.07569000  1.0
  C  C91  1  0.50998000  0.23660000  0.12888000  1.0
  C  C92  1  0.50472000  0.28261000  0.13732000  1.0
  C  C93  1  0.48370000  0.28923000  0.09380000  1.0
  C  C94  1  0.46808000  0.24874000  0.04121000  1.0
  C  C95  1  0.53205000  0.23078000  0.17553000  1.0
  C  C96  1  0.56061000  0.19828000  0.17826000  1.0
  C  C97  1  0.57989000  0.19162000  0.22128000  1.0
  C  C98  1  0.57152000  0.21773000  0.26331000  1.0
  C  C99  1  0.54421000  0.25124000  0.26184000  1.0
  C  C100  1  0.52483000  0.25754000  0.21857000  1.0
  C  C101  1  0.59056000  0.20908000  0.30765000  1.0
  C  C102  1  0.47873000  0.33769000  0.10260000  1.0
  C  C103  1  0.51306000  0.38236000  0.15270000  1.0
  C  C104  1  0.50837000  0.42781000  0.16031000  1.0
  C  C105  1  0.46930000  0.42961000  0.11785000  1.0
  C  C106  1  0.43543000  0.38535000  0.06756000  1.0
  C  C107  1  0.43995000  0.33993000  0.05995000  1.0
  C  C108  1  0.22887000  0.91585000  0.62714000  1.0
  C  C109  1  0.42783000  0.05130000  0.65620000  1.0
  C  C110  1  0.46521000  0.09155000  0.67050000  1.0
  C  C111  1  0.50655000  0.08317000  0.66784000  1.0
  C  C112  1  0.54284000  0.12208000  0.68500000  1.0
  C  C113  1  0.53880000  0.17024000  0.70589000  1.0
  C  C114  1  0.49654000  0.17809000  0.70694000  1.0
  C  C115  1  0.45999000  0.13914000  0.68907000  1.0
  C  C116  1  0.57962000  0.21313000  0.73076000  1.0
  C  C117  1  0.60509000  0.21300000  0.70665000  1.0
  C  C118  1  0.64374000  0.25507000  0.73225000  1.0
  C  C119  1  0.65716000  0.29720000  0.78320000  1.0
  C  C120  1  0.63250000  0.29782000  0.80841000  1.0
  C  C121  1  0.59355000  0.25568000  0.78126000  1.0
  C  C122  1  0.66996000  0.25430000  0.70590000  1.0
  C  C123  1  0.67652000  0.20987000  0.67390000  1.0
  C  C124  1  0.70178000  0.20859000  0.64967000  1.0
  C  C125  1  0.72095000  0.25177000  0.65577000  1.0
  C  C126  1  0.71407000  0.29616000  0.68684000  1.0
  C  C127  1  0.68942000  0.29739000  0.71179000  1.0
  C  C128  1  0.61696000  0.11682000  0.36660000  1.0
  C  C129  1  0.64562000  0.34112000  0.86203000  1.0
  C  C130  1  0.66374000  0.38972000  0.87833000  1.0
  C  C131  1  0.67303000  0.43008000  0.92731000  1.0
  C  C132  1  0.66547000  0.42322000  0.96191000  1.0
  C  C133  1  0.64765000  0.37496000  0.94626000  1.0
  C  C134  1  0.63762000  0.33450000  0.89682000  1.0
  C  C135  1  0.29676000  0.92684000  0.51404000  1.0
  C  C136  1  0.36304000  0.19766000  0.85961000  1.0
  C  C137  1  0.33259000  0.15876000  0.85497000  1.0
  C  C138  1  0.33125000  0.16790000  0.89987000  1.0
  C  C139  1  0.30550000  0.13032000  0.89616000  1.0
  C  C140  1  0.28033000  0.08265000  0.84740000  1.0
  C  C141  1  0.28025000  0.07440000  0.80185000  1.0
  C  C142  1  0.30625000  0.11177000  0.80567000  1.0
  C  C143  1  0.25838000  0.04067000  0.84492000  1.0
  C  C144  1  0.23620000  0.04526000  0.87350000  1.0
  C  C145  1  0.21712000  0.00390000  0.87044000  1.0
  C  C146  1  0.22092000  0.95750000  0.83877000  1.0
  C  C147  1  0.24435000  0.95246000  0.81128000  1.0
  C  C148  1  0.26189000  0.99404000  0.81412000  1.0
  C  C149  1  0.19573000  0.00971000  0.90255000  1.0
  C  C150  1  0.21744000  0.05260000  0.95610000  1.0
  C  C151  1  0.19956000  0.05809000  0.98811000  1.0
  C  C152  1  0.15791000  0.02130000  0.96681000  1.0
  C  C153  1  0.13514000  0.97873000  0.91305000  1.0
  C  C154  1  0.15441000  0.97289000  0.88200000  1.0
  C  C155  1  0.60918000  0.27600000  0.49789000  1.0
  C  C156  1  0.25289000  0.90577000  0.78092000  1.0
  C  C157  1  0.21846000  0.85911000  0.75090000  1.0
  C  C158  1  0.22647000  0.81608000  0.72024000  1.0
  C  C159  1  0.26938000  0.81873000  0.71968000  1.0
  C  C160  1  0.30400000  0.86503000  0.74970000  1.0
  C  C161  1  0.29579000  0.90798000  0.77983000  1.0
  C  C162  1  0.41137000  0.91800000  0.69014000  1.0
  C  C163  1  0.50691000  0.64441000  0.30424000  1.0
  C  C164  1  0.52834000  0.66740000  0.36402000  1.0
  C  C165  1  0.56986000  0.65792000  0.39588000  1.0
  C  C166  1  0.58770000  0.67725000  0.45070000  1.0
  C  C167  1  0.56380000  0.70569000  0.47461000  1.0
  C  C168  1  0.52274000  0.71582000  0.44278000  1.0
  C  C169  1  0.50554000  0.69736000  0.38838000  1.0
  C  C170  1  0.57917000  0.72282000  0.53108000  1.0
  C  C171  1  0.62903000  0.74367000  0.57526000  1.0
  C  C172  1  0.64206000  0.75979000  0.62844000  1.0
  C  C173  1  0.60442000  0.75439000  0.63685000  1.0
  C  C174  1  0.55438000  0.73337000  0.59329000  1.0
  C  C175  1  0.54241000  0.71781000  0.54071000  1.0
  C  C176  1  0.69447000  0.78177000  0.67506000  1.0
  C  C177  1  0.72993000  0.81023000  0.67777000  1.0
  C  C178  1  0.77953000  0.82944000  0.72080000  1.0
  C  C179  1  0.79508000  0.82102000  0.76278000  1.0
  C  C180  1  0.75990000  0.79372000  0.76125000  1.0
  C  C181  1  0.71043000  0.77444000  0.71803000  1.0
  C  C182  1  0.84785000  0.84011000  0.80732000  1.0
  C  C183  1  0.51468000  0.72838000  0.60213000  1.0
  C  C184  1  0.52021000  0.76280000  0.65227000  1.0
  C  C185  1  0.48250000  0.75801000  0.66011000  1.0
  C  C186  1  0.43829000  0.71876000  0.61787000  1.0
  C  C187  1  0.43210000  0.68495000  0.56747000  1.0
  C  C188  1  0.46978000  0.68953000  0.55960000  1.0
  C  C189  1  0.46209000  0.47785000  0.12638000  1.0
  C  C190  1  0.35498000  0.67846000  0.15645000  1.0
  C  C191  1  0.32905000  0.71563000  0.17069000  1.0
  C  C192  1  0.33465000  0.75678000  0.16761000  1.0
  C  C193  1  0.31264000  0.79279000  0.18431000  1.0
  C  C194  1  0.28527000  0.78868000  0.20518000  1.0
  C  C195  1  0.27869000  0.74665000  0.20675000  1.0
  C  C196  1  0.30004000  0.71036000  0.18937000  1.0
  C  C197  1  0.26717000  0.82934000  0.22986000  1.0
  C  C198  1  0.24339000  0.85479000  0.20576000  1.0
  C  C199  1  0.22702000  0.89337000  0.23145000  1.0
  C  C200  1  0.23576000  0.90669000  0.28239000  1.0
  C  C201  1  0.26019000  0.88208000  0.30758000  1.0
  C  C202  1  0.27506000  0.84321000  0.28038000  1.0
  C  C203  1  0.20169000  0.91979000  0.20541000  1.0
  C  C204  1  0.21419000  0.92667000  0.17351000  1.0
  C  C205  1  0.19153000  0.95226000  0.14974000  1.0
  C  C206  1  0.15461000  0.97137000  0.15611000  1.0
  C  C207  1  0.14128000  0.96425000  0.18718000  1.0
  C  C208  1  0.16476000  0.93929000  0.21171000  1.0
  C  C209  1  0.99901000  0.86733000  0.86689000  1.0
  C  C210  1  0.27047000  0.89527000  0.36123000  1.0
  C  C211  1  0.23831000  0.91357000  0.37761000  1.0
  C  C212  1  0.24684000  0.92297000  0.42664000  1.0
  C  C213  1  0.28796000  0.91510000  0.46103000  1.0
  C  C214  1  0.32048000  0.89719000  0.44533000  1.0
  C  C215  1  0.31171000  0.88729000  0.39596000  1.0
  C  C216  1  0.33717000  0.54679000  0.01407000  1.0
  C  C217  1  0.41263000  0.61278000  0.36031000  1.0
  C  C218  1  0.44657000  0.58213000  0.35550000  1.0
  C  C219  1  0.48221000  0.58078000  0.40038000  1.0
  C  C220  1  0.51598000  0.55507000  0.39659000  1.0
  C  C221  1  0.51484000  0.52985000  0.34778000  1.0
  C  C222  1  0.47754000  0.52959000  0.30221000  1.0
  C  C223  1  0.44419000  0.55566000  0.30614000  1.0
  C  C224  1  0.55426000  0.50803000  0.34517000  1.0
  C  C225  1  0.57827000  0.48604000  0.37389000  1.0
  C  C226  1  0.61650000  0.46712000  0.37076000  1.0
  C  C227  1  0.63108000  0.47078000  0.33881000  1.0
  C  C228  1  0.60867000  0.49407000  0.31121000  1.0
  C  C229  1  0.57002000  0.51153000  0.31418000  1.0
  C  C230  1  0.64286000  0.44587000  0.40294000  1.0
  C  C231  1  0.65395000  0.46767000  0.45669000  1.0
  C  C232  1  0.68069000  0.44989000  0.48867000  1.0
  C  C233  1  0.69593000  0.40826000  0.46714000  1.0
  C  C234  1  0.68424000  0.38535000  0.41313000  1.0
  C  C235  1  0.65885000  0.40453000  0.38211000  1.0
  C  C236  1  0.97155000  0.85977000  0.99834000  1.0
  C  C237  1  0.62505000  0.50259000  0.28074000  1.0
  C  C238  1  0.64193000  0.46836000  0.25097000  1.0
  C  C239  1  0.65498000  0.47668000  0.22079000  1.0
  C  C240  1  0.65210000  0.51965000  0.22034000  1.0
  C  C241  1  0.63507000  0.55379000  0.24963000  1.0
  C  C242  1  0.62174000  0.54537000  0.27945000  1.0
  C  C243  1  0.52143000  0.66051000  0.18959000  1.0
  C  C244  1  0.79823000  0.66065000  0.30562000  1.0
  C  C245  1  0.83654000  0.69748000  0.36537000  1.0
  C  C246  1  0.82708000  0.73897000  0.39728000  1.0
  C  C247  1  0.86419000  0.77439000  0.45200000  1.0
  C  C248  1  0.91194000  0.76969000  0.47570000  1.0
  C  C249  1  0.92096000  0.72757000  0.44384000  1.0
  C  C250  1  0.88360000  0.69167000  0.38957000  1.0
  C  C251  1  0.95307000  0.80904000  0.53206000  1.0
  C  C252  1  0.94735000  0.83251000  0.57625000  1.0
  C  C253  1  0.98745000  0.86951000  0.62939000  1.0
  C  C254  1  0.03349000  0.88323000  0.63776000  1.0
  C  C255  1  0.04002000  0.86057000  0.59417000  1.0
  C  C256  1  0.99947000  0.82353000  0.54165000  1.0
  C  C257  1  0.98144000  0.89399000  0.67591000  1.0
  C  C258  1  0.94859000  0.86806000  0.67837000  1.0
  C  C259  1  0.94176000  0.89160000  0.72126000  1.0
  C  C260  1  0.96794000  0.94194000  0.76336000  1.0
  C  C261  1  0.00167000  0.96790000  0.76206000  1.0
  C  C262  1  0.00822000  0.94419000  0.71898000  1.0
  C  C263  1  0.95916000  0.96702000  0.80762000  1.0
  C  C264  1  0.08853000  0.87424000  0.60286000  1.0
  C  C265  1  0.13316000  0.88998000  0.65298000  1.0
  C  C266  1  0.17866000  0.90244000  0.66063000  1.0
  C  C267  1  0.18058000  0.89938000  0.61829000  1.0
  C  C268  1  0.13635000  0.88283000  0.56792000  1.0
  C  C269  1  0.09087000  0.87044000  0.56020000  1.0
  C  C270  1  0.66498000  0.64907000  0.12691000  1.0
  C  C271  1  0.80111000  0.47768000  0.15664000  1.0
  C  C272  1  0.84160000  0.45512000  0.17095000  1.0
  C  C273  1  0.83318000  0.41099000  0.16811000  1.0
  C  C274  1  0.87200000  0.39182000  0.18489000  1.0
  C  C275  1  0.92012000  0.41686000  0.20564000  1.0
  C  C276  1  0.92803000  0.46039000  0.20703000  1.0
  C  C277  1  0.88918000  0.47917000  0.18956000  1.0
  C  C278  1  0.96299000  0.40092000  0.23034000  1.0
  C  C279  1  0.96275000  0.35141000  0.20630000  1.0
  C  C280  1  0.00482000  0.33852000  0.23198000  1.0
  C  C281  1  0.04698000  0.37604000  0.28286000  1.0
  C  C282  1  0.04765000  0.42578000  0.30801000  1.0
  C  C283  1  0.00559000  0.43749000  0.28083000  1.0
  C  C284  1  0.00421000  0.28613000  0.20596000  1.0
  C  C285  1  0.95984000  0.24745000  0.17410000  1.0
  C  C286  1  0.95871000  0.19814000  0.15020000  1.0
  C  C287  1  0.00195000  0.18539000  0.15649000  1.0
  C  C288  1  0.04637000  0.22348000  0.18761000  1.0
  C  C289  1  0.04744000  0.27293000  0.21222000  1.0
  C  C290  1  0.86722000  0.99925000  0.86681000  1.0
  C  C291  1  0.09097000  0.46613000  0.36162000  1.0
  C  C292  1  0.13947000  0.46412000  0.37790000  1.0
  C  C293  1  0.17995000  0.50377000  0.42676000  1.0
  C  C294  1  0.17324000  0.54612000  0.46103000  1.0
  C  C295  1  0.12508000  0.54835000  0.44550000  1.0
  C  C296  1  0.08449000  0.50887000  0.39633000  1.0
  C  C297  1  0.67726000  0.46743000  0.01491000  1.0
  C  C298  1  0.94653000  0.74695000  0.35956000  1.0
  C  C299  1  0.90793000  0.77291000  0.35475000  1.0
  C  C300  1  0.91730000  0.81908000  0.39969000  1.0
  C  C301  1  0.87987000  0.84110000  0.39607000  1.0
  C  C302  1  0.83222000  0.81756000  0.34736000  1.0
  C  C303  1  0.82375000  0.77225000  0.30171000  1.0
  C  C304  1  0.86096000  0.75006000  0.30545000  1.0
  C  C305  1  0.79040000  0.83695000  0.34505000  1.0
  C  C306  1  0.79534000  0.88766000  0.37391000  1.0
  C  C307  1  0.75409000  0.90359000  0.37089000  1.0
  C  C308  1  0.70751000  0.86818000  0.33908000  1.0
  C  C309  1  0.70211000  0.81728000  0.31136000  1.0
  C  C310  1  0.74363000  0.80263000  0.31418000  1.0
  C  C311  1  0.75986000  0.95693000  0.40292000  1.0
  C  C312  1  0.80256000  0.98906000  0.45654000  1.0
  C  C313  1  0.80753000  0.03871000  0.48830000  1.0
  C  C314  1  0.77039000  0.05851000  0.46666000  1.0
  C  C315  1  0.72800000  0.02718000  0.41279000  1.0
  C  C316  1  0.72277000  0.97716000  0.38198000  1.0
  C  C317  1  0.02646000  0.13876000  0.99810000  1.0
  C  C318  1  0.65517000  0.77842000  0.28078000  1.0
  C  C319  1  0.60861000  0.78304000  0.25108000  1.0
  C  C320  1  0.56537000  0.74446000  0.22037000  1.0
  C  C321  1  0.56765000  0.70073000  0.21926000  1.0
  C  C322  1  0.61388000  0.69587000  0.24881000  1.0
  C  C323  1  0.65702000  0.73419000  0.27915000  1.0
  C  C324  1  0.66946000  0.53060000  0.19144000  1.0
  C  C325  1  0.33937000  0.20179000  0.69439000  1.0
  C  C326  1  0.30253000  0.16346000  0.63464000  1.0
  C  C327  1  0.26103000  0.17291000  0.60272000  1.0
  C  C328  1  0.22561000  0.13580000  0.54800000  1.0
  C  C329  1  0.23031000  0.08805000  0.52431000  1.0
  C  C330  1  0.27245000  0.07905000  0.55619000  1.0
  C  C331  1  0.30833000  0.11641000  0.61045000  1.0
  C  C332  1  0.19096000  0.04693000  0.46795000  1.0
  C  C333  1  0.16748000  0.05265000  0.42376000  1.0
  C  C334  1  0.13050000  0.01255000  0.37062000  1.0
  C  C335  1  0.11678000  0.96651000  0.36225000  1.0
  C  C336  1  0.13943000  0.95998000  0.40584000  1.0
  C  C337  1  0.17647000  0.00053000  0.45836000  1.0
  C  C338  1  0.10602000  0.01856000  0.32410000  1.0
  C  C339  1  0.13195000  0.05140000  0.32164000  1.0
  C  C340  1  0.10842000  0.05823000  0.27875000  1.0
  C  C341  1  0.05808000  0.03207000  0.23665000  1.0
  C  C342  1  0.03210000  0.99832000  0.23793000  1.0
  C  C343  1  0.05581000  0.99177000  0.28101000  1.0
  C  C344  1  0.03299000  0.04085000  0.19239000  1.0
  C  C345  1  0.12577000  0.91148000  0.39715000  1.0
  C  C346  1  0.11002000  0.86685000  0.34703000  1.0
  C  C347  1  0.09757000  0.82135000  0.33938000  1.0
  C  C348  1  0.10062000  0.81944000  0.38172000  1.0
  C  C349  1  0.11718000  0.86365000  0.43209000  1.0
  C  C350  1  0.12957000  0.90913000  0.43981000  1.0
  C  C351  1  0.35095000  0.33501000  0.87309000  1.0
  C  C352  1  0.52238000  0.19883000  0.84330000  1.0
  C  C353  1  0.54492000  0.15833000  0.82903000  1.0
  C  C354  1  0.58905000  0.16674000  0.83187000  1.0
  C  C355  1  0.60821000  0.12794000  0.81510000  1.0
  C  C356  1  0.58316000  0.07982000  0.79435000  1.0
  C  C357  1  0.53961000  0.07192000  0.79295000  1.0
  C  C358  1  0.52083000  0.11076000  0.81041000  1.0
  C  C359  1  0.59908000  0.03697000  0.76964000  1.0
  C  C360  1  0.64859000  0.03721000  0.79368000  1.0
  C  C361  1  0.66150000  0.99516000  0.76802000  1.0
  C  C362  1  0.62398000  0.95301000  0.71714000  1.0
  C  C363  1  0.57423000  0.95233000  0.69198000  1.0
  C  C364  1  0.56250000  0.99439000  0.71915000  1.0
  C  C365  1  0.71388000  0.99578000  0.79404000  1.0
  C  C366  1  0.75257000  0.04016000  0.82591000  1.0
  C  C367  1  0.80188000  0.04129000  0.84982000  1.0
  C  C368  1  0.81464000  0.99806000  0.84354000  1.0
  C  C369  1  0.77655000  0.95363000  0.81241000  1.0
  C  C370  1  0.72710000  0.95257000  0.78780000  1.0
  C  C371  1  0.00079000  0.13283000  0.13325000  1.0
  C  C372  1  0.53388000  0.90902000  0.63838000  1.0
  C  C373  1  0.53589000  0.86054000  0.62211000  1.0
  C  C374  1  0.49626000  0.82006000  0.57326000  1.0
  C  C375  1  0.45389000  0.82675000  0.53896000  1.0
  C  C376  1  0.45165000  0.87490000  0.55448000  1.0
  C  C377  1  0.49112000  0.91549000  0.60365000  1.0
  C  C378  1  0.53261000  0.32272000  0.98505000  1.0
  C  C379  1  0.25303000  0.05347000  0.64045000  1.0
  C  C380  1  0.22709000  0.09209000  0.64528000  1.0
  C  C381  1  0.18091000  0.08271000  0.60032000  1.0
  C  C382  1  0.15891000  0.12016000  0.60394000  1.0
  C  C383  1  0.18246000  0.16780000  0.65265000  1.0
  C  C384  1  0.22777000  0.17627000  0.69831000  1.0
  C  C385  1  0.24994000  0.13904000  0.69456000  1.0
  C  C386  1  0.16307000  0.20962000  0.65496000  1.0
  C  C387  1  0.11234000  0.20466000  0.62609000  1.0
  C  C388  1  0.09641000  0.24592000  0.62911000  1.0
  C  C389  1  0.13183000  0.29250000  0.66093000  1.0
  C  C390  1  0.18273000  0.29789000  0.68864000  1.0
  C  C391  1  0.19738000  0.25638000  0.68582000  1.0
  C  C392  1  0.04306000  0.24014000  0.59708000  1.0
  C  C393  1  0.01092000  0.19745000  0.54347000  1.0
  C  C394  1  0.96126000  0.19247000  0.51171000  1.0
  C  C395  1  0.94147000  0.22962000  0.53336000  1.0
  C  C396  1  0.97280000  0.27200000  0.58722000  1.0
  C  C397  1  0.02284000  0.27723000  0.61803000  1.0
  C  C398  1  0.86127000  0.97355000  0.00194000  1.0
  C  C399  1  0.22159000  0.34482000  0.71922000  1.0
  C  C400  1  0.21696000  0.39137000  0.74891000  1.0
  C  C401  1  0.25554000  0.43463000  0.77963000  1.0
  C  C402  1  0.29928000  0.43235000  0.78075000  1.0
  C  C403  1  0.30415000  0.38614000  0.75121000  1.0
  C  C404  1  0.26583000  0.34298000  0.72086000  1.0
  C  C405  1  0.46941000  0.33055000  0.80853000  1.0
  C  C406  1  0.35560000  0.49312000  0.69577000  1.0
  C  C407  1  0.33260000  0.47166000  0.63597000  1.0
  C  C408  1  0.34207000  0.43015000  0.60412000  1.0
  C  C409  1  0.32274000  0.41230000  0.54930000  1.0
  C  C410  1  0.29430000  0.43620000  0.52538000  1.0
  C  C411  1  0.28418000  0.47726000  0.55721000  1.0
  C  C412  1  0.30264000  0.49447000  0.61161000  1.0
  C  C413  1  0.27717000  0.42081000  0.46891000  1.0
  C  C414  1  0.25632000  0.37096000  0.42473000  1.0
  C  C415  1  0.24020000  0.35794000  0.37155000  1.0
  C  C416  1  0.24559000  0.39556000  0.36313000  1.0
  C  C417  1  0.26661000  0.44561000  0.40669000  1.0
  C  C418  1  0.28218000  0.45758000  0.45927000  1.0
  C  C419  1  0.21824000  0.30554000  0.32494000  1.0
  C  C420  1  0.18977000  0.27007000  0.32222000  1.0
  C  C421  1  0.17058000  0.22047000  0.27920000  1.0
  C  C422  1  0.17903000  0.20493000  0.23724000  1.0
  C  C423  1  0.20631000  0.24011000  0.23876000  1.0
  C  C424  1  0.22557000  0.28957000  0.28197000  1.0
  C  C425  1  0.15994000  0.15218000  0.19271000  1.0
  C  C426  1  0.27162000  0.48530000  0.39786000  1.0
  C  C427  1  0.23720000  0.47979000  0.34772000  1.0
  C  C428  1  0.24200000  0.51750000  0.33989000  1.0
  C  C429  1  0.28124000  0.56168000  0.38211000  1.0
  C  C430  1  0.31507000  0.56788000  0.43252000  1.0
  C  C431  1  0.31048000  0.53020000  0.44039000  1.0
  C  C432  1  0.52216000  0.53792000  0.87363000  1.0
  C  C433  1  0.32156000  0.64503000  0.84356000  1.0
  C  C434  1  0.28437000  0.67095000  0.82931000  1.0
  C  C435  1  0.24323000  0.66535000  0.83240000  1.0
  C  C436  1  0.20721000  0.68735000  0.81569000  1.0
  C  C437  1  0.21133000  0.71472000  0.79482000  1.0
  C  C438  1  0.25336000  0.72131000  0.79326000  1.0
  C  C439  1  0.28966000  0.69996000  0.81064000  1.0
  C  C440  1  0.17066000  0.73283000  0.77014000  1.0
  C  C441  1  0.14522000  0.75662000  0.79425000  1.0
  C  C442  1  0.10663000  0.77298000  0.76855000  1.0
  C  C443  1  0.09331000  0.76424000  0.71761000  1.0
  C  C444  1  0.11792000  0.73982000  0.69242000  1.0
  C  C445  1  0.15680000  0.72495000  0.71963000  1.0
  C  C446  1  0.08022000  0.79832000  0.79459000  1.0
  C  C447  1  0.07333000  0.78581000  0.82648000  1.0
  C  C448  1  0.04774000  0.80847000  0.85026000  1.0
  C  C449  1  0.02864000  0.84540000  0.84390000  1.0
  C  C450  1  0.03576000  0.85873000  0.81283000  1.0
  C  C451  1  0.06071000  0.83524000  0.78829000  1.0
  C  C452  1  0.13269000  0.00101000  0.13313000  1.0
  C  C453  1  0.10473000  0.72953000  0.63877000  1.0
  C  C454  1  0.08645000  0.76170000  0.62240000  1.0
  C  C455  1  0.07704000  0.75317000  0.57336000  1.0
  C  C456  1  0.08491000  0.71204000  0.53898000  1.0
  C  C457  1  0.10280000  0.67951000  0.55467000  1.0
  C  C458  1  0.11270000  0.68830000  0.60404000  1.0
  C  C459  1  0.45322000  0.66282000  0.98593000  1.0
  C  C460  1  0.38722000  0.58738000  0.63969000  1.0
  C  C461  1  0.41789000  0.55344000  0.64449000  1.0
  C  C462  1  0.41922000  0.51780000  0.59961000  1.0
  C  C463  1  0.44493000  0.48403000  0.60339000  1.0
  C  C464  1  0.47017000  0.48519000  0.65222000  1.0
  C  C465  1  0.47043000  0.52247000  0.69778000  1.0
  C  C466  1  0.44436000  0.55582000  0.69386000  1.0
  C  C467  1  0.49198000  0.44576000  0.65482000  1.0
  C  C468  1  0.51397000  0.42176000  0.62611000  1.0
  C  C469  1  0.53290000  0.38353000  0.62924000  1.0
  C  C470  1  0.52922000  0.36894000  0.66118000  1.0
  C  C471  1  0.50595000  0.39137000  0.68879000  1.0
  C  C472  1  0.48847000  0.43000000  0.68581000  1.0
  C  C473  1  0.55413000  0.35716000  0.59705000  1.0
  C  C474  1  0.53232000  0.34608000  0.54330000  1.0
  C  C475  1  0.55005000  0.31930000  0.51129000  1.0
  C  C476  1  0.59166000  0.30403000  0.53279000  1.0
  C  C477  1  0.61461000  0.31574000  0.58682000  1.0
  C  C478  1  0.59547000  0.34117000  0.61787000  1.0
  C  C479  1  0.14024000  0.02843000  0.00167000  1.0
  C  C480  1  0.49741000  0.37497000  0.71924000  1.0
  C  C481  1  0.53165000  0.35809000  0.74900000  1.0
  C  C482  1  0.52334000  0.34502000  0.77917000  1.0
  C  C483  1  0.48036000  0.34789000  0.77962000  1.0
  C  C484  1  0.44621000  0.36492000  0.75034000  1.0
  C  C485  1  0.45464000  0.37827000  0.72054000  1.0
  C  C486  1  0.33951000  0.47858000  0.81044000  1.0
  C  C487  1  0.24315000  0.58974000  0.19502000  1.0
  C  C488  1  0.22147000  0.55289000  0.13521000  1.0
  C  C489  1  0.17984000  0.51160000  0.10346000  1.0
  C  C490  1  0.16188000  0.47617000  0.04861000  1.0
  C  C491  1  0.18579000  0.48073000  0.02460000  1.0
  C  C492  1  0.22695000  0.52268000  0.05633000  1.0
  C  C493  1  0.24429000  0.55851000  0.11076000  1.0
  C  C494  1  0.17033000  0.44137000  0.96813000  1.0
  C  C495  1  0.12045000  0.41805000  0.92395000  1.0
  C  C496  1  0.10739000  0.38108000  0.87078000  1.0
  C  C497  1  0.14498000  0.36735000  0.86237000  1.0
  C  C498  1  0.19505000  0.38972000  0.90597000  1.0
  C  C499  1  0.20705000  0.42672000  0.95852000  1.0
  C  C500  1  0.05495000  0.35641000  0.82417000  1.0
  C  C501  1  0.01958000  0.38208000  0.82139000  1.0
  C  C502  1  0.96996000  0.35819000  0.77841000  1.0
  C  C503  1  0.95428000  0.30784000  0.73649000  1.0
  C  C504  1  0.98939000  0.28218000  0.73805000  1.0
  C  C505  1  0.03888000  0.30618000  0.78128000  1.0
  C  C506  1  0.90143000  0.28248000  0.69198000  1.0
  C  C507  1  0.23473000  0.37583000  0.89722000  1.0
  C  C508  1  0.22938000  0.36011000  0.84712000  1.0
  C  C509  1  0.26721000  0.34776000  0.83948000  1.0
  C  C510  1  0.31140000  0.35101000  0.88188000  1.0
  C  C511  1  0.31735000  0.36736000  0.93218000  1.0
  C  C512  1  0.27953000  0.37951000  0.93981000  1.0
  C  C513  1  0.28854000  0.60106000  0.37305000  1.0
  C  C514  1  0.39476000  0.77063000  0.34374000  1.0
  C  C515  1  0.42054000  0.79390000  0.32939000  1.0
  C  C516  1  0.41485000  0.83799000  0.33229000  1.0
  C  C517  1  0.43660000  0.85732000  0.31523000  1.0
  C  C518  1  0.46384000  0.83250000  0.29421000  1.0
  C  C519  1  0.47050000  0.78902000  0.29276000  1.0
  C  C520  1  0.44944000  0.77016000  0.31055000  1.0
  C  C521  1  0.48193000  0.84861000  0.26946000  1.0
  C  C522  1  0.50586000  0.89816000  0.29365000  1.0
  C  C523  1  0.52232000  0.91122000  0.26802000  1.0
  C  C524  1  0.51361000  0.87388000  0.21708000  1.0
  C  C525  1  0.48909000  0.82407000  0.19182000  1.0
  C  C526  1  0.47407000  0.81219000  0.21894000  1.0
  C  C527  1  0.54781000  0.96363000  0.29417000  1.0
  C  C528  1  0.53519000  0.00213000  0.32592000  1.0
  C  C529  1  0.55803000  0.05146000  0.34984000  1.0
  C  C530  1  0.59517000  0.06430000  0.34370000  1.0
  C  C531  1  0.60863000  0.02640000  0.31276000  1.0
  C  C532  1  0.58493000  0.97693000  0.28806000  1.0
  C  C533  1  0.75041000  0.25070000  0.63256000  1.0
  C  C534  1  0.47899000  0.78378000  0.13828000  1.0
  C  C535  1  0.51141000  0.78580000  0.12214000  1.0
  C  C536  1  0.50310000  0.74619000  0.07332000  1.0
  C  C537  1  0.46185000  0.70395000  0.03880000  1.0
  C  C538  1  0.42912000  0.70161000  0.05428000  1.0
  C  C539  1  0.43775000  0.74099000  0.10351000  1.0
  C  C540  1  0.41250000  0.78258000  0.48628000  1.0
  C  C541  1  0.33797000  0.50296000  0.13996000  1.0
  C  C542  1  0.30397000  0.47714000  0.14488000  1.0
  C  C543  1  0.26839000  0.43089000  0.10002000  1.0
  C  C544  1  0.23452000  0.40883000  0.10373000  1.0
  C  C545  1  0.23558000  0.43236000  0.15248000  1.0
  C  C546  1  0.27279000  0.47772000  0.19807000  1.0
  C  C547  1  0.30624000  0.50000000  0.19419000  1.0
  C  C548  1  0.19602000  0.41297000  0.15489000  1.0
  C  C549  1  0.17186000  0.36227000  0.12605000  1.0
  C  C550  1  0.13361000  0.34637000  0.12922000  1.0
  C  C551  1  0.11909000  0.38183000  0.16118000  1.0
  C  C552  1  0.14151000  0.43271000  0.18868000  1.0
  C  C553  1  0.18022000  0.44732000  0.18574000  1.0
  C  C554  1  0.10713000  0.29298000  0.09701000  1.0
  C  C555  1  0.09619000  0.26117000  0.04332000  1.0
  C  C556  1  0.06951000  0.21142000  0.01141000  1.0
  C  C557  1  0.05421000  0.19118000  0.03295000  1.0
  C  C558  1  0.06563000  0.22214000  0.08684000  1.0
  C  C559  1  0.09096000  0.27233000  0.11777000  1.0
  C  C560  1  0.77697000  0.11076000  0.50122000  1.0
  C  C561  1  0.12518000  0.47157000  0.21914000  1.0
  C  C562  1  0.10844000  0.46690000  0.24902000  1.0
  C  C563  1  0.09565000  0.50525000  0.27948000  1.0
  C  C564  1  0.09860000  0.54876000  0.28008000  1.0
  C  C565  1  0.11524000  0.55374000  0.25043000  1.0
  C  C566  1  0.12842000  0.51567000  0.22042000  1.0
  C  C567  1  0.22745000  0.72044000  0.31048000  1.0
  C  C568  1  0.95152000  0.60478000  0.19514000  1.0
  C  C569  1  0.91343000  0.58181000  0.13531000  1.0
  C  C570  1  0.92332000  0.59155000  0.10362000  1.0
  C  C571  1  0.88644000  0.57242000  0.04886000  1.0
  C  C572  1  0.83855000  0.54392000  0.02486000  1.0
  C  C573  1  0.82915000  0.53344000  0.05650000  1.0
  C  C574  1  0.86621000  0.55176000  0.11086000  1.0
  C  C575  1  0.79763000  0.52699000  0.96845000  1.0
  C  C576  1  0.80344000  0.50620000  0.92430000  1.0
  C  C577  1  0.76341000  0.49002000  0.87111000  1.0
  C  C578  1  0.71739000  0.49527000  0.86266000  1.0
  C  C579  1  0.71078000  0.51630000  0.90619000  1.0
  C  C580  1  0.75127000  0.53191000  0.95878000  1.0
  C  C581  1  0.76924000  0.46795000  0.82446000  1.0
  C  C582  1  0.80174000  0.43939000  0.82173000  1.0
  C  C583  1  0.80839000  0.42012000  0.77871000  1.0
  C  C584  1  0.78227000  0.42847000  0.73667000  1.0
  C  C585  1  0.74878000  0.45580000  0.73816000  1.0
  C  C586  1  0.74248000  0.47518000  0.78142000  1.0
  C  C587  1  0.79087000  0.40936000  0.69229000  1.0
  C  C588  1  0.66232000  0.52128000  0.89740000  1.0
  C  C589  1  0.61764000  0.48695000  0.84730000  1.0
  C  C590  1  0.57219000  0.49165000  0.83970000  1.0
  C  C591  1  0.57039000  0.53071000  0.88215000  1.0
  C  C592  1  0.61467000  0.56458000  0.93245000  1.0
  C  C593  1  0.66009000  0.56005000  0.94005000  1.0
  C  C594  1  0.08417000  0.77114000  0.37286000  1.0
  C  C595  1  0.94873000  0.57215000  0.34380000  1.0
  C  C596  1  0.90846000  0.53478000  0.32949000  1.0
  C  C597  1  0.91685000  0.49346000  0.33217000  1.0
  C  C598  1  0.87794000  0.45717000  0.31502000  1.0
  C  C599  1  0.82978000  0.46121000  0.29414000  1.0
  C  C600  1  0.82192000  0.50346000  0.29308000  1.0
  C  C601  1  0.86087000  0.54001000  0.31094000  1.0
  C  C602  1  0.78688000  0.42039000  0.26927000  1.0
  C  C603  1  0.78702000  0.39493000  0.29338000  1.0
  C  C604  1  0.74495000  0.35628000  0.26777000  1.0
  C  C605  1  0.70280000  0.34285000  0.21681000  1.0
  C  C606  1  0.70218000  0.36752000  0.19160000  1.0
  C  C607  1  0.74432000  0.40646000  0.21876000  1.0
  C  C608  1  0.74571000  0.33006000  0.29412000  1.0
  C  C609  1  0.79015000  0.32349000  0.32612000  1.0
  C  C610  1  0.79141000  0.29822000  0.35033000  1.0
  C  C611  1  0.74823000  0.27905000  0.34422000  1.0
  C  C612  1  0.70383000  0.28593000  0.31315000  1.0
  C  C613  1  0.70261000  0.31060000  0.28822000  1.0
  C  C614  1  0.88312000  0.38295000  0.63337000  1.0
  C  C615  1  0.65889000  0.35439000  0.13797000  1.0
  C  C616  1  0.61028000  0.33626000  0.12166000  1.0
  C  C617  1  0.56993000  0.32697000  0.07267000  1.0
  C  C618  1  0.57681000  0.33452000  0.03807000  1.0
  C  C619  1  0.62506000  0.35235000  0.05374000  1.0
  C  C620  1  0.66553000  0.36240000  0.10320000  1.0
  C  C621  1  0.07320000  0.70324000  0.48598000  1.0
  C  C622  1  0.80235000  0.63697000  0.14040000  1.0
  C  C623  1  0.84125000  0.66741000  0.14504000  1.0
  C  C624  1  0.83210000  0.66875000  0.10014000  1.0
  C  C625  1  0.86969000  0.69449000  0.10384000  1.0
  C  C626  1  0.91735000  0.71966000  0.15260000  1.0
  C  C627  1  0.92562000  0.71976000  0.19816000  1.0
  C  C628  1  0.88824000  0.69375000  0.19434000  1.0
  C  C629  1  0.95934000  0.74162000  0.15509000  1.0
  C  C630  1  0.95475000  0.76380000  0.12651000  1.0
  C  C631  1  0.99611000  0.78287000  0.12957000  1.0
  C  C632  1  0.04252000  0.77908000  0.16125000  1.0
  C  C633  1  0.04757000  0.75565000  0.18874000  1.0
  C  C634  1  0.00599000  0.73811000  0.18590000  1.0
  C  C635  1  0.99029000  0.80427000  0.09746000  1.0
  C  C636  1  0.94740000  0.78256000  0.04391000  1.0
  C  C637  1  0.94191000  0.80044000  0.01190000  1.0
  C  C638  1  0.97870000  0.84211000  0.03321000  1.0
  C  C639  1  0.02127000  0.86487000  0.08697000  1.0
  C  C640  1  0.02712000  0.84560000  0.11802000  1.0
  C  C641  1  0.72389000  0.39066000  0.50199000  1.0
  C  C642  1  0.09427000  0.74713000  0.21912000  1.0
  C  C643  1  0.14094000  0.78155000  0.24914000  1.0
  C  C644  1  0.18397000  0.77354000  0.27979000  1.0
  C  C645  1  0.18133000  0.73064000  0.28036000  1.0
  C  C646  1  0.13503000  0.69603000  0.25034000  1.0
  C  C647  1  0.09206000  0.70423000  0.22021000  1.0
  C  C648  1  0.08200000  0.58864000  0.30986000  1.0
  O  O1  1  0.37315000  0.71976000  0.77724000  1.0
  O  O2  1  0.41931000  0.77751000  0.78372000  1.0
  O  O3  1  0.69405000  0.12995000  0.30649000  1.0
  O  O4  1  0.76361000  0.11161000  0.34671000  1.0
  O  O5  1  0.40955000  0.73900000  0.67599000  1.0
  O  O6  1  0.35792000  0.67744000  0.58511000  1.0
  O  O7  1  0.26950000  0.60020000  0.66003000  1.0
  O  O8  1  0.20725000  0.63329000  0.64119000  1.0
  O  O9  1  0.78801000  0.23487000  0.38268000  1.0
  O  O10  1  0.71330000  0.24069000  0.37130000  1.0
  O  O11  1  0.25964000  0.58241000  0.52220000  1.0
  O  O12  1  0.21052000  0.62417000  0.54616000  1.0
  O  O13  1  0.45347000  0.63365000  0.82070000  1.0
  O  O14  1  0.36619000  0.58469000  0.59368000  1.0
  O  O15  1  0.86297000  0.19090000  0.44789000  1.0
  O  O16  1  0.86927000  0.25334000  0.52418000  1.0
  O  O17  1  0.24653000  0.73164000  0.66321000  1.0
  O  O18  1  0.32050000  0.77786000  0.69301000  1.0
  O  O19  1  0.32069000  0.66962000  0.65230000  1.0
  O  O20  1  0.76380000  0.20276000  0.44462000  1.0
  O  O21  1  0.40455000  0.05770000  0.77699000  1.0
  O  O22  1  0.36488000  0.00671000  0.78374000  1.0
  O  O23  1  0.61258000  0.17623000  0.30624000  1.0
  O  O24  1  0.58286000  0.23452000  0.34622000  1.0
  O  O25  1  0.26750000  0.93657000  0.67590000  1.0
  O  O26  1  0.22773000  0.90889000  0.58539000  1.0
  O  O27  1  0.39160000  0.05996000  0.66026000  1.0
  O  O28  1  0.43500000  0.00828000  0.64088000  1.0
  O  O29  1  0.59263000  0.14624000  0.38059000  1.0
  O  O30  1  0.65722000  0.13000000  0.37140000  1.0
  O  O31  1  0.26327000  0.94083000  0.52282000  1.0
  O  O32  1  0.33617000  0.92268000  0.54647000  1.0
  O  O33  1  0.36676000  0.18676000  0.81989000  1.0
  O  O34  1  0.22821000  0.01034000  0.59430000  1.0
  O  O35  1  0.58327000  0.25568000  0.44659000  1.0
  O  O36  1  0.65528000  0.27308000  0.52310000  1.0
  O  O37  1  0.41865000  0.93349000  0.66467000  1.0
  O  O38  1  0.37367000  0.91597000  0.69317000  1.0
  O  O39  1  0.33255000  0.98352000  0.65255000  1.0
  O  O40  1  0.67884000  0.24224000  0.44712000  1.0
  O  O41  1  0.47041000  0.65422000  0.27647000  1.0
  O  O42  1  0.52706000  0.61356000  0.28294000  1.0
  O  O43  1  0.87944000  0.86246000  0.80619000  1.0
  O  O44  1  0.86068000  0.83234000  0.84581000  1.0
  O  O45  1  0.49016000  0.51663000  0.17490000  1.0
  O  O46  1  0.42750000  0.47638000  0.08430000  1.0
  O  O47  1  0.34968000  0.64158000  0.15948000  1.0
  O  O48  1  0.38345000  0.68604000  0.14208000  1.0
  O  O49  1  0.98321000  0.84310000  0.88089000  1.0
  O  O50  1  0.99098000  0.90766000  0.87179000  1.0
  O  O51  1  0.33273000  0.51215000  0.02166000  1.0
  O  O52  1  0.37286000  0.58711000  0.04761000  1.0
  O  O53  1  0.38422000  0.61707000  0.32109000  1.0
  O  O54  1  0.33545000  0.47815000  0.09416000  1.0
  O  O55  1  0.93982000  0.83424000  0.94726000  1.0
  O  O56  1  0.00036000  0.90564000  0.02331000  1.0
  O  O57  1  0.48032000  0.66801000  0.16570000  1.0
  O  O58  1  0.52689000  0.62225000  0.19141000  1.0
  O  O59  1  0.41898000  0.58084000  0.15247000  1.0
  O  O60  1  0.95347000  0.93000000  0.94581000  1.0
  O  O61  1  0.80679000  0.62284000  0.27802000  1.0
  O  O62  1  0.75702000  0.67053000  0.28422000  1.0
  O  O63  1  0.92665000  0.94322000  0.80640000  1.0
  O  O64  1  0.98423000  0.01343000  0.84588000  1.0
  O  O65  1  0.68599000  0.65927000  0.17571000  1.0
  O  O66  1  0.65731000  0.60828000  0.08493000  1.0
  O  O67  1  0.80897000  0.51754000  0.15932000  1.0
  O  O68  1  0.75858000  0.45584000  0.14279000  1.0
  O  O69  1  0.89712000  0.03791000  0.88172000  1.0
  O  O70  1  0.87988000  0.96346000  0.87104000  1.0
  O  O71  1  0.68855000  0.50956000  0.02198000  1.0
  O  O72  1  0.67585000  0.46085000  0.04893000  1.0
  O  O73  1  0.93581000  0.70356000  0.32034000  1.0
  O  O74  1  0.75918000  0.61570000  0.09454000  1.0
  O  O75  1  0.00666000  0.11348000  0.94685000  1.0
  O  O76  1  0.02304000  0.11760000  0.02305000  1.0
  O  O77  1  0.68697000  0.49927000  0.16794000  1.0
  O  O78  1  0.66612000  0.57076000  0.19337000  1.0
  O  O79  1  0.73435000  0.57268000  0.15362000  1.0
  O  O80  1  0.99227000  0.01718000  0.94664000  1.0
  O  O81  1  0.37719000  0.19322000  0.72200000  1.0
  O  O82  1  0.32951000  0.24300000  0.71579000  1.0
  O  O83  1  0.05681000  0.07336000  0.19363000  1.0
  O  O84  1  0.98658000  0.01579000  0.15413000  1.0
  O  O85  1  0.34075000  0.31399000  0.82429000  1.0
  O  O86  1  0.39175000  0.34269000  0.91507000  1.0
  O  O87  1  0.48254000  0.19109000  0.84069000  1.0
  O  O88  1  0.54427000  0.24131000  0.85707000  1.0
  O  O89  1  0.96211000  0.10291000  0.11830000  1.0
  O  O90  1  0.03660000  0.12019000  0.12906000  1.0
  O  O91  1  0.49046000  0.31145000  0.97799000  1.0
  O  O92  1  0.53920000  0.32410000  0.95102000  1.0
  O  O93  1  0.29644000  0.06419000  0.67966000  1.0
  O  O94  1  0.38435000  0.24082000  0.90548000  1.0
  O  O95  1  0.88652000  0.99337000  0.05318000  1.0
  O  O96  1  0.88243000  0.97694000  0.97698000  1.0
  O  O97  1  0.50076000  0.31303000  0.83201000  1.0
  O  O98  1  0.42927000  0.33389000  0.80662000  1.0
  O  O99  1  0.42750000  0.26571000  0.84643000  1.0
  O  O100  1  0.98280000  0.00775000  0.05335000  1.0
  O  O101  1  0.34580000  0.52959000  0.72352000  1.0
  O  O102  1  0.38644000  0.47294000  0.71706000  1.0
  O  O103  1  0.13763000  0.12059000  0.19388000  1.0
  O  O104  1  0.16768000  0.13933000  0.15419000  1.0
  O  O105  1  0.48337000  0.50984000  0.82510000  1.0
  O  O106  1  0.52363000  0.57252000  0.91571000  1.0
  O  O107  1  0.35844000  0.65034000  0.84053000  1.0
  O  O108  1  0.31398000  0.61655000  0.85792000  1.0
  O  O109  1  0.15690000  0.01678000  0.11910000  1.0
  O  O110  1  0.09237000  0.00908000  0.12826000  1.0
  O  O111  1  0.48786000  0.66727000  0.97834000  1.0
  O  O112  1  0.41290000  0.62713000  0.95240000  1.0
  O  O113  1  0.38295000  0.61579000  0.67889000  1.0
  O  O114  1  0.52187000  0.66457000  0.90587000  1.0
  O  O115  1  0.16576000  0.06019000  0.05275000  1.0
  O  O116  1  0.09438000  0.99959000  0.97671000  1.0
  O  O117  1  0.33202000  0.51967000  0.83435000  1.0
  O  O118  1  0.37777000  0.47312000  0.80861000  1.0
  O  O119  1  0.41916000  0.58101000  0.84753000  1.0
  O  O120  1  0.07000000  0.04656000  0.05425000  1.0
  O  O121  1  0.28024000  0.62684000  0.22274000  1.0
  O  O122  1  0.22249000  0.58070000  0.21629000  1.0
  O  O123  1  0.86996000  0.30587000  0.69333000  1.0
  O  O124  1  0.88839000  0.23636000  0.65322000  1.0
  O  O125  1  0.26101000  0.59043000  0.32400000  1.0
  O  O126  1  0.32255000  0.64206000  0.41488000  1.0
  O  O127  1  0.39982000  0.73054000  0.33996000  1.0
  O  O128  1  0.36678000  0.79281000  0.35884000  1.0
  O  O129  1  0.76516000  0.21200000  0.61736000  1.0
  O  O130  1  0.75930000  0.28667000  0.62866000  1.0
  O  O131  1  0.41761000  0.74036000  0.47784000  1.0
  O  O132  1  0.37590000  0.78944000  0.45375000  1.0
  O  O133  1  0.36636000  0.54654000  0.17932000  1.0
  O  O134  1  0.41531000  0.63380000  0.40630000  1.0
  O  O135  1  0.80913000  0.13701000  0.55212000  1.0
  O  O136  1  0.74670000  0.13072000  0.47585000  1.0
  O  O137  1  0.26843000  0.75339000  0.33669000  1.0
  O  O138  1  0.22219000  0.67952000  0.30704000  1.0
  O  O139  1  0.33043000  0.67924000  0.34768000  1.0
  O  O140  1  0.79664000  0.23565000  0.55476000  1.0
  O  O141  1  0.94233000  0.59548000  0.22304000  1.0
  O  O142  1  0.99332000  0.63514000  0.21628000  1.0
  O  O143  1  0.82372000  0.38734000  0.69371000  1.0
  O  O144  1  0.76537000  0.41697000  0.65366000  1.0
  O  O145  1  0.06346000  0.73252000  0.32411000  1.0
  O  O146  1  0.09112000  0.77227000  0.41461000  1.0
  O  O147  1  0.94009000  0.60841000  0.33978000  1.0
  O  O148  1  0.99174000  0.56496000  0.35908000  1.0
  O  O149  1  0.85365000  0.40723000  0.61937000  1.0
  O  O150  1  0.87003000  0.34268000  0.62861000  1.0
  O  O151  1  0.05926000  0.73677000  0.47722000  1.0
  O  O152  1  0.07730000  0.66381000  0.45353000  1.0
  O  O153  1  0.81326000  0.63322000  0.18010000  1.0
  O  O154  1  0.98967000  0.77176000  0.40572000  1.0
  O  O155  1  0.74417000  0.41655000  0.55328000  1.0
  O  O156  1  0.72679000  0.34456000  0.47676000  1.0
  O  O157  1  0.06645000  0.58133000  0.33527000  1.0
  O  O158  1  0.08409000  0.62638000  0.30689000  1.0
  O  O159  1  0.01649000  0.66748000  0.34746000  1.0
  O  O160  1  0.75758000  0.32063000  0.55243000  1.0
