# generated using pymatgen
data_H9C20(N2O3)3
_symmetry_space_group_name_H-M   'P 1'
_cell_length_a   38.30142280
_cell_length_b   38.58252720
_cell_length_c   75.40400000
_cell_angle_alpha   89.78539307
_cell_angle_beta   89.78745693
_cell_angle_gamma   98.10809321
_symmetry_Int_Tables_number   1
_chemical_formula_structural   H9C20(N2O3)3
_chemical_formula_sum   'H288 C640 N192 O288'
_cell_volume   110313.78219167
_cell_formula_units_Z   32
loop_
 _symmetry_equiv_pos_site_id
 _symmetry_equiv_pos_as_xyz
  1  'x, y, z'
loop_
 _atom_site_type_symbol
 _atom_site_label
 _atom_site_symmetry_multiplicity
 _atom_site_fract_x
 _atom_site_fract_y
 _atom_site_fract_z
 _atom_site_occupancy
  C  1  1  0.94511400  0.22328600  0.87328200  1
  C  2  1  0.95604950  0.25800250  0.86717900  1
  C  3  1  0.96253300  0.28633900  0.87901450  1
  C  4  1  0.95756200  0.27995600  0.89732250  1
  C  5  1  0.94628250  0.24599350  0.90398200  1
  C  6  1  0.94060200  0.21768600  0.89192500  1
  C  9  1  0.94049750  0.19473050  0.86088200  1
  C  10  1  0.92121750  0.19577750  0.84478950  1
  C  11  1  0.91695100  0.16666300  0.83318050  1
  C  12  1  0.93271250  0.13680550  0.83743050  1
  C  13  1  0.95167850  0.13489650  0.85322250  1
  C  14  1  0.95622650  0.16429250  0.86450300  1
  C  25  1  0.05504350  0.71514150  0.87424100  1
  C  26  1  0.04432800  0.68052500  0.86811950  1
  C  27  1  0.03774050  0.65194750  0.87993350  1
  C  28  1  0.04235950  0.65799450  0.89824700  1
  C  29  1  0.05338600  0.69186200  0.90492750  1
  C  30  1  0.05917750  0.72040650  0.89288500  1
  C  33  1  0.05985050  0.74390950  0.86184650  1
  C  34  1  0.07946950  0.74315350  0.84577450  1
  C  35  1  0.08386100  0.77242100  0.83414150  1
  C  36  1  0.06788150  0.80214050  0.83834100  1
  C  37  1  0.04855500  0.80375800  0.85410750  1
  C  38  1  0.04392150  0.77422050  0.86542400  1
  C  49  1  0.25282500  0.90848900  0.62370950  1
  C  50  1  0.28747650  0.91983250  0.62992150  1
  C  51  1  0.31635050  0.92654150  0.61818650  1
  C  52  1  0.31065450  0.92151350  0.59987750  1
  C  53  1  0.27674850  0.90986550  0.59310950  1
  C  54  1  0.24786250  0.90385750  0.60506900  1
  C  57  1  0.22366800  0.90432000  0.63598800  1
  C  58  1  0.22419500  0.88600800  0.65243200  1
  C  59  1  0.19514250  0.88378350  0.66431050  1
  C  60  1  0.16492850  0.89856550  0.65938900  1
  C  61  1  0.16350000  0.91644700  0.64321600  1
  C  62  1  0.19338000  0.92020500  0.63200600  1
  C  73  1  0.74578450  0.02884750  0.62438850  1
  C  74  1  0.71102350  0.01799150  0.63075350  1
  C  75  1  0.68218400  0.01160500  0.61911100  1
  C  76  1  0.68801400  0.01650700  0.60076500  1
  C  77  1  0.72202650  0.02772850  0.59385500  1
  C  78  1  0.75088400  0.03338200  0.60571350  1
  C  81  1  0.77492550  0.03252950  0.63654500  1
  C  82  1  0.77483850  0.05111250  0.65285900  1
  C  83  1  0.80393400  0.05298000  0.66458000  1
  C  84  1  0.83375600  0.03753400  0.65960400  1
  C  85  1  0.83470800  0.01927800  0.64357650  1
  C  86  1  0.80475900  0.01592200  0.63254650  1
  C  97  1  0.05437850  0.71408150  0.12429250  1
  C  98  1  0.04306650  0.67904250  0.12980800  1
  C  99  1  0.03712500  0.65138700  0.11751850  1
  C  100  1  0.04266700  0.65891900  0.09932900  1
  C  101  1  0.05327950  0.69340350  0.09328400  1
  C  102  1  0.05979500  0.72080500  0.10579600  1
  C  105  1  0.05845050  0.74199050  0.13704600  1
  C  106  1  0.07750750  0.74045150  0.15316700  1
  C  107  1  0.08153300  0.76921100  0.16500550  1
  C  108  1  0.06567000  0.79911800  0.16096800  1
  C  109  1  0.04684300  0.80145300  0.14516550  1
  C  110  1  0.04257150  0.77242650  0.13364700  1
  C  121  1  0.94334100  0.22110200  0.12333450  1
  C  122  1  0.95469950  0.25600950  0.12885900  1
  C  123  1  0.96091500  0.28389100  0.11658400  1
  C  124  1  0.95562750  0.27671550  0.09839350  1
  C  125  1  0.94499000  0.24235900  0.09233700  1
  C  126  1  0.93819400  0.21473300  0.10483950  1
  C  129  1  0.93890950  0.19298250  0.13608650  1
  C  130  1  0.91960700  0.19438500  0.15220650  1
  C  131  1  0.91530400  0.16548400  0.16407700  1
  C  132  1  0.93114600  0.13557100  0.16008100  1
  C  133  1  0.95023100  0.13337400  0.14428450  1
  C  134  1  0.95473700  0.16252600  0.13271750  1
  C  145  1  0.74660000  0.02933500  0.37451300  1
  C  146  1  0.71159250  0.01755850  0.36893200  1
  C  147  1  0.68343200  0.01143000  0.38115050  1
  C  148  1  0.69035300  0.01716100  0.39933200  1
  C  149  1  0.72482650  0.02824150  0.40543750  1
  C  150  1  0.75276800  0.03498300  0.39299350  1
  C  153  1  0.77507500  0.03288200  0.36186200  1
  C  154  1  0.77398200  0.05085400  0.34536050  1
  C  155  1  0.80262750  0.05277150  0.33324100  1
  C  156  1  0.83293950  0.03793550  0.33796450  1
  C  157  1  0.83484750  0.02027650  0.35416850  1
  C  158  1  0.80536750  0.01686350  0.36563350  1
  C  169  1  0.25229450  0.90731550  0.37382450  1
  C  170  1  0.28737000  0.91892500  0.36811500  1
  C  171  1  0.31544000  0.92491400  0.38026550  1
  C  172  1  0.30839100  0.91915500  0.39847800  1
  C  173  1  0.27385600  0.90819700  0.40469850  1
  C  174  1  0.24598300  0.90163500  0.39233900  1
  C  177  1  0.22386200  0.90408000  0.36127950  1
  C  178  1  0.22468750  0.88593650  0.34487950  1
  C  179  1  0.19600350  0.88420550  0.33290400  1
  C  180  1  0.16592500  0.89943600  0.33769250  1
  C  181  1  0.16431850  0.91735450  0.35378050  1
  C  182  1  0.19384800  0.92054000  0.36508400  1
  C  385  1  0.95791400  0.23788400  0.04480500  1
  C  386  1  0.98652050  0.24015650  0.03273950  1
  C  387  1  0.98142900  0.23970200  0.01416050  1
  C  388  1  0.94667350  0.23652050  0.00733550  1
  C  389  1  0.91748500  0.23326600  0.01916950  1
  C  390  1  0.92346050  0.23382550  0.03770350  1
  C  392  1  0.94148150  0.24089250  0.98876900  1
  C  393  1  0.94065850  0.21225650  0.97694800  1
  C  394  1  0.93671800  0.21783000  0.95850700  1
  C  395  1  0.93357850  0.25133250  0.95156450  1
  C  396  1  0.93449450  0.27943350  0.96360050  1
  C  397  1  0.93856300  0.27475300  0.98204350  1
  C  413  1  0.93053000  0.25789300  0.93351400  1
  C  414  1  0.96454050  0.24241850  0.06289100  1
  C  417  1  0.04063050  0.69875650  0.04580250  1
  C  418  1  0.01208650  0.69693050  0.03383400  1
  C  419  1  0.01723350  0.69749950  0.01523650  1
  C  420  1  0.05199100  0.70034000  0.00829500  1
  C  421  1  0.08113050  0.70315750  0.02002800  1
  C  422  1  0.07509700  0.70249200  0.03858300  1
  C  424  1  0.05719050  0.69605050  0.98971950  1
  C  425  1  0.05850300  0.72484000  0.97784900  1
  C  426  1  0.06253300  0.71938000  0.95941050  1
  C  427  1  0.06529100  0.68584200  0.95252150  1
  C  428  1  0.06386700  0.65758200  0.96460350  1
  C  429  1  0.05969700  0.66215000  0.98304600  1
  C  445  1  0.06853450  0.67942950  0.93448200  1
  C  446  1  0.03390550  0.69404450  0.06391350  1
  C  449  1  0.26892900  0.92161100  0.45212600  1
  C  450  1  0.27106050  0.95018050  0.46396650  1
  C  451  1  0.27087350  0.94543050  0.48258500  1
  C  452  1  0.26810800  0.91106100  0.48968600  1
  C  453  1  0.26500400  0.88190800  0.47809350  1
  C  454  1  0.26529650  0.88753750  0.45951350  1
  C  456  1  0.27267750  0.90622550  0.50826800  1
  C  457  1  0.24377500  0.90483800  0.52020050  1
  C  458  1  0.24948300  0.90103000  0.53863250  1
  C  459  1  0.28337850  0.89857250  0.54546350  1
  C  460  1  0.31174450  0.90009150  0.53331200  1
  C  461  1  0.30693550  0.90402950  0.51487200  1
  C  477  1  0.29004500  0.89559600  0.56350400  1
  C  478  1  0.27316100  0.92794200  0.43395800  1
  C  481  1  0.72967150  0.01501850  0.45291500  1
  C  482  1  0.72777900  0.98651300  0.46490300  1
  C  483  1  0.72803800  0.99134400  0.48349850  1
  C  484  1  0.73063050  0.02573450  0.49041850  1
  C  485  1  0.73348750  0.05482750  0.47867100  1
  C  486  1  0.73313150  0.04911750  0.46012000  1
  C  488  1  0.72611250  0.03063650  0.50899600  1
  C  489  1  0.75511800  0.03244000  0.52077500  1
  C  490  1  0.74948800  0.03645100  0.53920750  1
  C  491  1  0.71557450  0.03872950  0.54618000  1
  C  492  1  0.68709950  0.03676650  0.53418650  1
  C  493  1  0.69183100  0.03260700  0.51575300  1
  C  509  1  0.70900450  0.04200950  0.56422000  1
  C  510  1  0.72543050  0.00859850  0.43479550  1
  C  641  1  0.97884500  0.05621600  0.87118250  1
  C  642  1  0.96181950  0.03073850  0.88298850  1
  C  643  1  0.96954600  0.99595100  0.88301200  1
  C  644  1  0.99520550  0.98651450  0.87101750  1
  C  645  1  0.01279900  0.01183600  0.85913300  1
  C  646  1  0.00430150  0.04637350  0.85932850  1
  C  648  1  0.00354450  0.95166350  0.87110300  1
  C  649  1  0.98746550  0.92681650  0.85872150  1
  C  650  1  0.99586850  0.89224950  0.85911000  1
  C  651  1  0.01977400  0.88190500  0.87162600  1
  C  652  1  0.03529850  0.90692350  0.88391150  1
  C  653  1  0.02760850  0.94172550  0.88377650  1
  C  669  1  0.02871000  0.84834400  0.87188600  1
  C  670  1  0.96981550  0.08972950  0.87124050  1
  C  673  1  0.08559250  0.94456950  0.62465550  1
  C  674  1  0.05985800  0.92809700  0.61292600  1
  C  675  1  0.02508900  0.93650000  0.61286550  1
  C  676  1  0.01601050  0.96226650  0.62473900  1
  C  677  1  0.04162800  0.97938600  0.63650450  1
  C  678  1  0.07612600  0.97024100  0.63633900  1
  C  680  1  0.98113750  0.97104350  0.62478050  1
  C  681  1  0.95603350  0.95534550  0.63734600  1
  C  682  1  0.92156650  0.96457250  0.63727900  1
  C  683  1  0.91163500  0.98896300  0.62492850  1
  C  684  1  0.93686250  0.00400950  0.61241600  1
  C  685  1  0.97158150  0.99547450  0.61222050  1
  C  701  1  0.87829100  0.99887200  0.62510400  1
  C  702  1  0.11897700  0.93478300  0.62476500  1
  C  705  1  0.01993100  0.88054100  0.12750700  1
  C  706  1  0.03682050  0.90613150  0.11571900  1
  C  707  1  0.02891250  0.94085250  0.11573100  1
  C  708  1  0.00320350  0.95010950  0.12774750  1
  C  709  1  0.98575750  0.92468450  0.13962150  1
  C  710  1  0.99443350  0.89021250  0.13938800  1
  C  712  1  0.99464500  0.98487600  0.12767100  1
  C  713  1  0.01073500  0.00984800  0.13998950  1
  C  714  1  0.00221250  0.04437150  0.13955850  1
  C  715  1  0.97818100  0.05455200  0.12706200  1
  C  716  1  0.96262450  0.02939350  0.11485050  1
  C  717  1  0.97043450  0.99463650  0.11502550  1
  C  733  1  0.96922950  0.08811150  0.12670350  1
  C  734  1  0.02906950  0.84706650  0.12735700  1
  C  737  1  0.91315000  0.99233200  0.37242400  1
  C  738  1  0.93901250  0.00860950  0.38414300  1
  C  739  1  0.97368300  0.99994900  0.38417200  1
  C  740  1  0.98252700  0.97411900  0.37227300  1
  C  741  1  0.95678700  0.95720100  0.36051200  1
  C  742  1  0.92239150  0.96659850  0.36071150  1
  C  744  1  0.01728400  0.96506400  0.37222000  1
  C  745  1  0.04253000  0.98074700  0.35971950  1
  C  746  1  0.07692550  0.97134650  0.35982150  1
  C  747  1  0.08664900  0.94679500  0.37214350  1
  C  748  1  0.06126550  0.93174450  0.38458200  1
  C  749  1  0.02661650  0.94045750  0.38474450  1
  C  765  1  0.11997800  0.93683300  0.37206600  1
  C  766  1  0.87983050  0.00228750  0.37240550  1
  C  897  1  0.00092200  0.56113900  0.87378000  1
  C  898  1  0.97579800  0.53658200  0.88260250  1
  C  899  1  0.97485400  0.50008800  0.88038850  1
  C  900  1  0.99939200  0.48749500  0.86877250  1
  C  901  1  0.02412700  0.51159900  0.85931150  1
  C  902  1  0.02445500  0.54802400  0.86186350  1
  C  904  1  0.00186250  0.45091350  0.86864400  1
  C  905  1  0.97757150  0.42728750  0.85885550  1
  C  906  1  0.97714250  0.39074250  0.86113250  1
  C  907  1  0.00014400  0.37704200  0.87308600  1
  C  908  1  0.02485900  0.40115000  0.88223900  1
  C  909  1  0.02588400  0.43774500  0.88030750  1
  C  925  1  0.99711400  0.34156300  0.87750000  1
  C  926  1  0.00374450  0.59640750  0.87845850  1
  C  961  1  0.59221800  0.97154900  0.62606000  1
  C  962  1  0.56851700  0.94618100  0.61708550  1
  C  963  1  0.53156500  0.94434100  0.61896400  1
  C  964  1  0.51767500  0.96820000  0.63038500  1
  C  965  1  0.54090100  0.99311400  0.64002050  1
  C  966  1  0.57781150  0.99434250  0.63780900  1
  C  968  1  0.48069850  0.96982450  0.63013000  1
  C  969  1  0.45690750  0.94529350  0.63986400  1
  C  970  1  0.42014250  0.94399050  0.63720750  1
  C  971  1  0.40643250  0.96632150  0.62491800  1
  C  972  1  0.43066400  0.99130900  0.61583150  1
  C  973  1  0.46749050  0.99321750  0.61815000  1
  C  989  1  0.37090850  0.96247250  0.62020900  1
  C  990  1  0.62797700  0.97532400  0.62167500  1
  C  1025  1  0.99744500  0.37532400  0.12122700  1
  C  1026  1  0.02245200  0.39957200  0.11214450  1
  C  1027  1  0.02387450  0.43613350  0.11429950  1
  C  1028  1  0.99994100  0.44914000  0.12611300  1
  C  1029  1  0.97530350  0.42535050  0.13580550  1
  C  1030  1  0.97448500  0.38884500  0.13330500  1
  C  1032  1  0.99800500  0.48584100  0.12628700  1
  C  1033  1  0.02293300  0.50921200  0.13586350  1
  C  1034  1  0.02373600  0.54582100  0.13364700  1
  C  1035  1  0.00047500  0.55986300  0.12196300  1
  C  1036  1  0.97517200  0.53600600  0.11300900  1
  C  1037  1  0.97375750  0.49935550  0.11488750  1
  C  1053  1  0.00371650  0.59541150  0.11762800  1
  C  1054  1  0.99423450  0.33993850  0.11671050  1
  C  1089  1  0.40614350  0.96480450  0.37510300  1
  C  1090  1  0.42951050  0.99002950  0.38435250  1
  C  1091  1  0.46651750  0.99241350  0.38250500  1
  C  1092  1  0.48083000  0.96926200  0.37084200  1
  C  1093  1  0.45794850  0.94447950  0.36095850  1
  C  1094  1  0.42097100  0.94269300  0.36314600  1
  C  1096  1  0.51792400  0.96822500  0.37102050  1
  C  1097  1  0.54137550  0.99347450  0.36152050  1
  C  1098  1  0.57821100  0.99519900  0.36409950  1
  C  1099  1  0.59234600  0.97257900  0.37608250  1
  C  1100  1  0.56844350  0.94692350  0.38494400  1
  C  1101  1  0.53155800  0.94457500  0.38269750  1
  C  1117  1  0.62794350  0.97668450  0.38070850  1
  C  1118  1  0.37029050  0.96056750  0.37934800  1
  C  1153  1  0.81142500  0.07258400  0.71143900  1
  C  1154  1  0.82153600  0.05456300  0.72652500  1
  C  1155  1  0.82958550  0.07157950  0.74286550  1
  C  1156  1  0.82721600  0.10782100  0.74436700  1
  C  1157  1  0.81683400  0.12649100  0.72949450  1
  C  1158  1  0.80907850  0.10866950  0.71324550  1
  C  1160  1  0.83682600  0.12498200  0.76074750  1
  C  1161  1  0.87253150  0.13924250  0.76373300  1
  C  1162  1  0.88358950  0.14924550  0.78110200  1
  C  1163  1  0.85999250  0.14500050  0.79566900  1
  C  1164  1  0.82428700  0.13202200  0.79229000  1
  C  1165  1  0.81241350  0.12189550  0.77506300  1
  C  1181  1  0.87208650  0.14720750  0.81306900  1
  C  1182  1  0.80638450  0.05459650  0.69541900  1
  C  1185  1  0.18902900  0.86544700  0.71138950  1
  C  1186  1  0.17918050  0.88382350  0.72637900  1
  C  1187  1  0.17136500  0.86717500  0.74292550  1
  C  1188  1  0.17373850  0.83096750  0.74474000  1
  C  1189  1  0.18389700  0.81195800  0.72997150  1
  C  1190  1  0.19141900  0.82941200  0.71351100  1
  C  1192  1  0.16414350  0.81411350  0.76129650  1
  C  1193  1  0.12848450  0.79967550  0.76445800  1
  C  1194  1  0.11739550  0.78985150  0.78192250  1
  C  1195  1  0.14091300  0.79444900  0.79640800  1
  C  1196  1  0.17657450  0.80763050  0.79286750  1
  C  1197  1  0.18848150  0.81758050  0.77554100  1
  C  1213  1  0.12872750  0.79229050  0.81384300  1
  C  1214  1  0.19372550  0.88302850  0.69516050  1
  C  1217  1  0.18903550  0.86431150  0.28606450  1
  C  1218  1  0.17902900  0.88217900  0.27090400  1
  C  1219  1  0.17080600  0.86493800  0.25463750  1
  C  1220  1  0.17291050  0.82862050  0.25328300  1
  C  1221  1  0.18324100  0.81011100  0.26822350  1
  C  1222  1  0.19116350  0.82815650  0.28439750  1
  C  1224  1  0.16297550  0.81120350  0.23700600  1
  C  1225  1  0.12717600  0.79706700  0.23419500  1
  C  1226  1  0.11581350  0.78678150  0.21690750  1
  C  1227  1  0.13920000  0.79061700  0.20225050  1
  C  1228  1  0.17499800  0.80347700  0.20546200  1
  C  1229  1  0.18717350  0.81388450  0.22260350  1
  C  1245  1  0.12683350  0.78826150  0.18489800  1
  C  1246  1  0.19395000  0.88246000  0.30204600  1
  C  1249  1  0.80843950  0.07163650  0.28620950  1
  C  1250  1  0.81830400  0.05349400  0.27114450  1
  C  1251  1  0.82629300  0.07043000  0.25468350  1
  C  1252  1  0.82407500  0.10670200  0.25303600  1
  C  1253  1  0.81386800  0.12547500  0.26787750  1
  C  1254  1  0.80617650  0.10773250  0.28424900  1
  C  1256  1  0.83391650  0.12385550  0.23658200  1
  C  1257  1  0.86965500  0.13818200  0.23355800  1
  C  1258  1  0.88097350  0.14827450  0.21616050  1
  C  1259  1  0.85760800  0.14406300  0.20160350  1
  C  1260  1  0.82186150  0.13100950  0.20501700  1
  C  1261  1  0.80972750  0.12078550  0.22227400  1
  C  1277  1  0.86998950  0.14631650  0.18420050  1
  C  1278  1  0.80378550  0.05381850  0.30237600  1
  C  1409  1  0.18327500  0.46144700  0.87328200  1
  C  1410  1  0.19421050  0.49616350  0.86717900  1
  C  1411  1  0.20069400  0.52450000  0.87901450  1
  C  1412  1  0.19572300  0.51811700  0.89732250  1
  C  1413  1  0.18444350  0.48415450  0.90398200  1
  C  1414  1  0.17876300  0.45584700  0.89192500  1
  C  1417  1  0.17865850  0.43289150  0.86088200  1
  C  1418  1  0.15937850  0.43393850  0.84478950  1
  C  1419  1  0.15511200  0.40482400  0.83318050  1
  C  1420  1  0.17087350  0.37496650  0.83743050  1
  C  1421  1  0.18983950  0.37305750  0.85322250  1
  C  1422  1  0.19438750  0.40245350  0.86450300  1
  C  1433  1  0.29320450  0.95330250  0.87424100  1
  C  1434  1  0.28248900  0.91868600  0.86811950  1
  C  1435  1  0.27590145  0.89010845  0.87993350  1
  C  1436  1  0.28052045  0.89615545  0.89824700  1
  C  1437  1  0.29154700  0.93002300  0.90492750  1
  C  1438  1  0.29733850  0.95856750  0.89288500  1
  C  1441  1  0.29801150  0.98207050  0.86184650  1
  C  1442  1  0.31763050  0.98131450  0.84577450  1
  C  1443  1  0.32202200  0.01058200  0.83414150  1
  C  1444  1  0.30604250  0.04030150  0.83834100  1
  C  1445  1  0.28671600  0.04191900  0.85410750  1
  C  1446  1  0.28208250  0.01238150  0.86542400  1
  C  1457  1  0.49098600  0.14665000  0.62370950  1
  C  1458  1  0.52563750  0.15799350  0.62992150  1
  C  1459  1  0.55451150  0.16470250  0.61818650  1
  C  1460  1  0.54881550  0.15967450  0.59987750  1
  C  1461  1  0.51490950  0.14802650  0.59310950  1
  C  1462  1  0.48602350  0.14201850  0.60506900  1
  C  1465  1  0.46182900  0.14248100  0.63598800  1
  C  1466  1  0.46235600  0.12416900  0.65243200  1
  C  1467  1  0.43330350  0.12194450  0.66431050  1
  C  1468  1  0.40308950  0.13672650  0.65938900  1
  C  1469  1  0.40166100  0.15460800  0.64321600  1
  C  1470  1  0.43154100  0.15836600  0.63200600  1
  C  1481  1  0.98394550  0.26700850  0.62438850  1
  C  1482  1  0.94918450  0.25615250  0.63075350  1
  C  1483  1  0.92034495  0.24976595  0.61911100  1
  C  1484  1  0.92617495  0.25466795  0.60076500  1
  C  1485  1  0.96018750  0.26588950  0.59385500  1
  C  1486  1  0.98904500  0.27154300  0.60571350  1
  C  1489  1  0.01308650  0.27069050  0.63654500  1
  C  1490  1  0.01299950  0.28927350  0.65285900  1
  C  1491  1  0.04209500  0.29114100  0.66458000  1
  C  1492  1  0.07191700  0.27569500  0.65960400  1
  C  1493  1  0.07286900  0.25743900  0.64357650  1
  C  1494  1  0.04292000  0.25408300  0.63254650  1
  C  1505  1  0.29253950  0.95224250  0.12429250  1
  C  1506  1  0.28122750  0.91720350  0.12980800  1
  C  1507  1  0.27528595  0.88954795  0.11751850  1
  C  1508  1  0.28082795  0.89707995  0.09932900  1
  C  1509  1  0.29144050  0.93156450  0.09328400  1
  C  1510  1  0.29795600  0.95896600  0.10579600  1
  C  1513  1  0.29661150  0.98015150  0.13704600  1
  C  1514  1  0.31566850  0.97861250  0.15316700  1
  C  1515  1  0.31969400  0.00737200  0.16500550  1
  C  1516  1  0.30383100  0.03727900  0.16096800  1
  C  1517  1  0.28500400  0.03961400  0.14516550  1
  C  1518  1  0.28073250  0.01058750  0.13364700  1
  C  1529  1  0.18150200  0.45926300  0.12333450  1
  C  1530  1  0.19286050  0.49417050  0.12885900  1
  C  1531  1  0.19907600  0.52205200  0.11658400  1
  C  1532  1  0.19378850  0.51487650  0.09839350  1
  C  1533  1  0.18315100  0.48052000  0.09233700  1
  C  1534  1  0.17635500  0.45289400  0.10483950  1
  C  1537  1  0.17707050  0.43114350  0.13608650  1
  C  1538  1  0.15776800  0.43254600  0.15220650  1
  C  1539  1  0.15346500  0.40364500  0.16407700  1
  C  1540  1  0.16930700  0.37373200  0.16008100  1
  C  1541  1  0.18839200  0.37153500  0.14428450  1
  C  1542  1  0.19289800  0.40068700  0.13271750  1
  C  1553  1  0.98476100  0.26749600  0.37451300  1
  C  1554  1  0.94975350  0.25571950  0.36893200  1
  C  1555  1  0.92159295  0.24959095  0.38115050  1
  C  1556  1  0.92851395  0.25532195  0.39933200  1
  C  1557  1  0.96298750  0.26640250  0.40543750  1
  C  1558  1  0.99092900  0.27314400  0.39299350  1
  C  1561  1  0.01323600  0.27104300  0.36186200  1
  C  1562  1  0.01214300  0.28901500  0.34536050  1
  C  1563  1  0.04078850  0.29093250  0.33324100  1
  C  1564  1  0.07110050  0.27609650  0.33796450  1
  C  1565  1  0.07300850  0.25843750  0.35416850  1
  C  1566  1  0.04352850  0.25502450  0.36563350  1
  C  1577  1  0.49045550  0.14547650  0.37382450  1
  C  1578  1  0.52553100  0.15708600  0.36811500  1
  C  1579  1  0.55360100  0.16307500  0.38026550  1
  C  1580  1  0.54655200  0.15731600  0.39847800  1
  C  1581  1  0.51201700  0.14635800  0.40469850  1
  C  1582  1  0.48414400  0.13979600  0.39233900  1
  C  1585  1  0.46202300  0.14224100  0.36127950  1
  C  1586  1  0.46284850  0.12409750  0.34487950  1
  C  1587  1  0.43416450  0.12236650  0.33290400  1
  C  1588  1  0.40408600  0.13759700  0.33769250  1
  C  1589  1  0.40247950  0.15551550  0.35378050  1
  C  1590  1  0.43200900  0.15870100  0.36508400  1
  C  1793  1  0.19607500  0.47604500  0.04480500  1
  C  1794  1  0.22468150  0.47831750  0.03273950  1
  C  1795  1  0.21959000  0.47786300  0.01416050  1
  C  1796  1  0.18483450  0.47468150  0.00733550  1
  C  1797  1  0.15564600  0.47142700  0.01916950  1
  C  1798  1  0.16162150  0.47198650  0.03770350  1
  C  1800  1  0.17964250  0.47905350  0.98876900  1
  C  1801  1  0.17881950  0.45041750  0.97694800  1
  C  1802  1  0.17487900  0.45599100  0.95850700  1
  C  1803  1  0.17173950  0.48949350  0.95156450  1
  C  1804  1  0.17265550  0.51759450  0.96360050  1
  C  1805  1  0.17672400  0.51291400  0.98204350  1
  C  1821  1  0.16869100  0.49605400  0.93351400  1
  C  1822  1  0.20270150  0.48057950  0.06289100  1
  C  1825  1  0.27879150  0.93691750  0.04580250  1
  C  1826  1  0.25024745  0.93509145  0.03383400  1
  C  1827  1  0.25539445  0.93566045  0.01523650  1
  C  1828  1  0.29015200  0.93850100  0.00829500  1
  C  1829  1  0.31929150  0.94131850  0.02002800  1
  C  1830  1  0.31325800  0.94065300  0.03858300  1
  C  1832  1  0.29535150  0.93421150  0.98971950  1
  C  1833  1  0.29666400  0.96300100  0.97784900  1
  C  1834  1  0.30069400  0.95754100  0.95941050  1
  C  1835  1  0.30345200  0.92400300  0.95252150  1
  C  1836  1  0.30202800  0.89574300  0.96460350  1
  C  1837  1  0.29785800  0.90031100  0.98304600  1
  C  1853  1  0.30669550  0.91759050  0.93448200  1
  C  1854  1  0.27206650  0.93220550  0.06391350  1
  C  1857  1  0.50709000  0.15977200  0.45212600  1
  C  1858  1  0.50922150  0.18834150  0.46396650  1
  C  1859  1  0.50903450  0.18359150  0.48258500  1
  C  1860  1  0.50626900  0.14922200  0.48968600  1
  C  1861  1  0.50316500  0.12006900  0.47809350  1
  C  1862  1  0.50345750  0.12569850  0.45951350  1
  C  1864  1  0.51083850  0.14438650  0.50826800  1
  C  1865  1  0.48193600  0.14299900  0.52020050  1
  C  1866  1  0.48764400  0.13919100  0.53863250  1
  C  1867  1  0.52153950  0.13673350  0.54546350  1
  C  1868  1  0.54990550  0.13825250  0.53331200  1
  C  1869  1  0.54509650  0.14219050  0.51487200  1
  C  1885  1  0.52820600  0.13375700  0.56350400  1
  C  1886  1  0.51132200  0.16610300  0.43395800  1
  C  1889  1  0.96783250  0.25317950  0.45291500  1
  C  1890  1  0.96593995  0.22467395  0.46490300  1
  C  1891  1  0.96619895  0.22950495  0.48349850  1
  C  1892  1  0.96879150  0.26389550  0.49041850  1
  C  1893  1  0.97164850  0.29298850  0.47867100  1
  C  1894  1  0.97129250  0.28727850  0.46012000  1
  C  1896  1  0.96427350  0.26879750  0.50899600  1
  C  1897  1  0.99327900  0.27060100  0.52077500  1
  C  1898  1  0.98764900  0.27461200  0.53920750  1
  C  1899  1  0.95373550  0.27689050  0.54618000  1
  C  1900  1  0.92526050  0.27492750  0.53418650  1
  C  1901  1  0.92999200  0.27076800  0.51575300  1
  C  1917  1  0.94716550  0.28017050  0.56422000  1
  C  1918  1  0.96359150  0.24675950  0.43479550  1
  C  2049  1  0.21700600  0.29437700  0.87118250  1
  C  2050  1  0.19998050  0.26889950  0.88298850  1
  C  2051  1  0.20770700  0.23411200  0.88301200  1
  C  2052  1  0.23336650  0.22467550  0.87101750  1
  C  2053  1  0.25096000  0.24999700  0.85913300  1
  C  2054  1  0.24246250  0.28453450  0.85932850  1
  C  2056  1  0.24170550  0.18982450  0.87110300  1
  C  2057  1  0.22562650  0.16497750  0.85872150  1
  C  2058  1  0.23402950  0.13041050  0.85911000  1
  C  2059  1  0.25793500  0.12006600  0.87162600  1
  C  2060  1  0.27345950  0.14508450  0.88391150  1
  C  2061  1  0.26576950  0.17988650  0.88377650  1
  C  2077  1  0.26687100  0.08650500  0.87188600  1
  C  2078  1  0.20797650  0.32789050  0.87124050  1
  C  2081  1  0.32375350  0.18273050  0.62465550  1
  C  2082  1  0.29801900  0.16625800  0.61292600  1
  C  2083  1  0.26325000  0.17466100  0.61286550  1
  C  2084  1  0.25417150  0.20042750  0.62473900  1
  C  2085  1  0.27978900  0.21754700  0.63650450  1
  C  2086  1  0.31428700  0.20840200  0.63633900  1
  C  2088  1  0.21929850  0.20920450  0.62478050  1
  C  2089  1  0.19419450  0.19350650  0.63734600  1
  C  2090  1  0.15972750  0.20273350  0.63727900  1
  C  2091  1  0.14979600  0.22712400  0.62492850  1
  C  2092  1  0.17502350  0.24217050  0.61241600  1
  C  2093  1  0.20974250  0.23363550  0.61222050  1
  C  2109  1  0.11645200  0.23703300  0.62510400  1
  C  2110  1  0.35713800  0.17294400  0.62476500  1
  C  2113  1  0.25809200  0.11870200  0.12750700  1
  C  2114  1  0.27498150  0.14429250  0.11571900  1
  C  2115  1  0.26707350  0.17901350  0.11573100  1
  C  2116  1  0.24136450  0.18827050  0.12774750  1
  C  2117  1  0.22391850  0.16284550  0.13962150  1
  C  2118  1  0.23259450  0.12837350  0.13938800  1
  C  2120  1  0.23280600  0.22303700  0.12767100  1
  C  2121  1  0.24889600  0.24800900  0.13998950  1
  C  2122  1  0.24037350  0.28253250  0.13955850  1
  C  2123  1  0.21634200  0.29271300  0.12706200  1
  C  2124  1  0.20078550  0.26755450  0.11485050  1
  C  2125  1  0.20859550  0.23279750  0.11502550  1
  C  2141  1  0.20739050  0.32627250  0.12670350  1
  C  2142  1  0.26723050  0.08522750  0.12735700  1
  C  2145  1  0.15131100  0.23049300  0.37242400  1
  C  2146  1  0.17717350  0.24677050  0.38414300  1
  C  2147  1  0.21184400  0.23811000  0.38417200  1
  C  2148  1  0.22068800  0.21228000  0.37227300  1
  C  2149  1  0.19494800  0.19536200  0.36051200  1
  C  2150  1  0.16055250  0.20475950  0.36071150  1
  C  2152  1  0.25544500  0.20322500  0.37222000  1
  C  2153  1  0.28069100  0.21890800  0.35971950  1
  C  2154  1  0.31508650  0.20950750  0.35982150  1
  C  2155  1  0.32481000  0.18495600  0.37214350  1
  C  2156  1  0.29942650  0.16990550  0.38458200  1
  C  2157  1  0.26477750  0.17861850  0.38474450  1
  C  2173  1  0.35813900  0.17499400  0.37206600  1
  C  2174  1  0.11799150  0.24044850  0.37240550  1
  C  2305  1  0.23908295  0.79929995  0.87378000  1
  C  2306  1  0.21395900  0.77474300  0.88260250  1
  C  2307  1  0.21301500  0.73824900  0.88038850  1
  C  2308  1  0.23755300  0.72565600  0.86877250  1
  C  2309  1  0.26228796  0.74975996  0.85931150  1
  C  2310  1  0.26261595  0.78618495  0.86186350  1
  C  2312  1  0.24002350  0.68907450  0.86864400  1
  C  2313  1  0.21573250  0.66544850  0.85885550  1
  C  2314  1  0.21530350  0.62890350  0.86113250  1
  C  2315  1  0.23830500  0.61520300  0.87308600  1
  C  2316  1  0.26302000  0.63931100  0.88223900  1
  C  2317  1  0.26404500  0.67590600  0.88030750  1
  C  2333  1  0.23527500  0.57972400  0.87750000  1
  C  2334  1  0.24190545  0.83456845  0.87845850  1
  C  2369  1  0.83037895  0.20970995  0.62606000  1
  C  2370  1  0.80667800  0.18434200  0.61708550  1
  C  2371  1  0.76972600  0.18250200  0.61896400  1
  C  2372  1  0.75583600  0.20636100  0.63038500  1
  C  2373  1  0.77906196  0.23127496  0.64002050  1
  C  2374  1  0.81597245  0.23250345  0.63780900  1
  C  2376  1  0.71885950  0.20798550  0.63013000  1
  C  2377  1  0.69506850  0.18345450  0.63986400  1
  C  2378  1  0.65830350  0.18215150  0.63720750  1
  C  2379  1  0.64459350  0.20448250  0.62491800  1
  C  2380  1  0.66882500  0.22947000  0.61583150  1
  C  2381  1  0.70565150  0.23137850  0.61815000  1
  C  2397  1  0.60906950  0.20063350  0.62020900  1
  C  2398  1  0.86613795  0.21348495  0.62167500  1
  C  2433  1  0.23560600  0.61348500  0.12122700  1
  C  2434  1  0.26061300  0.63773300  0.11214450  1
  C  2435  1  0.26203550  0.67429450  0.11429950  1
  C  2436  1  0.23810200  0.68730100  0.12611300  1
  C  2437  1  0.21346450  0.66351150  0.13580550  1
  C  2438  1  0.21264600  0.62700600  0.13330500  1
  C  2440  1  0.23616600  0.72400200  0.12628700  1
  C  2441  1  0.26109396  0.74737296  0.13586350  1
  C  2442  1  0.26189695  0.78398195  0.13364700  1
  C  2443  1  0.23863595  0.79802395  0.12196300  1
  C  2444  1  0.21333300  0.77416700  0.11300900  1
  C  2445  1  0.21191850  0.73751650  0.11488750  1
  C  2461  1  0.24187745  0.83357245  0.11762800  1
  C  2462  1  0.23239550  0.57809950  0.11671050  1
  C  2497  1  0.64430450  0.20296550  0.37510300  1
  C  2498  1  0.66767150  0.22819050  0.38435250  1
  C  2499  1  0.70467850  0.23057450  0.38250500  1
  C  2500  1  0.71899100  0.20742300  0.37084200  1
  C  2501  1  0.69610950  0.18264050  0.36095850  1
  C  2502  1  0.65913200  0.18085400  0.36314600  1
  C  2504  1  0.75608500  0.20638600  0.37102050  1
  C  2505  1  0.77953646  0.23163546  0.36152050  1
  C  2506  1  0.81637195  0.23335995  0.36409950  1
  C  2507  1  0.83050695  0.21073995  0.37608250  1
  C  2508  1  0.80660450  0.18508450  0.38494400  1
  C  2509  1  0.76971900  0.18273600  0.38269750  1
  C  2525  1  0.86610445  0.21484545  0.38070850  1
  C  2526  1  0.60845150  0.19872850  0.37934800  1
  C  2561  1  0.04958600  0.31074500  0.71143900  1
  C  2562  1  0.05969700  0.29272400  0.72652500  1
  C  2563  1  0.06774650  0.30974050  0.74286550  1
  C  2564  1  0.06537700  0.34598200  0.74436700  1
  C  2565  1  0.05499500  0.36465200  0.72949450  1
  C  2566  1  0.04723950  0.34683050  0.71324550  1
  C  2568  1  0.07498700  0.36314300  0.76074750  1
  C  2569  1  0.11069250  0.37740350  0.76373300  1
  C  2570  1  0.12175050  0.38740650  0.78110200  1
  C  2571  1  0.09815350  0.38316150  0.79566900  1
  C  2572  1  0.06244800  0.37018300  0.79229000  1
  C  2573  1  0.05057450  0.36005650  0.77506300  1
  C  2589  1  0.11024750  0.38536850  0.81306900  1
  C  2590  1  0.04454550  0.29275750  0.69541900  1
  C  2593  1  0.42719000  0.10360800  0.71138950  1
  C  2594  1  0.41734150  0.12198450  0.72637900  1
  C  2595  1  0.40952600  0.10533600  0.74292550  1
  C  2596  1  0.41189950  0.06912850  0.74474000  1
  C  2597  1  0.42205800  0.05011900  0.72997150  1
  C  2598  1  0.42958000  0.06757300  0.71351100  1
  C  2600  1  0.40230450  0.05227450  0.76129650  1
  C  2601  1  0.36664550  0.03783650  0.76445800  1
  C  2602  1  0.35555650  0.02801250  0.78192250  1
  C  2603  1  0.37907400  0.03261000  0.79640800  1
  C  2604  1  0.41473550  0.04579150  0.79286750  1
  C  2605  1  0.42664250  0.05574150  0.77554100  1
  C  2621  1  0.36688850  0.03045150  0.81384300  1
  C  2622  1  0.43188650  0.12118950  0.69516050  1
  C  2625  1  0.42719650  0.10247250  0.28606450  1
  C  2626  1  0.41719000  0.12034000  0.27090400  1
  C  2627  1  0.40896700  0.10309900  0.25463750  1
  C  2628  1  0.41107150  0.06678150  0.25328300  1
  C  2629  1  0.42140200  0.04827200  0.26822350  1
  C  2630  1  0.42932450  0.06631750  0.28439750  1
  C  2632  1  0.40113650  0.04936450  0.23700600  1
  C  2633  1  0.36533700  0.03522800  0.23419500  1
  C  2634  1  0.35397450  0.02494250  0.21690750  1
  C  2635  1  0.37736100  0.02877800  0.20225050  1
  C  2636  1  0.41315900  0.04163800  0.20546200  1
  C  2637  1  0.42533450  0.05204550  0.22260350  1
  C  2653  1  0.36499450  0.02642250  0.18489800  1
  C  2654  1  0.43211100  0.12062100  0.30204600  1
  C  2657  1  0.04660050  0.30979750  0.28620950  1
  C  2658  1  0.05646500  0.29165500  0.27114450  1
  C  2659  1  0.06445400  0.30859100  0.25468350  1
  C  2660  1  0.06223600  0.34486300  0.25303600  1
  C  2661  1  0.05202900  0.36363600  0.26787750  1
  C  2662  1  0.04433750  0.34589350  0.28424900  1
  C  2664  1  0.07207750  0.36201650  0.23658200  1
  C  2665  1  0.10781600  0.37634300  0.23355800  1
  C  2666  1  0.11913450  0.38643550  0.21616050  1
  C  2667  1  0.09576900  0.38222400  0.20160350  1
  C  2668  1  0.06002250  0.36917050  0.20501700  1
  C  2669  1  0.04788850  0.35894650  0.22227400  1
  C  2685  1  0.10815050  0.38447750  0.18420050  1
  C  2686  1  0.04194650  0.29197950  0.30237600  1
  H  7  1  0.96036050  0.26285450  0.85394400  1
  H  8  1  0.96221650  0.30051150  0.90594900  1
  H  15  1  0.92976100  0.11582900  0.82898400  1
  H  16  1  0.97149800  0.16336500  0.87554000  1
  H  19  1  0.94637600  0.17673100  0.90515800  1
  H  20  1  0.91585050  0.23580850  0.83085750  1
  H  31  1  0.04028100  0.67591700  0.85488000  1
  H  32  1  0.03765050  0.63726450  0.90686000  1
  H  39  1  0.07086250  0.82319750  0.82985400  1
  H  40  1  0.02839450  0.77491050  0.87643900  1
  H  43  1  0.05296050  0.76108950  0.90610250  1
  H  44  1  0.08525050  0.70334750  0.83188300  1
  H  55  1  0.29185650  0.92442450  0.64313950  1
  H  56  1  0.33162950  0.92655750  0.59134350  1
  H  63  1  0.14349800  0.89602300  0.66773000  1
  H  64  1  0.19289350  0.93494950  0.62073850  1
  H  67  1  0.20694550  0.90909750  0.59156950  1
  H  68  1  0.26425100  0.88107400  0.66656300  1
  H  79  1  0.70653900  0.01347100  0.64400400  1
  H  80  1  0.66705500  0.01160700  0.59230750  1
  H  87  1  0.85526000  0.03985200  0.66780150  1
  H  88  1  0.80486300  0.00099400  0.62137850  1
  H  91  1  0.79169550  0.02744550  0.59214700  1
  H  92  1  0.73498700  0.05685300  0.66709400  1
  H  103  1  0.03836900  0.67344000  0.14294950  1
  H  104  1  0.03935700  0.63890700  0.09032950  1
  H  111  1  0.06853850  0.81986850  0.16955700  1
  H  112  1  0.02752650  0.77367250  0.12255000  1
  H  115  1  0.05505250  0.76266850  0.09307350  1
  H  116  1  0.08260600  0.69987000  0.16668950  1
  H  127  1  0.95920500  0.26135300  0.14200250  1
  H  128  1  0.95910600  0.29689900  0.08940450  1
  H  135  1  0.92815050  0.11475350  0.16871850  1
  H  136  1  0.96997650  0.16139850  0.12162800  1
  H  139  1  0.94301250  0.17304850  0.09212400  1
  H  140  1  0.91444500  0.23483200  0.16569250  1
  H  151  1  0.70641350  0.01249050  0.35581800  1
  H  152  1  0.66993650  0.01348850  0.40826900  1
  H  159  1  0.85412900  0.04034100  0.32946950  1
  H  160  1  0.80620400  0.00240700  0.37697850  1
  H  163  1  0.79463700  0.03082500  0.40596650  1
  H  164  1  0.73329750  0.05539950  0.33166700  1
  H  175  1  0.29264850  0.92402250  0.35497300  1
  H  176  1  0.32875000  0.92280900  0.40735900  1
  H  183  1  0.14467500  0.89713800  0.32932900  1
  H  184  1  0.19324900  0.93511000  0.37635350  1
  H  187  1  0.20409400  0.90608000  0.40537650  1
  H  188  1  0.26528550  0.88097550  0.33108400  1
  H  391  1  0.90215500  0.23254500  0.04603450  1
  H  398  1  0.93617450  0.19699450  0.95009800  1
  H  399  1  0.93276950  0.30412750  0.95895600  1
  H  400  1  0.01184350  0.24344050  0.03742350  1
  H  415  1  0.98899000  0.25195500  0.06658650  1
  H  416  1  0.91976000  0.27884200  0.92985300  1
  H  423  1  0.09635450  0.70343450  0.04684250  1
  H  430  1  0.06345950  0.74033150  0.95096600  1
  H  431  1  0.06531950  0.63286750  0.95999750  1
  H  432  1  0.98675150  0.69387950  0.03860550  1
  H  447  1  0.00939200  0.68463600  0.06769150  1
  H  448  1  0.07924750  0.65845250  0.93085300  1
  H  455  1  0.26411000  0.86626800  0.45135300  1
  H  462  1  0.22843750  0.90005450  0.54711700  1
  H  463  1  0.33671950  0.89885950  0.53786300  1
  H  464  1  0.27403850  0.97523950  0.45907600  1
  H  479  1  0.28190550  0.95234450  0.43000450  1
  H  480  1  0.31168500  0.88581500  0.56711550  1
  H  487  1  0.73414500  0.07033900  0.45185200  1
  H  494  1  0.77060300  0.03775300  0.54758400  1
  H  495  1  0.66211600  0.03786000  0.53885350  1
  H  496  1  0.72494150  0.96143750  0.46014600  1
  H  511  1  0.71676400  0.98416700  0.43099300  1
  H  512  1  0.68752350  0.05210150  0.56784050  1
  H  647  1  0.01708900  0.06451200  0.85071700  1
  H  654  1  0.98415750  0.87445550  0.85013950  1
  H  655  1  0.05293800  0.90007900  0.89301700  1
  H  656  1  0.94302250  0.03722450  0.89158750  1
  H  671  1  0.96461700  0.10048800  0.88275300  1
  H  672  1  0.03298700  0.83732800  0.88348100  1
  H  679  1  0.09447950  0.98263150  0.64488600  1
  H  686  1  0.90358450  0.95320750  0.64640300  1
  H  687  1  0.93028500  0.02196600  0.60342600  1
  H  688  1  0.06610000  0.90917700  0.60445100  1
  H  703  1  0.13001950  0.92930650  0.61333550  1
  H  704  1  0.86696700  0.00359900  0.61366300  1
  H  711  1  0.98172350  0.87198950  0.14798150  1
  H  718  1  0.01396900  0.06226400  0.14847000  1
  H  719  1  0.94490950  0.03611650  0.10575300  1
  H  720  1  0.05563050  0.89977350  0.10709150  1
  H  735  1  0.03456750  0.83658050  0.11581800  1
  H  736  1  0.96454750  0.09881350  0.11508150  1
  H  743  1  0.90393800  0.95432400  0.35217950  1
  H  750  1  0.09502100  0.98274100  0.35075950  1
  H  751  1  0.06769100  0.91369400  0.39356000  1
  H  752  1  0.93293650  0.02755350  0.39264750  1
  H  767  1  0.86908550  0.00808150  0.38386100  1
  H  768  1  0.13094950  0.93165250  0.38353700  1
  H  903  1  0.04318200  0.56501800  0.85536000  1
  H  910  1  0.95872750  0.37407250  0.85438950  1
  H  911  1  0.04154450  0.39221850  0.89122350  1
  H  912  1  0.95870000  0.54506900  0.89154500  1
  H  927  1  0.98643150  0.60349450  0.88716850  1
  H  928  1  0.01442250  0.33397150  0.88602600  1
  H  967  1  0.59420200  0.01316700  0.64443150  1
  H  974  1  0.40336700  0.92544700  0.64393200  1
  H  975  1  0.42172100  0.00753700  0.60663000  1
  H  976  1  0.57798250  0.92962250  0.60825500  1
  H  991  1  0.63638650  0.95752050  0.61376600  1
  H  992  1  0.36302200  0.97980100  0.61180450  1
  H  1031  1  0.95584400  0.37210000  0.13999800  1
  H  1038  1  0.04260850  0.56227150  0.14022600  1
  H  1039  1  0.95824350  0.54516750  0.10423100  1
  H  1040  1  0.03915650  0.39079650  0.10309200  1
  H  1055  1  0.01068950  0.33272750  0.10759400  1
  H  1056  1  0.98728550  0.60294550  0.10862250  1
  H  1095  1  0.40485600  0.92397400  0.35632150  1
  H  1102  1  0.59469850  0.01426450  0.35755750  1
  H  1103  1  0.57767700  0.93042200  0.39391250  1
  H  1104  1  0.41975350  0.00612750  0.39332200  1
  H  1119  1  0.36181850  0.97735450  0.38783650  1
  H  1120  1  0.63570250  0.96035050  0.38968750  1
  H  1159  1  0.80207500  0.12255900  0.70255950  1
  H  1166  1  0.90984300  0.15746600  0.78320200  1
  H  1167  1  0.80676750  0.12795050  0.80264300  1
  H  1168  1  0.82403600  0.02852700  0.72566200  1
  H  1183  1  0.80696750  0.02880550  0.69564900  1
  H  1184  1  0.86051850  0.12968650  0.82178250  1
  H  1191  1  0.19823850  0.81527450  0.70290400  1
  H  1198  1  0.09116500  0.78147400  0.78413550  1
  H  1199  1  0.19402800  0.81194500  0.80315550  1
  H  1200  1  0.17664250  0.90983250  0.72528800  1
  H  1215  1  0.19327000  0.90884400  0.69514500  1
  H  1216  1  0.14006350  0.80997950  0.82242350  1
  H  1223  1  0.19804950  0.81436250  0.29514300  1
  H  1230  1  0.08950200  0.77867900  0.21492500  1
  H  1231  1  0.19237000  0.80727600  0.19503750  1
  H  1232  1  0.17665600  0.90825800  0.27166850  1
  H  1247  1  0.19304300  0.90819600  0.30177300  1
  H  1248  1  0.13839050  0.80562450  0.17610700  1
  H  1255  1  0.79937650  0.12171450  0.29491750  1
  H  1262  1  0.90725650  0.15653350  0.21403900  1
  H  1263  1  0.80451100  0.12695000  0.19467450  1
  H  1264  1  0.82077350  0.02745350  0.27212150  1
  H  1279  1  0.80446250  0.02804150  0.30230900  1
  H  1280  1  0.85852350  0.12884550  0.17554650  1
  H  1415  1  0.19852150  0.50101550  0.85394400  1
  H  1416  1  0.20037750  0.53867250  0.90594900  1
  H  1423  1  0.16792200  0.35399000  0.82898400  1
  H  1424  1  0.20965900  0.40152600  0.87554000  1
  H  1427  1  0.18453700  0.41489200  0.90515800  1
  H  1428  1  0.15401150  0.47396950  0.83085750  1
  H  1439  1  0.27844195  0.91407795  0.85488000  1
  H  1440  1  0.27581145  0.87542545  0.90686000  1
  H  1447  1  0.30902350  0.06135850  0.82985400  1
  H  1448  1  0.26655550  0.01307150  0.87643900  1
  H  1451  1  0.29112150  0.99925050  0.90610250  1
  H  1452  1  0.32341150  0.94150850  0.83188300  1
  H  1463  1  0.53001750  0.16258550  0.64313950  1
  H  1464  1  0.56979050  0.16471850  0.59134350  1
  H  1471  1  0.38165900  0.13418400  0.66773000  1
  H  1472  1  0.43105450  0.17311050  0.62073850  1
  H  1475  1  0.44510650  0.14725850  0.59156950  1
  H  1476  1  0.50241200  0.11923500  0.66656300  1
  H  1487  1  0.94469995  0.25163195  0.64400400  1
  H  1488  1  0.90521595  0.24976795  0.59230750  1
  H  1495  1  0.09342100  0.27801300  0.66780150  1
  H  1496  1  0.04302400  0.23915500  0.62137850  1
  H  1499  1  0.02985650  0.26560650  0.59214700  1
  H  1500  1  0.97314800  0.29501400  0.66709400  1
  H  1511  1  0.27652995  0.91160095  0.14294950  1
  H  1512  1  0.27751795  0.87706795  0.09032950  1
  H  1519  1  0.30669950  0.05802950  0.16955700  1
  H  1520  1  0.26568750  0.01183350  0.12255000  1
  H  1523  1  0.29321350  0.00082950  0.09307350  1
  H  1524  1  0.32076700  0.93803100  0.16668950  1
  H  1535  1  0.19736600  0.49951400  0.14200250  1
  H  1536  1  0.19726700  0.53506000  0.08940450  1
  H  1543  1  0.16631150  0.35291450  0.16871850  1
  H  1544  1  0.20813750  0.39955950  0.12162800  1
  H  1547  1  0.18117350  0.41120950  0.09212400  1
  H  1548  1  0.15260600  0.47299300  0.16569250  1
  H  1559  1  0.94457445  0.25065145  0.35581800  1
  H  1560  1  0.90809745  0.25164945  0.40826900  1
  H  1567  1  0.09229000  0.27850200  0.32946950  1
  H  1568  1  0.04436500  0.24056800  0.37697850  1
  H  1571  1  0.03279800  0.26898600  0.40596650  1
  H  1572  1  0.97145850  0.29356050  0.33166700  1
  H  1583  1  0.53080950  0.16218350  0.35497300  1
  H  1584  1  0.56691100  0.16097000  0.40735900  1
  H  1591  1  0.38283600  0.13529900  0.32932900  1
  H  1592  1  0.43141000  0.17327100  0.37635350  1
  H  1595  1  0.44225500  0.14424100  0.40537650  1
  H  1596  1  0.50344650  0.11913650  0.33108400  1
  H  1799  1  0.14031600  0.47070600  0.04603450  1
  H  1806  1  0.17433550  0.43515550  0.95009800  1
  H  1807  1  0.17093050  0.54228850  0.95895600  1
  H  1808  1  0.25000450  0.48160150  0.03742350  1
  H  1823  1  0.22715100  0.49011600  0.06658650  1
  H  1824  1  0.15792100  0.51700300  0.92985300  1
  H  1831  1  0.33451550  0.94159550  0.04684250  1
  H  1838  1  0.30162050  0.97849250  0.95096600  1
  H  1839  1  0.30348045  0.87102845  0.95999750  1
  H  1840  1  0.22491245  0.93204045  0.03860550  1
  H  1855  1  0.24755295  0.92279695  0.06769150  1
  H  1856  1  0.31740850  0.89661350  0.93085300  1
  H  1863  1  0.50227100  0.10442900  0.45135300  1
  H  1870  1  0.46659850  0.13821550  0.54711700  1
  H  1871  1  0.57488050  0.13702050  0.53786300  1
  H  1872  1  0.51219950  0.21340050  0.45907600  1
  H  1887  1  0.52006650  0.19050550  0.43000450  1
  H  1888  1  0.54984600  0.12397600  0.56711550  1
  H  1895  1  0.97230600  0.30850000  0.45185200  1
  H  1902  1  0.00876400  0.27591400  0.54758400  1
  H  1903  1  0.90027695  0.27602095  0.53885350  1
  H  1904  1  0.96310245  0.19959845  0.46014600  1
  H  1919  1  0.95492495  0.22232795  0.43099300  1
  H  1920  1  0.92568450  0.29026250  0.56784050  1
  H  2055  1  0.25525000  0.30267300  0.85071700  1
  H  2062  1  0.22231850  0.11261650  0.85013950  1
  H  2063  1  0.29109900  0.13824000  0.89301700  1
  H  2064  1  0.18118350  0.27538550  0.89158750  1
  H  2079  1  0.20277800  0.33864900  0.88275300  1
  H  2080  1  0.27114800  0.07548900  0.88348100  1
  H  2087  1  0.33264050  0.22079250  0.64488600  1
  H  2094  1  0.14174550  0.19136850  0.64640300  1
  H  2095  1  0.16844600  0.26012700  0.60342600  1
  H  2096  1  0.30426100  0.14733800  0.60445100  1
  H  2111  1  0.36818050  0.16746750  0.61333550  1
  H  2112  1  0.10512800  0.24176000  0.61366300  1
  H  2119  1  0.21988450  0.11015050  0.14798150  1
  H  2126  1  0.25213000  0.30042500  0.14847000  1
  H  2127  1  0.18307050  0.27427750  0.10575300  1
  H  2128  1  0.29379150  0.13793450  0.10709150  1
  H  2143  1  0.27272850  0.07474150  0.11581800  1
  H  2144  1  0.20270850  0.33697450  0.11508150  1
  H  2151  1  0.14209900  0.19248500  0.35217950  1
  H  2158  1  0.33318200  0.22090200  0.35075950  1
  H  2159  1  0.30585200  0.15185500  0.39356000  1
  H  2160  1  0.17109750  0.26571450  0.39264750  1
  H  2175  1  0.10724650  0.24624250  0.38386100  1
  H  2176  1  0.36911050  0.16981350  0.38353700  1
  H  2311  1  0.28134295  0.80317895  0.85536000  1
  H  2318  1  0.19688850  0.61223350  0.85438950  1
  H  2319  1  0.27970550  0.63037950  0.89122350  1
  H  2320  1  0.19686100  0.78323000  0.89154500  1
  H  2335  1  0.22459245  0.84165545  0.88716850  1
  H  2336  1  0.25258350  0.57213250  0.88602600  1
  H  2375  1  0.83236295  0.25132795  0.64443150  1
  H  2382  1  0.64152800  0.16360800  0.64393200  1
  H  2383  1  0.65988200  0.24569800  0.60663000  1
  H  2384  1  0.81614350  0.16778350  0.60825500  1
  H  2399  1  0.87454745  0.19568145  0.61376600  1
  H  2400  1  0.60118300  0.21796200  0.61180450  1
  H  2439  1  0.19400500  0.61026100  0.13999800  1
  H  2446  1  0.28076945  0.80043245  0.14022600  1
  H  2447  1  0.19640450  0.78332850  0.10423100  1
  H  2448  1  0.27731750  0.62895750  0.10309200  1
  H  2463  1  0.24885050  0.57088850  0.10759400  1
  H  2464  1  0.22544645  0.84110645  0.10862250  1
  H  2503  1  0.64301700  0.16213500  0.35632150  1
  H  2510  1  0.83285945  0.25242545  0.35755750  1
  H  2511  1  0.81583800  0.16858300  0.39391250  1
  H  2512  1  0.65791450  0.24428850  0.39332200  1
  H  2527  1  0.59997950  0.21551550  0.38783650  1
  H  2528  1  0.87386345  0.19851145  0.38968750  1
  H  2567  1  0.04023600  0.36072000  0.70255950  1
  H  2574  1  0.14800400  0.39562700  0.78320200  1
  H  2575  1  0.04492850  0.36611150  0.80264300  1
  H  2576  1  0.06219700  0.26668800  0.72566200  1
  H  2591  1  0.04512850  0.26696650  0.69564900  1
  H  2592  1  0.09867950  0.36784750  0.82178250  1
  H  2599  1  0.43639950  0.05343550  0.70290400  1
  H  2606  1  0.32932600  0.01963500  0.78413550  1
  H  2607  1  0.43218900  0.05010600  0.80315550  1
  H  2608  1  0.41480350  0.14799350  0.72528800  1
  H  2623  1  0.43143100  0.14700500  0.69514500  1
  H  2624  1  0.37822450  0.04814050  0.82242350  1
  H  2631  1  0.43621050  0.05252350  0.29514300  1
  H  2638  1  0.32766300  0.01684000  0.21492500  1
  H  2639  1  0.43053100  0.04543700  0.19503750  1
  H  2640  1  0.41481700  0.14641900  0.27166850  1
  H  2655  1  0.43120400  0.14635700  0.30177300  1
  H  2656  1  0.37655150  0.04378550  0.17610700  1
  H  2663  1  0.03753750  0.35987550  0.29491750  1
  H  2670  1  0.14541750  0.39469450  0.21403900  1
  H  2671  1  0.04267200  0.36511100  0.19467450  1
  H  2672  1  0.05893450  0.26561450  0.27212150  1
  H  2687  1  0.04262350  0.26620250  0.30230900  1
  H  2688  1  0.09668450  0.36700650  0.17554650  1
  N  21  1  0.96345300  0.10475200  0.85659850  1
  N  22  1  0.90042600  0.16713100  0.81768300  1
  N  23  1  0.94403950  0.24021050  0.92146500  1
  N  24  1  0.97036150  0.31913850  0.87316100  1
  N  45  1  0.03645400  0.83375200  0.85737700  1
  N  46  1  0.10055550  0.77210050  0.81862700  1
  N  47  1  0.05535800  0.69736100  0.92240900  1
  N  48  1  0.03017400  0.61928500  0.87400100  1
  N  69  1  0.13351600  0.92848100  0.63953600  1
  N  70  1  0.19500350  0.86774050  0.68003450  1
  N  71  1  0.27137300  0.90776300  0.57561700  1
  N  72  1  0.34902400  0.93504700  0.62419700  1
  N  93  1  0.86437500  0.00662700  0.63983600  1
  N  94  1  0.80450350  0.06942450  0.68015550  1
  N  95  1  0.72747350  0.02964350  0.57633450  1
  N  96  1  0.64938850  0.00328450  0.62513200  1
  N  117  1  0.03508500  0.83168000  0.14194950  1
  N  118  1  0.09823050  0.76857450  0.18044500  1
  N  119  1  0.05782700  0.69954500  0.07595700  1
  N  120  1  0.02932950  0.61825850  0.12293600  1
  N  141  1  0.96211900  0.10320400  0.14117800  1
  N  142  1  0.89852150  0.16609950  0.17955050  1
  N  143  1  0.94060050  0.23650950  0.07501650  1
  N  144  1  0.96868050  0.31688050  0.12205900  1
  N  165  1  0.86491150  0.00824350  0.35768700  1
  N  166  1  0.80248400  0.06890500  0.31755350  1
  N  167  1  0.73050700  0.03263800  0.42276900  1
  N  168  1  0.65039450  0.00289350  0.37560650  1
  N  189  1  0.13444850  0.92977350  0.35736150  1
  N  190  1  0.19584900  0.86776400  0.31734150  1
  N  191  1  0.26807600  0.90385300  0.42206450  1
  N  192  1  0.34857450  0.93355050  0.37474150  1
  N  401  1  0.94032800  0.30349400  0.99382650  1
  N  402  1  0.94393750  0.17867850  0.98383400  1
  N  403  1  0.01051150  0.24352850  0.00229000  1
  N  404  1  0.88288700  0.23035800  0.01221700  1
  N  433  1  0.05745150  0.63326850  0.99488250  1
  N  434  1  0.05563150  0.75845950  0.98468600  1
  N  435  1  0.98819850  0.69411250  0.00346650  1
  N  436  1  0.11572400  0.70572500  0.01295850  1
  N  465  1  0.33591450  0.90631850  0.50296350  1
  N  466  1  0.20980050  0.90743550  0.51343200  1
  N  467  1  0.27453950  0.97447750  0.49421650  1
  N  468  1  0.26251850  0.84770050  0.48532350  1
  N  497  1  0.66276050  0.02990550  0.50400600  1
  N  498  1  0.78911450  0.03007050  0.51385550  1
  N  499  1  0.72462950  0.96235750  0.49528900  1
  N  500  1  0.73578900  0.08905300  0.48572350  1
  N  657  1  0.04378050  0.96681950  0.89597100  1
  N  658  1  0.96317850  0.93695350  0.84625900  1
  N  659  1  0.95184800  0.97038300  0.89468850  1
  N  660  1  0.03864300  0.00218400  0.84735300  1
  N  689  1  0.99697650  0.01118550  0.59983800  1
  N  690  1  0.96582300  0.93070100  0.64969250  1
  N  691  1  0.99918050  0.91937250  0.60129750  1
  N  692  1  0.03230700  0.00533800  0.64816250  1
  N  721  1  0.95427300  0.96942500  0.10288600  1
  N  722  1  0.03516500  0.99988100  0.15242050  1
  N  723  1  0.04645250  0.96652150  0.10405700  1
  N  724  1  0.95986450  0.93416650  0.15142250  1
  N  753  1  0.00108800  0.92478600  0.39707250  1
  N  754  1  0.03295400  0.00557000  0.34741050  1
  N  755  1  0.99970900  0.01686000  0.39574450  1
  N  756  1  0.96588600  0.93118300  0.34883200  1
  N  913  1  0.04951900  0.46132000  0.89045050  1
  N  914  1  0.95359050  0.44074450  0.84733000  1
  N  915  1  0.95075900  0.47601600  0.89020750  1
  N  916  1  0.04863000  0.49871600  0.84783600  1
  N  977  1  0.49131800  0.01713200  0.60810250  1
  N  978  1  0.47044350  0.92195850  0.65170600  1
  N  979  1  0.50832250  0.92003350  0.60900450  1
  N  980  1  0.52668550  0.01689850  0.65130300  1
  N  1041  1  0.94946550  0.47604250  0.10494950  1
  N  1042  1  0.04713950  0.49542650  0.14712750  1
  N  1043  1  0.04786700  0.45987900  0.10425400  1
  N  1044  1  0.95140450  0.43863250  0.14748200  1
  N  1105  1  0.50807500  0.91992400  0.39251850  1
  N  1106  1  0.52742650  0.01706250  0.34997950  1
  N  1107  1  0.48940850  0.01658750  0.39270700  1
  N  1108  1  0.47257750  0.92140450  0.34942600  1
  N  1169  1  0.77691650  0.10722750  0.77202150  1
  N  1170  1  0.89694200  0.14142500  0.74946200  1
  N  1171  1  0.84068600  0.05301900  0.75760500  1
  N  1172  1  0.81479800  0.16268100  0.73118150  1
  N  1201  1  0.22393500  0.83239900  0.77231250  1
  N  1202  1  0.10413200  0.79712800  0.75025400  1
  N  1203  1  0.16043050  0.88605550  0.75756000  1
  N  1204  1  0.18592450  0.77579850  0.73196750  1
  N  1233  1  0.22276300  0.82844800  0.22546850  1
  N  1234  1  0.10297700  0.79530300  0.24854600  1
  N  1235  1  0.15972650  0.88334050  0.23983650  1
  N  1236  1  0.18500700  0.77384200  0.26668800  1
  N  1265  1  0.77419850  0.10605250  0.22536050  1
  N  1266  1  0.89385400  0.14032500  0.24782100  1
  N  1267  1  0.83728700  0.05178300  0.23997900  1
  N  1268  1  0.81199550  0.16169350  0.26604850  1
  N  1429  1  0.20161400  0.34291300  0.85659850  1
  N  1430  1  0.13858700  0.40529200  0.81768300  1
  N  1431  1  0.18220050  0.47837150  0.92146500  1
  N  1432  1  0.20852250  0.55729950  0.87316100  1
  N  1453  1  0.27461500  0.07191300  0.85737700  1
  N  1454  1  0.33871650  0.01026150  0.81862700  1
  N  1455  1  0.29351900  0.93552200  0.92240900  1
  N  1456  1  0.26833495  0.85744595  0.87400100  1
  N  1477  1  0.37167700  0.16664200  0.63953600  1
  N  1478  1  0.43316450  0.10590150  0.68003450  1
  N  1479  1  0.50953400  0.14592400  0.57561700  1
  N  1480  1  0.58718500  0.17320800  0.62419700  1
  N  1501  1  0.10253600  0.24478800  0.63983600  1
  N  1502  1  0.04266450  0.30758550  0.68015550  1
  N  1503  1  0.96563450  0.26780450  0.57633450  1
  N  1504  1  0.88754945  0.24144545  0.62513200  1
  N  1525  1  0.27324600  0.06984100  0.14194950  1
  N  1526  1  0.33639150  0.00673550  0.18044500  1
  N  1527  1  0.29598800  0.93770600  0.07595700  1
  N  1528  1  0.26749045  0.85641945  0.12293600  1
  N  1549  1  0.20028000  0.34136500  0.14117800  1
  N  1550  1  0.13668250  0.40426050  0.17955050  1
  N  1551  1  0.17876150  0.47467050  0.07501650  1
  N  1552  1  0.20684150  0.55504150  0.12205900  1
  N  1573  1  0.10307250  0.24640450  0.35768700  1
  N  1574  1  0.04064500  0.30706600  0.31755350  1
  N  1575  1  0.96866800  0.27079900  0.42276900  1
  N  1576  1  0.88855545  0.24105445  0.37560650  1
  N  1597  1  0.37260950  0.16793450  0.35736150  1
  N  1598  1  0.43401000  0.10592500  0.31734150  1
  N  1599  1  0.50623700  0.14201400  0.42206450  1
  N  1600  1  0.58673550  0.17171150  0.37474150  1
  N  1809  1  0.17848900  0.54165500  0.99382650  1
  N  1810  1  0.18209850  0.41683950  0.98383400  1
  N  1811  1  0.24867250  0.48168950  0.00229000  1
  N  1812  1  0.12104800  0.46851900  0.01221700  1
  N  1841  1  0.29561245  0.87142945  0.99488250  1
  N  1842  1  0.29379250  0.99662050  0.98468600  1
  N  1843  1  0.22635945  0.93227345  0.00346650  1
  N  1844  1  0.35388500  0.94388600  0.01295850  1
  N  1873  1  0.57407550  0.14447950  0.50296350  1
  N  1874  1  0.44796150  0.14559650  0.51343200  1
  N  1875  1  0.51270050  0.21263850  0.49421650  1
  N  1876  1  0.50067950  0.08586150  0.48532350  1
  N  1905  1  0.90092145  0.26806645  0.50400600  1
  N  1906  1  0.02727550  0.26823150  0.51385550  1
  N  1907  1  0.96279045  0.20051845  0.49528900  1
  N  1908  1  0.97395000  0.32721400  0.48572350  1
  N  2065  1  0.28194150  0.20498050  0.89597100  1
  N  2066  1  0.20133950  0.17511450  0.84625900  1
  N  2067  1  0.19000900  0.20854400  0.89468850  1
  N  2068  1  0.27680400  0.24034500  0.84735300  1
  N  2097  1  0.23513750  0.24934650  0.59983800  1
  N  2098  1  0.20398400  0.16886200  0.64969250  1
  N  2099  1  0.23734150  0.15753350  0.60129750  1
  N  2100  1  0.27046800  0.24349900  0.64816250  1
  N  2129  1  0.19243400  0.20758600  0.10288600  1
  N  2130  1  0.27332600  0.23804200  0.15242050  1
  N  2131  1  0.28461350  0.20468250  0.10405700  1
  N  2132  1  0.19802550  0.17232750  0.15142250  1
  N  2161  1  0.23924900  0.16294700  0.39707250  1
  N  2162  1  0.27111500  0.24373100  0.34741050  1
  N  2163  1  0.23787000  0.25502100  0.39574450  1
  N  2164  1  0.20404700  0.16934400  0.34883200  1
  N  2321  1  0.28768000  0.69948100  0.89045050  1
  N  2322  1  0.19175150  0.67890550  0.84733000  1
  N  2323  1  0.18892000  0.71417700  0.89020750  1
  N  2324  1  0.28679095  0.73687695  0.84783600  1
  N  2385  1  0.72947900  0.25529300  0.60810250  1
  N  2386  1  0.70860450  0.16011950  0.65170600  1
  N  2387  1  0.74648350  0.15819450  0.60900450  1
  N  2388  1  0.76484646  0.25505946  0.65130300  1
  N  2449  1  0.18762650  0.71420350  0.10494950  1
  N  2450  1  0.28530046  0.73358746  0.14712750  1
  N  2451  1  0.28602800  0.69804000  0.10425400  1
  N  2452  1  0.18956550  0.67679350  0.14748200  1
  N  2513  1  0.74623600  0.15808500  0.39251850  1
  N  2514  1  0.76558745  0.25522345  0.34997950  1
  N  2515  1  0.72756950  0.25474850  0.39270700  1
  N  2516  1  0.71073850  0.15956550  0.34942600  1
  N  2577  1  0.01507750  0.34538850  0.77202150  1
  N  2578  1  0.13510300  0.37958600  0.74946200  1
  N  2579  1  0.07884700  0.29118000  0.75760500  1
  N  2580  1  0.05295900  0.40084200  0.73118150  1
  N  2609  1  0.46209600  0.07056000  0.77231250  1
  N  2610  1  0.34229300  0.03528900  0.75025400  1
  N  2611  1  0.39859150  0.12421650  0.75756000  1
  N  2612  1  0.42408550  0.01395950  0.73196750  1
  N  2641  1  0.46092400  0.06660900  0.22546850  1
  N  2642  1  0.34113800  0.03346400  0.24854600  1
  N  2643  1  0.39788750  0.12150150  0.23983650  1
  N  2644  1  0.42316800  0.01200300  0.26668800  1
  N  2673  1  0.01235950  0.34421350  0.22536050  1
  N  2674  1  0.13201500  0.37848600  0.24782100  1
  N  2675  1  0.07544800  0.28994400  0.23997900  1
  N  2676  1  0.05015650  0.39985450  0.26604850  1
  O  17  1  0.92744000  0.18528900  0.89834150  1
  O  18  1  0.90386950  0.22348350  0.84111450  1
  O  41  1  0.07209250  0.75272050  0.89931450  1
  O  42  1  0.09699000  0.71556600  0.84213800  1
  O  65  1  0.21550000  0.89049000  0.59859500  1
  O  66  1  0.25185200  0.86872900  0.65651550  1
  O  89  1  0.78341150  0.04625550  0.59909500  1
  O  90  1  0.74758550  0.06896550  0.65694200  1
  O  113  1  0.07354600  0.75346600  0.09994200  1
  O  114  1  0.09486600  0.71267300  0.15664100  1
  O  137  1  0.92443300  0.18220600  0.09898400  1
  O  138  1  0.90230800  0.22220000  0.15565650  1
  O  161  1  0.78542800  0.04895300  0.39886650  1
  O  162  1  0.74621650  0.06810050  0.34146600  1
  O  185  1  0.21321900  0.88787300  0.39833200  1
  O  186  1  0.25222750  0.86837150  0.34096700  1
  O  405  1  0.96632150  0.32625450  0.99040050  1
  O  406  1  0.86738000  0.25534100  0.01707950  1
  O  407  1  0.02992100  0.27229400  0.00439350  1
  O  408  1  0.97069000  0.16740500  0.97767200  1
  O  409  1  0.91271350  0.31759150  0.99331200  1
  O  410  1  0.86474050  0.20208350  0.01687900  1
  O  411  1  0.02879600  0.21917700  0.00416300  1
  O  412  1  0.91715550  0.15699650  0.98046250  1
  O  437  1  0.03123750  0.61083650  0.99154150  1
  O  438  1  0.13088950  0.68046950  0.01780850  1
  O  439  1  0.96847300  0.66550600  0.00567750  1
  O  440  1  0.02914050  0.77017550  0.97855350  1
  O  441  1  0.08483400  0.61879200  0.99434250  1
  O  442  1  0.13416700  0.73378600  0.01751900  1
  O  443  1  0.97022600  0.71870100  0.00535850  1
  O  444  1  0.08268950  0.77985350  0.98123000  1
  O  469  1  0.35841050  0.93247850  0.50620150  1
  O  470  1  0.28785000  0.83253200  0.48043450  1
  O  471  1  0.30331500  0.99400500  0.49179050  1
  O  472  1  0.19791050  0.93370750  0.51953300  1
  O  473  1  0.35066950  0.87924750  0.50352150  1
  O  474  1  0.23414850  0.82933150  0.48096600  1
  O  475  1  0.24974350  0.99229750  0.49236100  1
  O  476  1  0.18841500  0.88051400  0.51699050  1
  O  501  1  0.64048800  0.00362800  0.50754300  1
  O  502  1  0.71030600  0.10402200  0.48089050  1
  O  503  1  0.69594750  0.94264550  0.49310150  1
  O  504  1  0.80130900  0.00402600  0.52008200  1
  O  505  1  0.64775200  0.05682300  0.50443900  1
  O  506  1  0.76404050  0.10757050  0.48113550  1
  O  507  1  0.74956100  0.94471500  0.49339600  1
  O  508  1  0.81029950  0.05720250  0.51711600  1
  O  661  1  0.03654600  0.95768100  0.91172400  1
  O  662  1  0.06833900  0.01965900  0.85012550  1
  O  663  1  0.91921800  0.96551400  0.89186350  1
  O  664  1  0.93316550  0.91942750  0.84818100  1
  O  665  1  0.07671750  0.97175050  0.89408100  1
  O  666  1  0.03036800  0.00625700  0.83144800  1
  O  667  1  0.95702000  0.97890700  0.91063050  1
  O  668  1  0.97345650  0.93345550  0.83060550  1
  O  693  1  0.98738900  0.00445800  0.58415750  1
  O  694  1  0.05046700  0.03454500  0.64522500  1
  O  695  1  0.99361300  0.88699500  0.60427550  1
  O  696  1  0.94748700  0.90126400  0.64788300  1
  O  697  1  0.00275000  0.04383300  0.60171900  1
  O  698  1  0.03605100  0.99708500  0.66410900  1
  O  699  1  0.00802550  0.92433350  0.58532600  1
  O  700  1  0.96281200  0.94073500  0.66538850  1
  O  725  1  0.96138950  0.97848350  0.08711200  1
  O  726  1  0.93023050  0.91656050  0.14865300  1
  O  727  1  0.07908950  0.97154550  0.10685500  1
  O  728  1  0.06511950  0.01748750  0.15042200  1
  O  729  1  0.92134900  0.96439400  0.10482450  1
  O  730  1  0.96819500  0.93009900  0.16732000  1
  O  731  1  0.04126600  0.95801700  0.08811300  1
  O  732  1  0.02498800  0.00343800  0.16808650  1
  O  757  1  0.01061000  0.93136700  0.41277550  1
  O  758  1  0.94754000  0.90207000  0.35176050  1
  O  759  1  0.00550350  0.04924050  0.39280100  1
  O  760  1  0.05141600  0.03491600  0.34930550  1
  O  761  1  0.99515950  0.89215850  0.39513650  1
  O  762  1  0.96217700  0.93951200  0.33289450  1
  O  763  1  0.99086650  0.01189050  0.41171600  1
  O  764  1  0.03600900  0.99564700  0.33169950  1
  O  917  1  0.08105750  0.45787450  0.88727100  1
  O  918  1  0.07985600  0.50836100  0.85263450  1
  O  919  1  0.95572550  0.47929850  0.90661250  1
  O  920  1  0.92215700  0.43085700  0.85186300  1
  O  921  1  0.04381400  0.45721200  0.90679450  1
  O  922  1  0.04518550  0.50875850  0.83215450  1
  O  923  1  0.91936700  0.47963800  0.88686350  1
  O  924  1  0.95775300  0.43149200  0.83160100  1
  O  981  1  0.48692300  0.04825200  0.61104000  1
  O  982  1  0.53591900  0.04807400  0.64650500  1
  O  983  1  0.51237450  0.92517250  0.59261500  1
  O  984  1  0.46146150  0.89060750  0.64729800  1
  O  985  1  0.48820850  0.01136150  0.59175550  1
  O  986  1  0.53608900  0.01354900  0.66708500  1
  O  987  1  0.51253950  0.88903850  0.61249650  1
  O  988  1  0.46013500  0.92592600  0.66730300  1
  O  1045  1  0.91815700  0.47988800  0.10845550  1
  O  1046  1  0.91995500  0.42926200  0.14297600  1
  O  1047  1  0.07927300  0.45593300  0.10733950  1
  O  1048  1  0.07846700  0.50495100  0.14230500  1
  O  1049  1  0.95456800  0.48010400  0.08855850  1
  O  1050  1  0.95530100  0.42869500  0.16313900  1
  O  1051  1  0.04231600  0.45648400  0.08790000  1
  O  1052  1  0.04369850  0.50472550  0.16291050  1
  O  1109  1  0.51294050  0.88907750  0.38920550  1
  O  1110  1  0.46370500  0.88998400  0.35389100  1
  O  1111  1  0.48478700  0.04759100  0.38952250  1
  O  1112  1  0.53597750  0.04828050  0.35472050  1
  O  1113  1  0.51115900  0.92500200  0.40892200  1
  O  1114  1  0.46321950  0.92527850  0.33368100  1
  O  1115  1  0.48530700  0.01077200  0.40904050  1
  O  1116  1  0.53775750  0.01392450  0.33431400  1
  O  1173  1  0.75612200  0.12852500  0.77586150  1
  O  1174  1  0.83572650  0.18059850  0.72071100  1
  O  1175  1  0.86890050  0.04109650  0.75434400  1
  O  1176  1  0.92083950  0.12284250  0.75218250  1
  O  1177  1  0.76844000  0.07961100  0.78084950  1
  O  1178  1  0.78409150  0.16915850  0.72826800  1
  O  1179  1  0.81757300  0.02818700  0.76222400  1
  O  1180  1  0.91090150  0.17246650  0.74676900  1
  O  1205  1  0.24485050  0.81129250  0.77627100  1
  O  1206  1  0.16483600  0.75767500  0.72179650  1
  O  1207  1  0.13215300  0.89786500  0.75436550  1
  O  1208  1  0.08008600  0.81558800  0.75287600  1
  O  1209  1  0.23221700  0.86015600  0.78091650  1
  O  1210  1  0.21657850  0.76922950  0.72890900  1
  O  1211  1  0.18357100  0.91101500  0.76179850  1
  O  1212  1  0.09036800  0.76599100  0.74783200  1
  O  1237  1  0.24338000  0.80696200  0.22166050  1
  O  1238  1  0.16401650  0.75622650  0.27724300  1
  O  1239  1  0.13161450  0.89546850  0.24307650  1
  O  1240  1  0.07917500  0.81399200  0.24581250  1
  O  1241  1  0.23123650  0.85587250  0.21649050  1
  O  1242  1  0.21564700  0.76719300  0.26961550  1
  O  1243  1  0.18292300  0.90799900  0.23510100  1
  O  1244  1  0.08888100  0.76437300  0.25142300  1
  O  1269  1  0.75342850  0.12733350  0.22145050  1
  O  1270  1  0.83306900  0.17955500  0.27632700  1
  O  1271  1  0.86549050  0.03982450  0.24315950  1
  O  1272  1  0.91780600  0.12176800  0.24516400  1
  O  1273  1  0.76589800  0.07847300  0.21661650  1
  O  1274  1  0.78136200  0.16832600  0.26910300  1
  O  1275  1  0.81411650  0.02696250  0.23559350  1
  O  1276  1  0.90775400  0.17136100  0.25041250  1
  O  1425  1  0.16560100  0.42345000  0.89834150  1
  O  1426  1  0.14203050  0.46164450  0.84111450  1
  O  1449  1  0.31025350  0.99088150  0.89931450  1
  O  1450  1  0.33515100  0.95372700  0.84213800  1
  O  1473  1  0.45366100  0.12865100  0.59859500  1
  O  1474  1  0.49001300  0.10689000  0.65651550  1
  O  1497  1  0.02157250  0.28441650  0.59909500  1
  O  1498  1  0.98574650  0.30712650  0.65694200  1
  O  1521  1  0.31170700  0.99162700  0.09994200  1
  O  1522  1  0.33302700  0.95083400  0.15664100  1
  O  1545  1  0.16259400  0.42036700  0.09898400  1
  O  1546  1  0.14046900  0.46036100  0.15565650  1
  O  1569  1  0.02358900  0.28711400  0.39886650  1
  O  1570  1  0.98437750  0.30626150  0.34146600  1
  O  1593  1  0.45138000  0.12603400  0.39833200  1
  O  1594  1  0.49038850  0.10653250  0.34096700  1
  O  1813  1  0.20448250  0.56441550  0.99040050  1
  O  1814  1  0.10554100  0.49350200  0.01707950  1
  O  1815  1  0.26808200  0.51045500  0.00439350  1
  O  1816  1  0.20885100  0.40556600  0.97767200  1
  O  1817  1  0.15087450  0.55575250  0.99331200  1
  O  1818  1  0.10290150  0.44024450  0.01687900  1
  O  1819  1  0.26695700  0.45733800  0.00416300  1
  O  1820  1  0.15531650  0.39515750  0.98046250  1
  O  1845  1  0.26939845  0.84899745  0.99154150  1
  O  1846  1  0.36905050  0.91863050  0.01780850  1
  O  1847  1  0.20663395  0.90366695  0.00567750  1
  O  1848  1  0.26730150  0.00833650  0.97855350  1
  O  1849  1  0.32299495  0.85695295  0.99434250  1
  O  1850  1  0.37232800  0.97194700  0.01751900  1
  O  1851  1  0.20838695  0.95686195  0.00535850  1
  O  1852  1  0.32085050  0.01801450  0.98123000  1
  O  1877  1  0.59657150  0.17063950  0.50620150  1
  O  1878  1  0.52601100  0.07069300  0.48043450  1
  O  1879  1  0.54147600  0.23216600  0.49179050  1
  O  1880  1  0.43607150  0.17186850  0.51953300  1
  O  1881  1  0.58883050  0.11740850  0.50352150  1
  O  1882  1  0.47230950  0.06749250  0.48096600  1
  O  1883  1  0.48790450  0.23045850  0.49236100  1
  O  1884  1  0.42657600  0.11867500  0.51699050  1
  O  1909  1  0.87864895  0.24178895  0.50754300  1
  O  1910  1  0.94846700  0.34218300  0.48089050  1
  O  1911  1  0.93410845  0.18080645  0.49310150  1
  O  1912  1  0.03947000  0.24218700  0.52008200  1
  O  1913  1  0.88591295  0.29498395  0.50443900  1
  O  1914  1  0.00220150  0.34573150  0.48113550  1
  O  1915  1  0.98772195  0.18287595  0.49339600  1
  O  1916  1  0.04846050  0.29536350  0.51711600  1
  O  2069  1  0.27470700  0.19584200  0.91172400  1
  O  2070  1  0.30650000  0.25782000  0.85012550  1
  O  2071  1  0.15737900  0.20367500  0.89186350  1
  O  2072  1  0.17132650  0.15758850  0.84818100  1
  O  2073  1  0.31487850  0.20991150  0.89408100  1
  O  2074  1  0.26852900  0.24441800  0.83144800  1
  O  2075  1  0.19518100  0.21706800  0.91063050  1
  O  2076  1  0.21161750  0.17161650  0.83060550  1
  O  2101  1  0.22555000  0.24261900  0.58415750  1
  O  2102  1  0.28862800  0.27270600  0.64522500  1
  O  2103  1  0.23177400  0.12515600  0.60427550  1
  O  2104  1  0.18564800  0.13942500  0.64788300  1
  O  2105  1  0.24091100  0.28199400  0.60171900  1
  O  2106  1  0.27421200  0.23524600  0.66410900  1
  O  2107  1  0.24618650  0.16249450  0.58532600  1
  O  2108  1  0.20097300  0.17889600  0.66538850  1
  O  2133  1  0.19955050  0.21664450  0.08711200  1
  O  2134  1  0.16839150  0.15472150  0.14865300  1
  O  2135  1  0.31725050  0.20970650  0.10685500  1
  O  2136  1  0.30328050  0.25564850  0.15042200  1
  O  2137  1  0.15951000  0.20255500  0.10482450  1
  O  2138  1  0.20635600  0.16826000  0.16732000  1
  O  2139  1  0.27942700  0.19617800  0.08811300  1
  O  2140  1  0.26314900  0.24159900  0.16808650  1
  O  2165  1  0.24877100  0.16952800  0.41277550  1
  O  2166  1  0.18570100  0.14023100  0.35176050  1
  O  2167  1  0.24366450  0.28740150  0.39280100  1
  O  2168  1  0.28957700  0.27307700  0.34930550  1
  O  2169  1  0.23332050  0.13031950  0.39513650  1
  O  2170  1  0.20033800  0.17767300  0.33289450  1
  O  2171  1  0.22902750  0.25005150  0.41171600  1
  O  2172  1  0.27417000  0.23380800  0.33169950  1
  O  2325  1  0.31921846  0.69603546  0.88727100  1
  O  2326  1  0.31801695  0.74652195  0.85263450  1
  O  2327  1  0.19388650  0.71745950  0.90661250  1
  O  2328  1  0.16031800  0.66901800  0.85186300  1
  O  2329  1  0.28197500  0.69537300  0.90679450  1
  O  2330  1  0.28334645  0.74691945  0.83215450  1
  O  2331  1  0.15752800  0.71779900  0.88686350  1
  O  2332  1  0.19591400  0.66965300  0.83160100  1
  O  2389  1  0.72508396  0.28641296  0.61104000  1
  O  2390  1  0.77407995  0.28623495  0.64650500  1
  O  2391  1  0.75053550  0.16333350  0.59261500  1
  O  2392  1  0.69962250  0.12876850  0.64729800  1
  O  2393  1  0.72636950  0.24952250  0.59175550  1
  O  2394  1  0.77424995  0.25170995  0.66708500  1
  O  2395  1  0.75070050  0.12719950  0.61249650  1
  O  2396  1  0.69829600  0.16408700  0.66730300  1
  O  2453  1  0.15631800  0.71804900  0.10845550  1
  O  2454  1  0.15811600  0.66742300  0.14297600  1
  O  2455  1  0.31743396  0.69409396  0.10733950  1
  O  2456  1  0.31662795  0.74311195  0.14230500  1
  O  2457  1  0.19272900  0.71826500  0.08855850  1
  O  2458  1  0.19346200  0.66685600  0.16313900  1
  O  2459  1  0.28047700  0.69464500  0.08790000  1
  O  2460  1  0.28185945  0.74288645  0.16291050  1
  O  2517  1  0.75110150  0.12723850  0.38920550  1
  O  2518  1  0.70186600  0.12814500  0.35389100  1
  O  2519  1  0.72294796  0.28575196  0.38952250  1
  O  2520  1  0.77413845  0.28644145  0.35472050  1
  O  2521  1  0.74932000  0.16316300  0.40892200  1
  O  2522  1  0.70138050  0.16343950  0.33368100  1
  O  2523  1  0.72346800  0.24893300  0.40904050  1
  O  2524  1  0.77591845  0.25208545  0.33431400  1
  O  2581  1  0.99428300  0.36668600  0.77586150  1
  O  2582  1  0.07388750  0.41875950  0.72071100  1
  O  2583  1  0.10706150  0.27925750  0.75434400  1
  O  2584  1  0.15900050  0.36100350  0.75218250  1
  O  2585  1  0.00660100  0.31777200  0.78084950  1
  O  2586  1  0.02225250  0.40731950  0.72826800  1
  O  2587  1  0.05573400  0.26634800  0.76222400  1
  O  2588  1  0.14906250  0.41062750  0.74676900  1
  O  2613  1  0.48301150  0.04945350  0.77627100  1
  O  2614  1  0.40299700  0.99583600  0.72179650  1
  O  2615  1  0.37031400  0.13602600  0.75436550  1
  O  2616  1  0.31824700  0.05374900  0.75287600  1
  O  2617  1  0.47037800  0.09831700  0.78091650  1
  O  2618  1  0.45473950  0.00739050  0.72890900  1
  O  2619  1  0.42173200  0.14917600  0.76179850  1
  O  2620  1  0.32852900  0.00415200  0.74783200  1
  O  2645  1  0.48154100  0.04512300  0.22166050  1
  O  2646  1  0.40217750  0.99438750  0.27724300  1
  O  2647  1  0.36977550  0.13362950  0.24307650  1
  O  2648  1  0.31733600  0.05215300  0.24581250  1
  O  2649  1  0.46939750  0.09403350  0.21649050  1
  O  2650  1  0.45380800  0.00535400  0.26961550  1
  O  2651  1  0.42108400  0.14616000  0.23510100  1
  O  2652  1  0.32704200  0.00253400  0.25142300  1
  O  2677  1  0.99158950  0.36549450  0.22145050  1
  O  2678  1  0.07123000  0.41771600  0.27632700  1
  O  2679  1  0.10365150  0.27798550  0.24315950  1
  O  2680  1  0.15596700  0.35992900  0.24516400  1
  O  2681  1  0.00405900  0.31663400  0.21661650  1
  O  2682  1  0.01952300  0.40648700  0.26910300  1
  O  2683  1  0.05227750  0.26512350  0.23559350  1
  O  2684  1  0.14591500  0.40952200  0.25041250  1
