# generated using pymatgen
data_SiH92(C15N2)8
_symmetry_space_group_name_H-M   'P 1'
_cell_length_a   34.90243339
_cell_length_b   34.90834214
_cell_length_c   34.89669252
_cell_angle_alpha   101.50597426
_cell_angle_beta   113.58849186
_cell_angle_gamma   113.60081135
_symmetry_Int_Tables_number   1
_chemical_formula_structural   SiH92(C15N2)8
_chemical_formula_sum   'Si4 H368 C480 N64'
_cell_volume   32265.13261992
_cell_formula_units_Z   4
loop_
 _symmetry_equiv_pos_site_id
 _symmetry_equiv_pos_as_xyz
  1  'x, y, z'
loop_
 _atom_site_type_symbol
 _atom_site_label
 _atom_site_symmetry_multiplicity
 _atom_site_fract_x
 _atom_site_fract_y
 _atom_site_fract_z
 _atom_site_occupancy
  C  1  1  0.24696250  0.56525300  0.75109350  1
  C  3  1  0.25672450  0.58437350  0.82529000  1
  C  5  1  0.18558450  0.51377700  0.76101150  1
  C  7  1  0.28369750  0.61627250  0.87248700  1
  C  8  1  0.32927500  0.65819050  0.89181350  1
  C  9  1  0.35618550  0.68951250  0.93851500  1
  C  10  1  0.33830150  0.67994250  0.96743300  1
  C  11  1  0.29252750  0.63867300  0.94832650  1
  C  12  1  0.26569450  0.60736700  0.90164150  1
  C  13  1  0.26353100  0.57917550  0.72224450  1
  C  14  1  0.31339250  0.61407000  0.74127850  1
  C  15  1  0.32851100  0.63205400  0.71375000  1
  C  16  1  0.29406600  0.61617200  0.66640400  1
  C  17  1  0.24477600  0.57990350  0.64677850  1
  C  18  1  0.22982400  0.56145800  0.67418500  1
  C  19  1  0.13873950  0.47305750  0.74225700  1
  C  20  1  0.10824550  0.44330700  0.69431550  1
  C  21  1  0.06051050  0.40509550  0.67519900  1
  C  22  1  0.04155650  0.39519600  0.70337250  1
  C  23  1  0.07230250  0.42369000  0.75141850  1
  C  24  1  0.12003950  0.46193250  0.77049500  1
  C  37  1  0.30866000  0.63990050  0.63909650  1
  C  40  1  0.98950600  0.35730900  0.68275500  1
  C  43  1  0.36791050  0.71077900  0.01759250  1
  C  46  1  0.70605100  0.50178850  0.27384250  1
  C  48  1  0.69634050  0.56623150  0.28325200  1
  C  50  1  0.76742950  0.57304700  0.28369950  1
  C  52  1  0.66941500  0.58648150  0.28823550  1
  C  53  1  0.62383200  0.56025250  0.28458450  1
  C  54  1  0.59696000  0.58006700  0.28903600  1
  C  55  1  0.61487500  0.62686300  0.29736100  1
  C  56  1  0.66066950  0.65351400  0.30188750  1
  C  57  1  0.68746000  0.63363700  0.29736800  1
  C  58  1  0.68947500  0.45637950  0.27119250  1
  C  59  1  0.63962650  0.42557800  0.25628250  1
  C  60  1  0.62450350  0.38293250  0.25912400  1
  C  61  1  0.65893800  0.37001400  0.27762800  1
  C  62  1  0.70820750  0.39964350  0.29057700  1
  C  63  1  0.72316750  0.44201250  0.28712300  1
  C  64  1  0.81427200  0.60111650  0.28980550  1
  C  65  1  0.84473750  0.58365100  0.29051650  1
  C  66  1  0.89247100  0.61224600  0.30002000  1
  C  67  1  0.91146550  0.65937500  0.30911950  1
  C  68  1  0.88074650  0.67669150  0.30690300  1
  C  69  1  0.83300150  0.64804950  0.29740100  1
  C  82  1  0.64435600  0.32811300  0.28675300  1
  C  85  1  0.96352350  0.69078550  0.32329600  1
  C  88  1  0.58527700  0.64742050  0.29856850  1
  C  91  1  0.18339400  0.74088450  0.44927750  1
  C  93  1  0.23849400  0.73155700  0.43019700  1
  C  95  1  0.24477950  0.73101700  0.50079950  1
  C  97  1  0.25380900  0.72663000  0.39831000  1
  C  98  1  0.23123750  0.73028550  0.35637900  1
  C  99  1  0.24662550  0.72586200  0.32506350  1
  C  100  1  0.28511550  0.71755750  0.33466100  1
  C  101  1  0.30724200  0.71303800  0.37593200  1
  C  102  1  0.29186400  0.71753500  0.40723800  1
  C  103  1  0.14062750  0.74353000  0.43533950  1
  C  104  1  0.12478850  0.75850250  0.40044400  1
  C  105  1  0.07928300  0.75563600  0.38244700  1
  C  106  1  0.04783350  0.73712350  0.39835800  1
  C  107  1  0.06447200  0.72412100  0.43464700  1
  C  108  1  0.11029850  0.72757850  0.45307700  1
  C  109  1  0.26671100  0.72487050  0.54151650  1
  C  110  1  0.24849650  0.72411900  0.57125150  1
  C  111  1  0.26754950  0.71456900  0.60945750  1
  C  112  1  0.30558350  0.70547150  0.61935000  1
  C  113  1  0.32516600  0.70774150  0.59087750  1
  C  114  1  0.30604700  0.71727050  0.55264650  1
  C  127  1  0.99682100  0.72803400  0.37465500  1
  C  130  1  0.32277500  0.69124650  0.65720150  1
  C  133  1  0.30445350  0.71633200  0.30383550  1
  C  136  1  0.76966550  0.26347400  0.51296950  1
  C  138  1  0.71461100  0.18933750  0.44847750  1
  C  140  1  0.70830500  0.25363600  0.44170600  1
  C  142  1  0.69932050  0.14215900  0.42820650  1
  C  143  1  0.72191750  0.12281000  0.45441150  1
  C  144  1  0.70655400  0.07612950  0.43457450  1
  C  145  1  0.66805250  0.04724700  0.38777650  1
  C  146  1  0.64588200  0.06637550  0.36115450  1
  C  147  1  0.66125700  0.11304450  0.38104850  1
  C  148  1  0.81241650  0.29227750  0.55839700  1
  C  149  1  0.82826900  0.27320100  0.58918100  1
  C  150  1  0.87374700  0.30069750  0.63184950  1
  C  151  1  0.90519900  0.34805800  0.64481600  1
  C  152  1  0.88856050  0.36772500  0.61520150  1
  C  153  1  0.84275950  0.34033850  0.57280300  1
  C  154  1  0.68636650  0.27242950  0.41365200  1
  C  155  1  0.70457100  0.32036350  0.43115350  1
  C  156  1  0.68553400  0.33953000  0.40256400  1
  C  157  1  0.64749250  0.31141750  0.35542600  1
  C  158  1  0.62790750  0.26337350  0.33808100  1
  C  159  1  0.64703550  0.24425050  0.36670200  1
  C  172  1  0.95621200  0.37534600  0.68674600  1
  C  175  1  0.63028950  0.33208900  0.32403450  1
  C  178  1  0.64872150  0.99709850  0.36719000  1
  C  361  1  0.40473900  0.70815400  0.09229000  1
  C  362  1  0.45269300  0.74828450  0.12122850  1
  C  363  1  0.47430750  0.76790400  0.16937250  1
  C  364  1  0.44798950  0.74881150  0.18968600  1
  C  365  1  0.40033900  0.70781400  0.16027600  1
  C  366  1  0.37883000  0.68800550  0.11214850  1
  C  368  1  0.50528150  0.73943750  0.25642700  1
  C  369  1  0.47894600  0.69282600  0.24922700  1
  C  370  1  0.50053200  0.66628500  0.25121000  1
  C  371  1  0.54849700  0.68528550  0.25905950  1
  C  372  1  0.57442950  0.73103250  0.26481400  1
  C  373  1  0.55293000  0.75765150  0.26307950  1
  C  374  1  0.51468400  0.82502900  0.27527400  1
  C  375  1  0.43857100  0.75834700  0.26589500  1
  C  376  1  0.45013200  0.75170800  0.30690100  1
  C  377  1  0.42180100  0.75002400  0.32669400  1
  C  378  1  0.38181050  0.75578400  0.30651450  1
  C  379  1  0.37062100  0.76356250  0.26635450  1
  C  380  1  0.39916100  0.76554950  0.24675550  1
  C  381  1  0.50308250  0.85441950  0.25701500  1
  C  382  1  0.53142150  0.90254450  0.28359800  1
  C  383  1  0.57141750  0.92240700  0.32936550  1
  C  384  1  0.58261700  0.89349050  0.34840550  1
  C  385  1  0.55410700  0.84535500  0.32189800  1
  C  459  1  0.24696250  0.36146300  0.54730350  1
  C  461  1  0.25672450  0.38058350  0.62150000  1
  C  463  1  0.18558450  0.30998700  0.55722150  1
  C  465  1  0.28369750  0.41248250  0.66869700  1
  C  466  1  0.32927500  0.45440070  0.68802370  1
  C  467  1  0.35618550  0.48572270  0.73472520  1
  C  468  1  0.33830150  0.47615270  0.76364320  1
  C  469  1  0.29252750  0.43488320  0.74453670  1
  C  470  1  0.26569450  0.40357720  0.69785170  1
  C  471  1  0.26353100  0.37538550  0.51845450  1
  C  472  1  0.31339250  0.41028000  0.53748850  1
  C  473  1  0.32851100  0.42826400  0.50996000  1
  C  474  1  0.29406600  0.41238200  0.46261400  1
  C  475  1  0.24477600  0.37611350  0.44298850  1
  C  476  1  0.22982400  0.35766800  0.47039500  1
  C  477  1  0.13873950  0.26926750  0.53846700  1
  C  478  1  0.10824550  0.23951700  0.49052550  1
  C  479  1  0.06051050  0.20130550  0.47140900  1
  C  480  1  0.04155650  0.19140600  0.49958250  1
  C  481  1  0.07230250  0.21990000  0.54762850  1
  C  482  1  0.12003950  0.25814250  0.56670500  1
  C  495  1  0.30866000  0.43611050  0.43530650  1
  C  498  1  0.98950600  0.15351900  0.47896500  1
  C  501  1  0.36791050  0.50698920  0.81380270  1
  C  504  1  0.70605100  0.29799850  0.07005250  1
  C  506  1  0.69634050  0.36244150  0.07946200  1
  C  508  1  0.76742950  0.36925700  0.07990950  1
  C  510  1  0.66941500  0.38269150  0.08444550  1
  C  511  1  0.62383200  0.35646270  0.08079470  1
  C  512  1  0.59696000  0.37627720  0.08524620  1
  C  513  1  0.61487500  0.42307320  0.09357120  1
  C  514  1  0.66066950  0.44972420  0.09809770  1
  C  515  1  0.68746000  0.42984720  0.09357820  1
  C  516  1  0.68947500  0.25258950  0.06740250  1
  C  517  1  0.63962650  0.22178800  0.05249250  1
  C  518  1  0.62450350  0.17914250  0.05533400  1
  C  519  1  0.65893800  0.16622400  0.07383800  1
  C  520  1  0.70820750  0.19585350  0.08678700  1
  C  521  1  0.72316750  0.23822250  0.08333300  1
  C  522  1  0.81427200  0.39732650  0.08601550  1
  C  523  1  0.84473750  0.37986100  0.08672650  1
  C  524  1  0.89247100  0.40845600  0.09623000  1
  C  525  1  0.91146550  0.45558500  0.10532950  1
  C  526  1  0.88074650  0.47290150  0.10311300  1
  C  527  1  0.83300150  0.44425950  0.09361100  1
  C  540  1  0.64435600  0.12432300  0.08296300  1
  C  543  1  0.96352350  0.48699550  0.11950600  1
  C  546  1  0.58527700  0.44363070  0.09477870  1
  C  549  1  0.18339400  0.53709450  0.24548750  1
  C  551  1  0.23849400  0.52776700  0.22640700  1
  C  553  1  0.24477950  0.52722700  0.29700950  1
  C  555  1  0.25380900  0.52284000  0.19452000  1
  C  556  1  0.23123750  0.52649550  0.15258900  1
  C  557  1  0.24662550  0.52207200  0.12127350  1
  C  558  1  0.28511550  0.51376750  0.13087100  1
  C  559  1  0.30724200  0.50924800  0.17214200  1
  C  560  1  0.29186400  0.51374500  0.20344800  1
  C  561  1  0.14062750  0.53974000  0.23154950  1
  C  562  1  0.12478850  0.55471250  0.19665400  1
  C  563  1  0.07928300  0.55184600  0.17865700  1
  C  564  1  0.04783350  0.53333350  0.19456800  1
  C  565  1  0.06447200  0.52033100  0.23085700  1
  C  566  1  0.11029850  0.52378850  0.24928700  1
  C  567  1  0.26671100  0.52108050  0.33772650  1
  C  568  1  0.24849650  0.52032900  0.36746150  1
  C  569  1  0.26754950  0.51077900  0.40566750  1
  C  570  1  0.30558350  0.50168150  0.41556000  1
  C  571  1  0.32516600  0.50395150  0.38708750  1
  C  572  1  0.30604700  0.51348050  0.34885650  1
  C  585  1  0.99682100  0.52424400  0.17086500  1
  C  588  1  0.32277500  0.48745650  0.45341150  1
  C  591  1  0.30445350  0.51254200  0.10004550  1
  C  594  1  0.76966550  0.05968400  0.30917950  1
  C  596  1  0.71461100  0.98554750  0.24468750  1
  C  598  1  0.70830500  0.04984600  0.23791600  1
  C  600  1  0.69932050  0.93836900  0.22441650  1
  C  601  1  0.72191750  0.91902000  0.25062150  1
  C  602  1  0.70655400  0.87233950  0.23078450  1
  C  603  1  0.66805250  0.84345700  0.18398650  1
  C  604  1  0.64588200  0.86258550  0.15736450  1
  C  605  1  0.66125700  0.90925450  0.17725850  1
  C  606  1  0.81241650  0.08848750  0.35460700  1
  C  607  1  0.82826900  0.06941100  0.38539100  1
  C  608  1  0.87374700  0.09690750  0.42805950  1
  C  609  1  0.90519900  0.14426800  0.44102600  1
  C  610  1  0.88856050  0.16393500  0.41141150  1
  C  611  1  0.84275950  0.13654850  0.36901300  1
  C  612  1  0.68636650  0.06863950  0.20986200  1
  C  613  1  0.70457100  0.11657350  0.22736350  1
  C  614  1  0.68553400  0.13574000  0.19877400  1
  C  615  1  0.64749250  0.10762750  0.15163600  1
  C  616  1  0.62790750  0.05958350  0.13429100  1
  C  617  1  0.64703550  0.04046050  0.16291200  1
  C  630  1  0.95621200  0.17155600  0.48295600  1
  C  633  1  0.63028950  0.12829900  0.12024450  1
  C  636  1  0.64872150  0.79330850  0.16340000  1
  C  819  1  0.40473900  0.50436421  0.88850021  1
  C  820  1  0.45269300  0.54449450  0.91743850  1
  C  821  1  0.47430750  0.56411400  0.96558250  1
  C  822  1  0.44798950  0.54502150  0.98589600  1
  C  823  1  0.40033900  0.50402400  0.95648600  1
  C  824  1  0.37883000  0.48421550  0.90835850  1
  C  826  1  0.50528150  0.53564750  0.05263700  1
  C  827  1  0.47894600  0.48903600  0.04543700  1
  C  828  1  0.50053200  0.46249500  0.04742000  1
  C  829  1  0.54849700  0.48149571  0.05526971  1
  C  830  1  0.57442950  0.52724250  0.06102400  1
  C  831  1  0.55293000  0.55386150  0.05928950  1
  C  832  1  0.51468400  0.62123900  0.07148400  1
  C  833  1  0.43857100  0.55455700  0.06210500  1
  C  834  1  0.45013200  0.54791800  0.10311100  1
  C  835  1  0.42180100  0.54623400  0.12290400  1
  C  836  1  0.38181050  0.55199400  0.10272450  1
  C  837  1  0.37062100  0.55977250  0.06256450  1
  C  838  1  0.39916100  0.56175950  0.04296550  1
  C  839  1  0.50308250  0.65062950  0.05322500  1
  C  840  1  0.53142150  0.69875450  0.07980800  1
  C  841  1  0.57141750  0.71861700  0.12557550  1
  C  842  1  0.58261700  0.68970050  0.14461550  1
  C  843  1  0.55410700  0.64156500  0.11810800  1
  C  917  1  0.24696250  0.15767400  0.34351450  1
  C  919  1  0.25672450  0.17679450  0.41771100  1
  C  921  1  0.18558450  0.10619800  0.35343250  1
  C  923  1  0.28369750  0.20869350  0.46490800  1
  C  924  1  0.32927500  0.25061150  0.48423450  1
  C  925  1  0.35618550  0.28193350  0.53093600  1
  C  926  1  0.33830150  0.27236350  0.55985400  1
  C  927  1  0.29252750  0.23109400  0.54074750  1
  C  928  1  0.26569450  0.19978800  0.49406250  1
  C  929  1  0.26353100  0.17159650  0.31466550  1
  C  930  1  0.31339250  0.20649100  0.33369950  1
  C  931  1  0.32851100  0.22447500  0.30617100  1
  C  932  1  0.29406600  0.20859300  0.25882500  1
  C  933  1  0.24477600  0.17232450  0.23919950  1
  C  934  1  0.22982400  0.15387900  0.26660600  1
  C  935  1  0.13873950  0.06547850  0.33467800  1
  C  936  1  0.10824550  0.03572800  0.28673650  1
  C  937  1  0.06051050  0.99751650  0.26762000  1
  C  938  1  0.04155650  0.98761700  0.29579350  1
  C  939  1  0.07230250  0.01611100  0.34383950  1
  C  940  1  0.12003950  0.05435350  0.36291600  1
  C  953  1  0.30866000  0.23232150  0.23151750  1
  C  956  1  0.98950600  0.94973000  0.27517600  1
  C  959  1  0.36791050  0.30320000  0.61001350  1
  C  962  1  0.70605100  0.09420950  0.86626350  1
  C  964  1  0.69634050  0.15865250  0.87567300  1
  C  966  1  0.76742950  0.16546800  0.87612050  1
  C  968  1  0.66941500  0.17890250  0.88065650  1
  C  969  1  0.62383200  0.15267350  0.87700550  1
  C  970  1  0.59696000  0.17248800  0.88145700  1
  C  971  1  0.61487500  0.21928400  0.88978200  1
  C  972  1  0.66066950  0.24593500  0.89430850  1
  C  973  1  0.68746000  0.22605800  0.88978900  1
  C  974  1  0.68947500  0.04880050  0.86361350  1
  C  975  1  0.63962650  0.01799900  0.84870350  1
  C  976  1  0.62450350  0.97535350  0.85154500  1
  C  977  1  0.65893800  0.96243500  0.87004900  1
  C  978  1  0.70820750  0.99206450  0.88299800  1
  C  979  1  0.72316750  0.03443350  0.87954400  1
  C  980  1  0.81427200  0.19353750  0.88222650  1
  C  981  1  0.84473750  0.17607200  0.88293750  1
  C  982  1  0.89247100  0.20466700  0.89244100  1
  C  983  1  0.91146550  0.25179600  0.90154050  1
  C  984  1  0.88074650  0.26911250  0.89932400  1
  C  985  1  0.83300150  0.24047050  0.88982200  1
  C  998  1  0.64435600  0.92053400  0.87917400  1
  C  1001  1  0.96352350  0.28320650  0.91571700  1
  C  1004  1  0.58527700  0.23984150  0.89098950  1
  C  1007  1  0.18339400  0.33330550  0.04169850  1
  C  1009  1  0.23849400  0.32397800  0.02261800  1
  C  1011  1  0.24477950  0.32343800  0.09322050  1
  C  1013  1  0.25380900  0.31905100  0.99073100  1
  C  1014  1  0.23123750  0.32270650  0.94880000  1
  C  1015  1  0.24662550  0.31828292  0.91748442  1
  C  1016  1  0.28511550  0.30997840  0.92708190  1
  C  1017  1  0.30724200  0.30545890  0.96835290  1
  C  1018  1  0.29186400  0.30995600  0.99965900  1
  C  1019  1  0.14062750  0.33595100  0.02776050  1
  C  1020  1  0.12478850  0.35092350  0.99286500  1
  C  1021  1  0.07928300  0.34805700  0.97486800  1
  C  1022  1  0.04783350  0.32954450  0.99077900  1
  C  1023  1  0.06447200  0.31654200  0.02706800  1
  C  1024  1  0.11029850  0.31999950  0.04549800  1
  C  1025  1  0.26671100  0.31729150  0.13393750  1
  C  1026  1  0.24849650  0.31654000  0.16367250  1
  C  1027  1  0.26754950  0.30699000  0.20187850  1
  C  1028  1  0.30558350  0.29789250  0.21177100  1
  C  1029  1  0.32516600  0.30016250  0.18329850  1
  C  1030  1  0.30604700  0.30969150  0.14506750  1
  C  1043  1  0.99682100  0.32045500  0.96707600  1
  C  1046  1  0.32277500  0.28366750  0.24962250  1
  C  1049  1  0.30445350  0.30875290  0.89625640  1
  C  1052  1  0.76966550  0.85589500  0.10539050  1
  C  1054  1  0.71461100  0.78175850  0.04089850  1
  C  1056  1  0.70830500  0.84605700  0.03412700  1
  C  1058  1  0.69932050  0.73458000  0.02062750  1
  C  1059  1  0.72191750  0.71523100  0.04683250  1
  C  1060  1  0.70655400  0.66855042  0.02699542  1
  C  1061  1  0.66805250  0.63966790  0.98019740  1
  C  1062  1  0.64588200  0.65879640  0.95357540  1
  C  1063  1  0.66125700  0.70546550  0.97346950  1
  C  1064  1  0.81241650  0.88469850  0.15081800  1
  C  1065  1  0.82826900  0.86562200  0.18160200  1
  C  1066  1  0.87374700  0.89311850  0.22427050  1
  C  1067  1  0.90519900  0.94047900  0.23723700  1
  C  1068  1  0.88856050  0.96014600  0.20762250  1
  C  1069  1  0.84275950  0.93275950  0.16522400  1
  C  1070  1  0.68636650  0.86485050  0.00607300  1
  C  1071  1  0.70457100  0.91278450  0.02357450  1
  C  1072  1  0.68553400  0.93195100  0.99498500  1
  C  1073  1  0.64749250  0.90383850  0.94784700  1
  C  1074  1  0.62790750  0.85579450  0.93050200  1
  C  1075  1  0.64703550  0.83667150  0.95912300  1
  C  1088  1  0.95621200  0.96776700  0.27916700  1
  C  1091  1  0.63028950  0.92451000  0.91645550  1
  C  1094  1  0.64872150  0.58951940  0.95961090  1
  C  1277  1  0.40473900  0.30057500  0.68471100  1
  C  1278  1  0.45269300  0.34070550  0.71364950  1
  C  1279  1  0.47430750  0.36032500  0.76179350  1
  C  1280  1  0.44798950  0.34123250  0.78210700  1
  C  1281  1  0.40033900  0.30023500  0.75269700  1
  C  1282  1  0.37883000  0.28042650  0.70456950  1
  C  1284  1  0.50528150  0.33185850  0.84884800  1
  C  1285  1  0.47894600  0.28524700  0.84164800  1
  C  1286  1  0.50053200  0.25870600  0.84363100  1
  C  1287  1  0.54849700  0.27770650  0.85148050  1
  C  1288  1  0.57442950  0.32345350  0.85723500  1
  C  1289  1  0.55293000  0.35007250  0.85550050  1
  C  1290  1  0.51468400  0.41745000  0.86769500  1
  C  1291  1  0.43857100  0.35076800  0.85831600  1
  C  1292  1  0.45013200  0.34412900  0.89932200  1
  C  1293  1  0.42180100  0.34244490  0.91911490  1
  C  1294  1  0.38181050  0.34820490  0.89893540  1
  C  1295  1  0.37062100  0.35598340  0.85877540  1
  C  1296  1  0.39916100  0.35797050  0.83917650  1
  C  1297  1  0.50308250  0.44684050  0.84943600  1
  C  1298  1  0.53142150  0.49496540  0.87601890  1
  C  1299  1  0.57141750  0.51482790  0.92178640  1
  C  1300  1  0.58261700  0.48591140  0.94082640  1
  C  1301  1  0.55410700  0.43777600  0.91431900  1
  C  1375  1  0.24696250  0.95388415  0.13972465  1
  C  1377  1  0.25672450  0.97300465  0.21392115  1
  C  1379  1  0.18558450  0.90240815  0.14964265  1
  C  1381  1  0.28369750  0.00490363  0.26111813  1
  C  1382  1  0.32927500  0.04682163  0.28044463  1
  C  1383  1  0.35618550  0.07814350  0.32714600  1
  C  1384  1  0.33830150  0.06857350  0.35606400  1
  C  1385  1  0.29252750  0.02730400  0.33695750  1
  C  1386  1  0.26569450  0.99599800  0.29027250  1
  C  1387  1  0.26353100  0.96780665  0.11087565  1
  C  1388  1  0.31339250  0.00270115  0.12990965  1
  C  1389  1  0.32851100  0.02068500  0.10238100  1
  C  1390  1  0.29406600  0.00480300  0.05503500  1
  C  1391  1  0.24477600  0.96853450  0.03540950  1
  C  1392  1  0.22982400  0.95008900  0.06281600  1
  C  1393  1  0.13873950  0.86168865  0.13088815  1
  C  1394  1  0.10824550  0.83193815  0.08294665  1
  C  1395  1  0.06051050  0.79372650  0.06383000  1
  C  1396  1  0.04155650  0.78382715  0.09200365  1
  C  1397  1  0.07230250  0.81232115  0.14004965  1
  C  1398  1  0.12003950  0.85056365  0.15912615  1
  C  1411  1  0.30866000  0.02853150  0.02772750  1
  C  1414  1  0.98950600  0.74594015  0.07138615  1
  C  1417  1  0.36791050  0.09941000  0.40622350  1
  C  1420  1  0.70605100  0.89041965  0.66247365  1
  C  1422  1  0.69634050  0.95486265  0.67188315  1
  C  1424  1  0.76742950  0.96167815  0.67233065  1
  C  1426  1  0.66941500  0.97511263  0.67686663  1
  C  1427  1  0.62383200  0.94888363  0.67321563  1
  C  1428  1  0.59696000  0.96869800  0.67766700  1
  C  1429  1  0.61487500  0.01549400  0.68599200  1
  C  1430  1  0.66066950  0.04214500  0.69051850  1
  C  1431  1  0.68746000  0.02226800  0.68599900  1
  C  1432  1  0.68947500  0.84501065  0.65982365  1
  C  1433  1  0.63962650  0.81420915  0.64491365  1
  C  1434  1  0.62450350  0.77156350  0.64775500  1
  C  1435  1  0.65893800  0.75864500  0.66625900  1
  C  1436  1  0.70820750  0.78827450  0.67920800  1
  C  1437  1  0.72316750  0.83064350  0.67575400  1
  C  1438  1  0.81427200  0.98974765  0.67843665  1
  C  1439  1  0.84473750  0.97228215  0.67914765  1
  C  1440  1  0.89247100  0.00087700  0.68865100  1
  C  1441  1  0.91146550  0.04800615  0.69775065  1
  C  1442  1  0.88074650  0.06532265  0.69553415  1
  C  1443  1  0.83300150  0.03668065  0.68603215  1
  C  1456  1  0.64435600  0.71674400  0.67538400  1
  C  1459  1  0.96352350  0.07941665  0.71192715  1
  C  1462  1  0.58527700  0.03605150  0.68719950  1
  C  1465  1  0.18339400  0.12951550  0.83790850  1
  C  1467  1  0.23849400  0.12018800  0.81882800  1
  C  1469  1  0.24477950  0.11964800  0.88943050  1
  C  1471  1  0.25380900  0.11526100  0.78694100  1
  C  1472  1  0.23123750  0.11891650  0.74501000  1
  C  1473  1  0.24662550  0.11449300  0.71369450  1
  C  1474  1  0.28511550  0.10618850  0.72329200  1
  C  1475  1  0.30724200  0.10166900  0.76456300  1
  C  1476  1  0.29186400  0.10616600  0.79586900  1
  C  1477  1  0.14062750  0.13216115  0.82397065  1
  C  1478  1  0.12478850  0.14713365  0.78907515  1
  C  1479  1  0.07928300  0.14426715  0.77107815  1
  C  1480  1  0.04783350  0.12575465  0.78698915  1
  C  1481  1  0.06447200  0.11275215  0.82327815  1
  C  1482  1  0.11029850  0.11620965  0.84170815  1
  C  1483  1  0.26671100  0.11350150  0.93014750  1
  C  1484  1  0.24849650  0.11275015  0.95988265  1
  C  1485  1  0.26754950  0.10320015  0.99808865  1
  C  1486  1  0.30558350  0.09410250  0.00798100  1
  C  1487  1  0.32516600  0.09637250  0.97950850  1
  C  1488  1  0.30604700  0.10590150  0.94127750  1
  C  1501  1  0.99682100  0.11666515  0.76328615  1
  C  1504  1  0.32277500  0.07987765  0.04583265  1
  C  1507  1  0.30445350  0.10496300  0.69246650  1
  C  1510  1  0.76966550  0.65210500  0.90160050  1
  C  1512  1  0.71461100  0.57796850  0.83710850  1
  C  1514  1  0.70830500  0.64226700  0.83033700  1
  C  1516  1  0.69932050  0.53079000  0.81683750  1
  C  1517  1  0.72191750  0.51144100  0.84304250  1
  C  1518  1  0.70655400  0.46476050  0.82320550  1
  C  1519  1  0.66805250  0.43587800  0.77640750  1
  C  1520  1  0.64588200  0.45500650  0.74978550  1
  C  1521  1  0.66125700  0.50167550  0.76967950  1
  C  1522  1  0.81241650  0.68090865  0.94702815  1
  C  1523  1  0.82826900  0.66183215  0.97781215  1
  C  1524  1  0.87374700  0.68932865  0.02048065  1
  C  1525  1  0.90519900  0.73668915  0.03344715  1
  C  1526  1  0.88856050  0.75635615  0.00383265  1
  C  1527  1  0.84275950  0.72896965  0.96143415  1
  C  1528  1  0.68636650  0.66106050  0.80228300  1
  C  1529  1  0.70457100  0.70899465  0.81978465  1
  C  1530  1  0.68553400  0.72816115  0.79119515  1
  C  1531  1  0.64749250  0.70004850  0.74405700  1
  C  1532  1  0.62790750  0.65200450  0.72671200  1
  C  1533  1  0.64703550  0.63288150  0.75533300  1
  C  1546  1  0.95621200  0.76397715  0.07537715  1
  C  1549  1  0.63028950  0.72072015  0.71266565  1
  C  1552  1  0.64872150  0.38572950  0.75582100  1
  C  1735  1  0.40473900  0.09678500  0.48092100  1
  C  1736  1  0.45269300  0.13691550  0.50985950  1
  C  1737  1  0.47430750  0.15653500  0.55800350  1
  C  1738  1  0.44798950  0.13744250  0.57831700  1
  C  1739  1  0.40033900  0.09644500  0.54890700  1
  C  1740  1  0.37883000  0.07663650  0.50077950  1
  C  1742  1  0.50528150  0.12806850  0.64505800  1
  C  1743  1  0.47894600  0.08145700  0.63785800  1
  C  1744  1  0.50053200  0.05491600  0.63984100  1
  C  1745  1  0.54849700  0.07391650  0.64769050  1
  C  1746  1  0.57442950  0.11966350  0.65344500  1
  C  1747  1  0.55293000  0.14628250  0.65171050  1
  C  1748  1  0.51468400  0.21366000  0.66390500  1
  C  1749  1  0.43857100  0.14697800  0.65452600  1
  C  1750  1  0.45013200  0.14033900  0.69553200  1
  C  1751  1  0.42180100  0.13865500  0.71532500  1
  C  1752  1  0.38181050  0.14441500  0.69514550  1
  C  1753  1  0.37062100  0.15219350  0.65498550  1
  C  1754  1  0.39916100  0.15418050  0.63538650  1
  C  1755  1  0.50308250  0.24305050  0.64564600  1
  C  1756  1  0.53142150  0.29117550  0.67222900  1
  C  1757  1  0.57141750  0.31103800  0.71799650  1
  C  1758  1  0.58261700  0.28212150  0.73703650  1
  C  1759  1  0.55410700  0.23398600  0.71052900  1
  H  25  1  0.36438200  0.65850700  0.72904100  1
  H  26  1  0.33911950  0.62788650  0.77583800  1
  H  27  1  0.21871150  0.56802150  0.61273300  1
  H  28  1  0.19321650  0.53694950  0.65906300  1
  H  29  1  0.11978700  0.44979750  0.67230850  1
  H  30  1  0.03907000  0.38539950  0.64016950  1
  H  31  1  0.14043900  0.48227250  0.80532950  1
  H  32  1  0.05952500  0.41754750  0.77269450  1
  H  33  1  0.23295600  0.57768600  0.88944000  1
  H  34  1  0.27884600  0.63071500  0.96860400  1
  H  35  1  0.38947650  0.71891250  0.95146100  1
  H  36  1  0.34397800  0.66630150  0.87230450  1
  H  38  1  0.27842000  0.62068350  0.60269250  1
  H  39  1  0.34006550  0.63892900  0.64037650  1
  H  41  1  0.98951400  0.33433300  0.69996800  1
  H  42  1  0.97372000  0.33631000  0.64637900  1
  H  44  1  0.34513200  0.72054200  0.02598300  1
  H  45  1  0.40077500  0.74260100  0.02668700  1
  H  70  1  0.58864000  0.36236400  0.24974100  1
  H  71  1  0.61390750  0.43441600  0.24439650  1
  H  72  1  0.73427700  0.39167300  0.30475900  1
  H  73  1  0.75976750  0.46348350  0.29919000  1
  H  74  1  0.83318400  0.55011500  0.28546700  1
  H  75  1  0.91390450  0.59865400  0.30178050  1
  H  76  1  0.81261450  0.66249050  0.29734800  1
  H  77  1  0.89353950  0.71073950  0.31353300  1
  H  78  1  0.72020700  0.65416150  0.30042650  1
  H  79  1  0.67436350  0.68746050  0.30760000  1
  H  80  1  0.56364400  0.55972850  0.28510850  1
  H  81  1  0.60909450  0.52604100  0.27796050  1
  H  83  1  0.67458500  0.32194250  0.29772950  1
  H  84  1  0.61292800  0.29800200  0.25437000  1
  H  86  1  0.96354550  0.70800850  0.30032800  1
  H  87  1  0.97929100  0.67019050  0.31806350  1
  H  89  1  0.60805000  0.67858800  0.33111300  1
  H  90  1  0.55239700  0.62366750  0.29751550  1
  H  115  1  0.06813700  0.76507650  0.35600550  1
  H  116  1  0.14552750  0.77039100  0.38661650  1
  H  117  1  0.04230700  0.70995800  0.44653700  1
  H  118  1  0.11967600  0.71548950  0.47759650  1
  H  119  1  0.21999350  0.72915300  0.56473950  1
  H  120  1  0.25215600  0.71276250  0.62910350  1
  H  121  1  0.32058950  0.71737950  0.53234300  1
  H  122  1  0.35258800  0.70111600  0.59704000  1
  H  123  1  0.30932300  0.71447200  0.43692500  1
  H  124  1  0.33548900  0.70733850  0.38391850  1
  H  125  1  0.23020000  0.72977000  0.29566200  1
  H  126  1  0.20362450  0.73687800  0.34825250  1
  H  128  1  0.97965400  0.71705500  0.39389900  1
  H  129  1  0.99911750  0.76042250  0.37562800  1
  H  131  1  0.36296500  0.71419850  0.68021350  1
  H  132  1  0.30738200  0.69644450  0.67819050  1
  H  134  1  0.30307500  0.68379000  0.29407600  1
  H  135  1  0.28174500  0.71737200  0.27200400  1
  H  160  1  0.88491800  0.28537750  0.65239150  1
  H  161  1  0.80753650  0.23863500  0.58030250  1
  H  162  1  0.91071900  0.40178500  0.62323500  1
  H  163  1  0.83334800  0.35550450  0.55137750  1
  H  164  1  0.73307300  0.34233450  0.46470050  1
  H  165  1  0.70090200  0.37455800  0.41619000  1
  H  166  1  0.63252350  0.20942300  0.35223450  1
  H  167  1  0.60051000  0.24213700  0.30401500  1
  H  168  1  0.64376650  0.12526150  0.36054400  1
  H  169  1  0.61763300  0.04612250  0.32719950  1
  H  170  1  0.72300650  0.06316450  0.45489200  1
  H  171  1  0.74954950  0.14229400  0.48861850  1
  H  173  1  0.97337900  0.41175750  0.69296850  1
  H  174  1  0.95390900  0.37398600  0.71684000  1
  H  176  1  0.59010250  0.31492100  0.30682750  1
  H  177  1  0.64570300  0.36846100  0.34465100  1
  H  179  1  0.65007850  0.98873200  0.33600450  1
  H  180  1  0.67145400  0.98798750  0.39092750  1
  H  386  1  0.43122550  0.74569500  0.35659250  1
  H  387  1  0.48011650  0.74926300  0.32381050  1
  H  388  1  0.34282800  0.76952400  0.25229200  1
  H  389  1  0.39112750  0.77324300  0.21879050  1
  H  390  1  0.47309750  0.84130900  0.22457250  1
  H  391  1  0.52195100  0.92297450  0.26981150  1
  H  392  1  0.61044600  0.90726850  0.38215950  1
  H  393  1  0.56217450  0.82546650  0.33766400  1
  H  394  1  0.57229000  0.79008500  0.26554000  1
  H  395  1  0.60867250  0.74480550  0.26917700  1
  H  396  1  0.48054750  0.63255700  0.24533450  1
  H  397  1  0.44329500  0.67709500  0.24155000  1
  H  398  1  0.38099150  0.69093900  0.17337850  1
  H  399  1  0.50995950  0.79586800  0.18927650  1
  H  400  1  0.47269100  0.76233300  0.10746500  1
  H  401  1  0.34459600  0.65812150  0.09169850  1
  H  403  1  0.35735500  0.78690400  0.33627700  1
  H  405  1  0.59584400  0.97664400  0.38490600  1
  H  407  1  0.54718200  0.62973250  0.22797450  1
  H  409  1  0.40605450  0.67835050  0.03805300  1
  H  483  1  0.36438200  0.45471700  0.52525100  1
  H  484  1  0.33911950  0.42409650  0.57204800  1
  H  485  1  0.21871150  0.36423150  0.40894300  1
  H  486  1  0.19321650  0.33315950  0.45527300  1
  H  487  1  0.11978700  0.24600750  0.46851850  1
  H  488  1  0.03907000  0.18160950  0.43637950  1
  H  489  1  0.14043900  0.27848250  0.60153950  1
  H  490  1  0.05952500  0.21375750  0.56890450  1
  H  491  1  0.23295600  0.37389620  0.68565020  1
  H  492  1  0.27884600  0.42692520  0.76481420  1
  H  493  1  0.38947650  0.51512270  0.74767120  1
  H  494  1  0.34397800  0.46251150  0.66851450  1
  H  496  1  0.27842000  0.41689350  0.39890250  1
  H  497  1  0.34006550  0.43513900  0.43658650  1
  H  499  1  0.98951400  0.13054300  0.49617800  1
  H  500  1  0.97372000  0.13252000  0.44258900  1
  H  502  1  0.34513200  0.51675221  0.82219321  1
  H  503  1  0.40077500  0.53881120  0.82289720  1
  H  528  1  0.58864000  0.15857400  0.04595100  1
  H  529  1  0.61390750  0.23062600  0.04060650  1
  H  530  1  0.73427700  0.18788300  0.10096900  1
  H  531  1  0.75976750  0.25969350  0.09540000  1
  H  532  1  0.83318400  0.34632500  0.08167700  1
  H  533  1  0.91390450  0.39486400  0.09799050  1
  H  534  1  0.81261450  0.45870050  0.09355800  1
  H  535  1  0.89353950  0.50694950  0.10974300  1
  H  536  1  0.72020700  0.45037170  0.09663670  1
  H  537  1  0.67436350  0.48367070  0.10381020  1
  H  538  1  0.56364400  0.35593870  0.08131870  1
  H  539  1  0.60909450  0.32225100  0.07417050  1
  H  541  1  0.67458500  0.11815250  0.09393950  1
  H  542  1  0.61292800  0.09421200  0.05058000  1
  H  544  1  0.96354550  0.50421850  0.09653800  1
  H  545  1  0.97929100  0.46640050  0.11427350  1
  H  547  1  0.60805000  0.47479821  0.12732321  1
  H  548  1  0.55239700  0.41987770  0.09372570  1
  H  573  1  0.06813700  0.56128650  0.15221550  1
  H  574  1  0.14552750  0.56660100  0.18282650  1
  H  575  1  0.04230700  0.50616800  0.24274700  1
  H  576  1  0.11967600  0.51169950  0.27380650  1
  H  577  1  0.21999350  0.52536300  0.36094950  1
  H  578  1  0.25215600  0.50897250  0.42531350  1
  H  579  1  0.32058950  0.51358950  0.32855300  1
  H  580  1  0.35258800  0.49732600  0.39325000  1
  H  581  1  0.30932300  0.51068200  0.23313500  1
  H  582  1  0.33548900  0.50354850  0.18012850  1
  H  583  1  0.23020000  0.52598000  0.09187200  1
  H  584  1  0.20362450  0.53308800  0.14446250  1
  H  586  1  0.97965400  0.51326500  0.19010900  1
  H  587  1  0.99911750  0.55663250  0.17183800  1
  H  589  1  0.36296500  0.51040850  0.47642350  1
  H  590  1  0.30738200  0.49265450  0.47440050  1
  H  592  1  0.30307500  0.48000000  0.09028600  1
  H  593  1  0.28174500  0.51358200  0.06821400  1
  H  618  1  0.88491800  0.08158750  0.44860150  1
  H  619  1  0.80753650  0.03484500  0.37651250  1
  H  620  1  0.91071900  0.19799500  0.41944500  1
  H  621  1  0.83334800  0.15171450  0.34758750  1
  H  622  1  0.73307300  0.13854450  0.26091050  1
  H  623  1  0.70090200  0.17076800  0.21240000  1
  H  624  1  0.63252350  0.00563300  0.14844450  1
  H  625  1  0.60051000  0.03834700  0.10022500  1
  H  626  1  0.64376650  0.92147150  0.15675400  1
  H  627  1  0.61763300  0.84233250  0.12340950  1
  H  628  1  0.72300650  0.85937450  0.25110200  1
  H  629  1  0.74954950  0.93850400  0.28482850  1
  H  631  1  0.97337900  0.20796750  0.48917850  1
  H  632  1  0.95390900  0.17019600  0.51305000  1
  H  634  1  0.59010250  0.11113100  0.10303750  1
  H  635  1  0.64570300  0.16467100  0.14086100  1
  H  637  1  0.65007850  0.78494200  0.13221450  1
  H  638  1  0.67145400  0.78419750  0.18713750  1
  H  844  1  0.43122550  0.54190500  0.15280250  1
  H  845  1  0.48011650  0.54547300  0.12002050  1
  H  846  1  0.34282800  0.56573400  0.04850200  1
  H  847  1  0.39112750  0.56945300  0.01500050  1
  H  848  1  0.47309750  0.63751900  0.02078250  1
  H  849  1  0.52195100  0.71918450  0.06602150  1
  H  850  1  0.61044600  0.70347850  0.17836950  1
  H  851  1  0.56217450  0.62167650  0.13387400  1
  H  852  1  0.57229000  0.58629500  0.06175000  1
  H  853  1  0.60867250  0.54101571  0.06538721  1
  H  854  1  0.48054750  0.42876721  0.04154471  1
  H  855  1  0.44329500  0.47330500  0.03776000  1
  H  856  1  0.38099150  0.48714900  0.96958850  1
  H  857  1  0.50995950  0.59207800  0.98548650  1
  H  858  1  0.47269100  0.55854321  0.90367521  1
  H  859  1  0.34459600  0.45433171  0.88790871  1
  H  861  1  0.35735500  0.58311400  0.13248700  1
  H  863  1  0.59584400  0.77285400  0.18111600  1
  H  865  1  0.54718200  0.42594270  0.02418470  1
  H  867  1  0.40605450  0.47456070  0.83426320  1
  H  941  1  0.36438200  0.25092800  0.32146200  1
  H  942  1  0.33911950  0.22030750  0.36825900  1
  H  943  1  0.21871150  0.16044250  0.20515400  1
  H  944  1  0.19321650  0.12937050  0.25148400  1
  H  945  1  0.11978700  0.04221850  0.26472950  1
  H  946  1  0.03907000  0.97782050  0.23259050  1
  H  947  1  0.14043900  0.07469350  0.39775050  1
  H  948  1  0.05952500  0.00996850  0.36511550  1
  H  949  1  0.23295600  0.17010700  0.48186100  1
  H  950  1  0.27884600  0.22313600  0.56102500  1
  H  951  1  0.38947650  0.31133350  0.54388200  1
  H  952  1  0.34397800  0.25872250  0.46472550  1
  H  954  1  0.27842000  0.21310450  0.19511350  1
  H  955  1  0.34006550  0.23135000  0.23279750  1
  H  957  1  0.98951400  0.92675400  0.29238900  1
  H  958  1  0.97372000  0.92873100  0.23880000  1
  H  960  1  0.34513200  0.31296300  0.61840400  1
  H  961  1  0.40077500  0.33502200  0.61910800  1
  H  986  1  0.58864000  0.95478500  0.84216200  1
  H  987  1  0.61390750  0.02683700  0.83681750  1
  H  988  1  0.73427700  0.98409400  0.89718000  1
  H  989  1  0.75976750  0.05590450  0.89161100  1
  H  990  1  0.83318400  0.14253600  0.87788800  1
  H  991  1  0.91390450  0.19107500  0.89420150  1
  H  992  1  0.81261450  0.25491150  0.88976900  1
  H  993  1  0.89353950  0.30316050  0.90595400  1
  H  994  1  0.72020700  0.24658250  0.89284750  1
  H  995  1  0.67436350  0.27988150  0.90002100  1
  H  996  1  0.56364400  0.15214950  0.87752950  1
  H  997  1  0.60909450  0.11846200  0.87038150  1
  H  999  1  0.67458500  0.91436350  0.89015050  1
  H  1000  1  0.61292800  0.89042300  0.84679100  1
  H  1002  1  0.96354550  0.30042950  0.89274900  1
  H  1003  1  0.97929100  0.26261150  0.91048450  1
  H  1005  1  0.60805000  0.27100900  0.92353400  1
  H  1006  1  0.55239700  0.21608850  0.88993650  1
  H  1031  1  0.06813700  0.35749750  0.94842650  1
  H  1032  1  0.14552750  0.36281200  0.97903750  1
  H  1033  1  0.04230700  0.30237900  0.03895800  1
  H  1034  1  0.11967600  0.30791050  0.07001750  1
  H  1035  1  0.21999350  0.32157400  0.15716050  1
  H  1036  1  0.25215600  0.30518350  0.22152450  1
  H  1037  1  0.32058950  0.30980050  0.12476400  1
  H  1038  1  0.35258800  0.29353700  0.18946100  1
  H  1039  1  0.30932300  0.30689300  0.02934600  1
  H  1040  1  0.33548900  0.29975940  0.97633940  1
  H  1041  1  0.23020000  0.32219092  0.88808292  1
  H  1042  1  0.20362450  0.32929900  0.94067350  1
  H  1044  1  0.97965400  0.30947600  0.98632000  1
  H  1045  1  0.99911750  0.35284350  0.96804900  1
  H  1047  1  0.36296500  0.30661950  0.27263450  1
  H  1048  1  0.30738200  0.28886550  0.27061150  1
  H  1050  1  0.30307500  0.27621090  0.88649690  1
  H  1051  1  0.28174500  0.30979290  0.86442490  1
  H  1076  1  0.88491800  0.87779850  0.24481250  1
  H  1077  1  0.80753650  0.83105600  0.17272350  1
  H  1078  1  0.91071900  0.99420600  0.21565600  1
  H  1079  1  0.83334800  0.94792550  0.14379850  1
  H  1080  1  0.73307300  0.93475550  0.05712150  1
  H  1081  1  0.70090200  0.96697900  0.00861100  1
  H  1082  1  0.63252350  0.80184400  0.94465550  1
  H  1083  1  0.60051000  0.83455800  0.89643600  1
  H  1084  1  0.64376650  0.71768250  0.95296500  1
  H  1085  1  0.61763300  0.63854340  0.91962040  1
  H  1086  1  0.72300650  0.65558542  0.04731292  1
  H  1087  1  0.74954950  0.73471500  0.08103950  1
  H  1089  1  0.97337900  0.00417850  0.28538950  1
  H  1090  1  0.95390900  0.96640700  0.30926100  1
  H  1092  1  0.59010250  0.90734200  0.89924850  1
  H  1093  1  0.64570300  0.96088200  0.93707200  1
  H  1095  1  0.65007850  0.58115290  0.92842540  1
  H  1096  1  0.67145400  0.58040840  0.98334840  1
  H  1302  1  0.43122550  0.33811590  0.94901340  1
  H  1303  1  0.48011650  0.34168400  0.91623150  1
  H  1304  1  0.34282800  0.36194490  0.84471290  1
  H  1305  1  0.39112750  0.36566400  0.81121150  1
  H  1306  1  0.47309750  0.43373000  0.81699350  1
  H  1307  1  0.52195100  0.51539540  0.86223240  1
  H  1308  1  0.61044600  0.49968940  0.97458040  1
  H  1309  1  0.56217450  0.41788750  0.93008500  1
  H  1310  1  0.57229000  0.38250600  0.85796100  1
  H  1311  1  0.60867250  0.33722650  0.86159800  1
  H  1312  1  0.48054750  0.22497800  0.83775550  1
  H  1313  1  0.44329500  0.26951600  0.83397100  1
  H  1314  1  0.38099150  0.28336000  0.76579950  1
  H  1315  1  0.50995950  0.38828900  0.78169750  1
  H  1316  1  0.47269100  0.35475400  0.69988600  1
  H  1317  1  0.34459600  0.25054250  0.68411950  1
  H  1319  1  0.35735500  0.37932490  0.92869790  1
  H  1321  1  0.59584400  0.56906490  0.97732690  1
  H  1323  1  0.54718200  0.22215350  0.82039550  1
  H  1325  1  0.40605450  0.27077150  0.63047400  1
  H  1399  1  0.36438200  0.04713815  0.11767215  1
  H  1400  1  0.33911950  0.01651765  0.16446915  1
  H  1401  1  0.21871150  0.95665250  0.00136400  1
  H  1402  1  0.19321650  0.92558050  0.04769400  1
  H  1403  1  0.11978700  0.83842850  0.06093950  1
  H  1404  1  0.03907000  0.77403050  0.02880050  1
  H  1405  1  0.14043900  0.87090365  0.19396065  1
  H  1406  1  0.05952500  0.80617865  0.16132565  1
  H  1407  1  0.23295600  0.96631700  0.27807100  1
  H  1408  1  0.27884600  0.01934600  0.35723500  1
  H  1409  1  0.38947650  0.10754350  0.34009200  1
  H  1410  1  0.34397800  0.05493265  0.26093565  1
  H  1412  1  0.27842000  0.00931450  0.99132350  1
  H  1413  1  0.34006550  0.02756000  0.02900750  1
  H  1415  1  0.98951400  0.72296415  0.08859915  1
  H  1416  1  0.97372000  0.72494100  0.03501000  1
  H  1418  1  0.34513200  0.10917300  0.41461400  1
  H  1419  1  0.40077500  0.13123200  0.41531800  1
  H  1444  1  0.58864000  0.75099515  0.63837215  1
  H  1445  1  0.61390750  0.82304715  0.63302765  1
  H  1446  1  0.73427700  0.78030400  0.69339000  1
  H  1447  1  0.75976750  0.85211450  0.68782100  1
  H  1448  1  0.83318400  0.93874600  0.67409800  1
  H  1449  1  0.91390450  0.98728500  0.69041150  1
  H  1450  1  0.81261450  0.05112165  0.68597915  1
  H  1451  1  0.89353950  0.09937065  0.70216415  1
  H  1452  1  0.72020700  0.04279250  0.68905750  1
  H  1453  1  0.67436350  0.07609150  0.69623100  1
  H  1454  1  0.56364400  0.94835950  0.67373950  1
  H  1455  1  0.60909450  0.91467215  0.66659165  1
  H  1457  1  0.67458500  0.71057350  0.68636050  1
  H  1458  1  0.61292800  0.68663300  0.64300100  1
  H  1460  1  0.96354550  0.09663965  0.68895915  1
  H  1461  1  0.97929100  0.05882150  0.70669450  1
  H  1463  1  0.60805000  0.06721900  0.71974400  1
  H  1464  1  0.55239700  0.01229850  0.68614650  1
  H  1489  1  0.06813700  0.15370765  0.74463665  1
  H  1490  1  0.14552750  0.15902200  0.77524750  1
  H  1491  1  0.04230700  0.09858915  0.83516815  1
  H  1492  1  0.11967600  0.10412065  0.86622765  1
  H  1493  1  0.21999350  0.11778415  0.95337065  1
  H  1494  1  0.25215600  0.10139365  0.01773465  1
  H  1495  1  0.32058950  0.10601050  0.92097400  1
  H  1496  1  0.35258800  0.08974700  0.98567100  1
  H  1497  1  0.30932300  0.10310300  0.82555600  1
  H  1498  1  0.33548900  0.09596950  0.77254950  1
  H  1499  1  0.23020000  0.11840100  0.68429300  1
  H  1500  1  0.20362450  0.12550900  0.73688350  1
  H  1502  1  0.97965400  0.10568615  0.78253015  1
  H  1503  1  0.99911750  0.14905365  0.76425915  1
  H  1505  1  0.36296500  0.10282965  0.06884465  1
  H  1506  1  0.30738200  0.08507565  0.06682165  1
  H  1508  1  0.30307500  0.07242100  0.68270700  1
  H  1509  1  0.28174500  0.10600300  0.66063500  1
  H  1534  1  0.88491800  0.67400865  0.04102265  1
  H  1535  1  0.80753650  0.62726600  0.96893350  1
  H  1536  1  0.91071900  0.79041615  0.01186615  1
  H  1537  1  0.83334800  0.74413565  0.94000865  1
  H  1538  1  0.73307300  0.73096565  0.85333165  1
  H  1539  1  0.70090200  0.76318915  0.80482115  1
  H  1540  1  0.63252350  0.59805400  0.74086550  1
  H  1541  1  0.60051000  0.63076800  0.69264600  1
  H  1542  1  0.64376650  0.51389250  0.74917500  1
  H  1543  1  0.61763300  0.43475350  0.71583050  1
  H  1544  1  0.72300650  0.45179550  0.84352300  1
  H  1545  1  0.74954950  0.53092500  0.87724950  1
  H  1547  1  0.97337900  0.80038865  0.08159965  1
  H  1548  1  0.95390900  0.76261715  0.10547115  1
  H  1550  1  0.59010250  0.70355215  0.69545865  1
  H  1551  1  0.64570300  0.75709215  0.73328215  1
  H  1553  1  0.65007850  0.37736300  0.72463550  1
  H  1554  1  0.67145400  0.37661850  0.77955850  1
  H  1760  1  0.43122550  0.13432600  0.74522350  1
  H  1761  1  0.48011650  0.13789400  0.71244150  1
  H  1762  1  0.34282800  0.15815500  0.64092300  1
  H  1763  1  0.39112750  0.16187400  0.60742150  1
  H  1764  1  0.47309750  0.22994000  0.61320350  1
  H  1765  1  0.52195100  0.31160550  0.65844250  1
  H  1766  1  0.61044600  0.29589950  0.77079050  1
  H  1767  1  0.56217450  0.21409750  0.72629500  1
  H  1768  1  0.57229000  0.17871600  0.65417100  1
  H  1769  1  0.60867250  0.13343650  0.65780800  1
  H  1770  1  0.48054750  0.02118800  0.63396550  1
  H  1771  1  0.44329500  0.06572600  0.63018100  1
  H  1772  1  0.38099150  0.07957000  0.56200950  1
  H  1773  1  0.50995950  0.18449900  0.57790750  1
  H  1774  1  0.47269100  0.15096400  0.49609600  1
  H  1775  1  0.34459600  0.04675250  0.48032950  1
  H  1777  1  0.35735500  0.17553500  0.72490800  1
  H  1779  1  0.59584400  0.36527500  0.77353700  1
  H  1781  1  0.54718200  0.01836350  0.61660550  1
  H  1783  1  0.40605450  0.06698150  0.42668400  1
  N  2  1  0.27254250  0.59398900  0.79666650  1
  N  4  1  0.21303650  0.54407950  0.80635400  1
  N  6  1  0.20322150  0.52565300  0.73401150  1
  N  47  1  0.68050400  0.52179700  0.27704500  1
  N  49  1  0.74001450  0.59095600  0.28660750  1
  N  51  1  0.74977650  0.52842250  0.27794000  1
  N  92  1  0.20025050  0.73774550  0.42055600  1
  N  94  1  0.25983200  0.72816600  0.47050200  1
  N  96  1  0.20590100  0.73676050  0.48889650  1
  N  137  1  0.75283150  0.21791700  0.49293050  1
  N  139  1  0.69327150  0.20830700  0.42376650  1
  N  141  1  0.74716350  0.28058700  0.48634850  1
  N  402  1  0.35616450  0.75627300  0.32897450  1
  N  404  1  0.59702550  0.97050800  0.35545150  1
  N  406  1  0.57048900  0.65917600  0.25861200  1
  N  408  1  0.38273700  0.68566600  0.04418400  1
  N  460  1  0.27254250  0.39019900  0.59287650  1
  N  462  1  0.21303650  0.34028950  0.60256400  1
  N  464  1  0.20322150  0.32186300  0.53022150  1
  N  505  1  0.68050400  0.31800700  0.07325500  1
  N  507  1  0.74001450  0.38716600  0.08281750  1
  N  509  1  0.74977650  0.32463250  0.07415000  1
  N  550  1  0.20025050  0.53395550  0.21676600  1
  N  552  1  0.25983200  0.52437600  0.26671200  1
  N  554  1  0.20590100  0.53297050  0.28510650  1
  N  595  1  0.75283150  0.01412700  0.28914050  1
  N  597  1  0.69327150  0.00451700  0.21997650  1
  N  599  1  0.74716350  0.07679700  0.28255850  1
  N  860  1  0.35616450  0.55248300  0.12518450  1
  N  862  1  0.59702550  0.76671800  0.15166150  1
  N  864  1  0.57048900  0.45538620  0.05482220  1
  N  866  1  0.38273700  0.48187620  0.84039420  1
  N  918  1  0.27254250  0.18641000  0.38908750  1
  N  920  1  0.21303650  0.13650050  0.39877500  1
  N  922  1  0.20322150  0.11807400  0.32643250  1
  N  963  1  0.68050400  0.11421800  0.86946600  1
  N  965  1  0.74001450  0.18337700  0.87902850  1
  N  967  1  0.74977650  0.12084350  0.87036100  1
  N  1008  1  0.20025050  0.33016650  0.01297700  1
  N  1010  1  0.25983200  0.32058700  0.06292300  1
  N  1012  1  0.20590100  0.32918150  0.08131750  1
  N  1053  1  0.75283150  0.81033800  0.08535150  1
  N  1055  1  0.69327150  0.80072800  0.01618750  1
  N  1057  1  0.74716350  0.87300800  0.07876950  1
  N  1318  1  0.35616450  0.34869390  0.92139540  1
  N  1320  1  0.59702550  0.56292890  0.94787240  1
  N  1322  1  0.57048900  0.25159700  0.85103300  1
  N  1324  1  0.38273700  0.27808700  0.63660500  1
  N  1376  1  0.27254250  0.98262015  0.18529765  1
  N  1378  1  0.21303650  0.93271065  0.19498515  1
  N  1380  1  0.20322150  0.91428415  0.12264265  1
  N  1421  1  0.68050400  0.91042815  0.66567615  1
  N  1423  1  0.74001450  0.97958715  0.67523865  1
  N  1425  1  0.74977650  0.91705365  0.66657115  1
  N  1466  1  0.20025050  0.12637650  0.80918700  1
  N  1468  1  0.25983200  0.11679700  0.85913300  1
  N  1470  1  0.20590100  0.12539150  0.87752750  1
  N  1511  1  0.75283150  0.60654800  0.88156150  1
  N  1513  1  0.69327150  0.59693800  0.81239750  1
  N  1515  1  0.74716350  0.66921800  0.87497950  1
  N  1776  1  0.35616450  0.14490400  0.71760550  1
  N  1778  1  0.59702550  0.35913900  0.74408250  1
  N  1780  1  0.57048900  0.04780700  0.64724300  1
  N  1782  1  0.38273700  0.07429700  0.43281500  1
  Si  367  1  0.47663100  0.76790450  0.24682150  1
  Si  825  1  0.47663100  0.56411450  0.04303150  1
  Si  1283  1  0.47663100  0.36032550  0.83924250  1
  Si  1741  1  0.47663100  0.15653550  0.63545250  1
