# generated using pymatgen
data_H14C20(NO)3
_symmetry_space_group_name_H-M   'P 1'
_cell_length_a   54.42980000
_cell_length_b   54.42980000
_cell_length_c   54.42980000
_cell_angle_alpha   90.00000000
_cell_angle_beta   90.00000000
_cell_angle_gamma   90.00000000
_symmetry_Int_Tables_number   1
_chemical_formula_structural   H14C20(NO)3
_chemical_formula_sum   'H672 C960 N144 O144'
_cell_volume   161253.89573859
_cell_formula_units_Z   48
loop_
 _symmetry_equiv_pos_site_id
 _symmetry_equiv_pos_as_xyz
  1  'x, y, z'
loop_
 _atom_site_type_symbol
 _atom_site_label
 _atom_site_symmetry_multiplicity
 _atom_site_fract_x
 _atom_site_fract_y
 _atom_site_fract_z
 _atom_site_occupancy
  H  7  1  0.22880300  0.95931400  0.49947600  1
  H  8  1  0.16786000  0.00204400  0.47837200  1
  H  15  1  0.33065500  0.98510400  0.50944000  1
  H  16  1  0.27104800  0.99768900  0.46195100  1
  H  19  1  0.24487900  0.04364300  0.47131300  1
  H  20  1  0.25163200  0.97251100  0.54638100  1
  H  35  1  0.76790500  0.03805000  0.50020600  1
  H  36  1  0.83130500  0.99645900  0.48530000  1
  H  43  1  0.66666667  0.01077700  0.50740600  1
  H  44  1  0.72730000  0.99949700  0.46077500  1
  H  47  1  0.75537500  0.95393900  0.46985600  1
  H  48  1  0.74468000  0.02292200  0.54624800  1
  H  63  1  0.50368400  0.22851800  0.96355700  1
  H  64  1  0.48368300  0.16781400  0.00694000  1
  H  71  1  0.50922300  0.33128200  0.98625500  1
  H  72  1  0.46250600  0.27133300  0.00014200  1
  H  75  1  0.46873600  0.24541000  0.04530600  1
  H  76  1  0.54784700  0.25302300  0.97614300  1
  H  91  1  0.50283500  0.77014200  0.03258300  1
  H  92  1  0.48295200  0.83075800  0.98904100  1
  H  99  1  0.50869700  0.66761000  0.01151400  1
  H  100  1  0.46187200  0.72732800  0.99670700  1
  H  103  1  0.46840700  0.75292000  0.95079300  1
  H  104  1  0.54753800  0.74605100  0.01920800  1
  H  119  1  0.96367400  0.50331800  0.22832900  1
  H  120  1  0.00722400  0.48371800  0.16761700  1
  H  127  1  0.98557600  0.50871000  0.33105000  1
  H  128  1  0.00004200  0.46223600  0.27098600  1
  H  131  1  0.04557300  0.46889900  0.24528800  1
  H  132  1  0.97670700  0.54782100  0.25286700  1
  H  147  1  0.03264300  0.50380100  0.76918000  1
  H  148  1  0.98941200  0.48355900  0.82990000  1
  H  155  1  0.01084100  0.50910700  0.66659100  1
  H  156  1  0.99637700  0.46253500  0.72651500  1
  H  159  1  0.95096400  0.46878900  0.75229000  1
  H  160  1  0.01984800  0.54800100  0.74484200  1
  H  175  1  0.96225600  0.22708000  0.49970000  1
  H  176  1  0.00825900  0.16615700  0.51210700  1
  H  183  1  0.98846200  0.33083500  0.49523000  1
  H  184  1  0.00330900  0.26769300  0.53710600  1
  H  187  1  0.04830200  0.24379700  0.52202100  1
  H  188  1  0.97011900  0.25476100  0.45423500  1
  H  203  1  0.03607800  0.77121300  0.50115000  1
  H  204  1  0.98910900  0.83065300  0.51659400  1
  H  211  1  0.01593700  0.66823300  0.49072600  1
  H  212  1  0.99595200  0.72803500  0.53543100  1
  H  215  1  0.95009500  0.75191500  0.52107100  1
  H  216  1  0.02813700  0.74704300  0.45323500  1
  H  231  1  0.22838000  0.50061000  0.03502300  1
  H  232  1  0.16524800  0.48934800  0.99187000  1
  H  239  1  0.33098000  0.50201000  0.00540400  1
  H  240  1  0.26662600  0.46136500  0.99234200  1
  H  243  1  0.24063100  0.47535900  0.94910500  1
  H  244  1  0.25656200  0.54442000  0.02637200  1
  H  259  1  0.76994900  0.49992800  0.96288200  1
  H  260  1  0.83095100  0.48568400  0.00808200  1
  H  267  1  0.66730200  0.50598200  0.98393900  1
  H  268  1  0.72830900  0.46270600  0.00351900  1
  H  271  1  0.75342000  0.47516600  0.04817800  1
  H  272  1  0.74467800  0.54561500  0.97122900  1
  H  287  1  0.49992300  0.96326600  0.76884900  1
  H  288  1  0.48587000  0.00811900  0.83015400  1
  H  295  1  0.50574300  0.98505800  0.66626200  1
  H  296  1  0.46261800  0.00443900  0.72743800  1
  H  299  1  0.47508500  0.04870100  0.75292700  1
  H  300  1  0.54534100  0.97143300  0.74346000  1
  H  315  1  0.49987900  0.03533500  0.22768600  1
  H  316  1  0.48896200  0.99174100  0.16479400  1
  H  323  1  0.50171200  0.00615600  0.33043100  1
  H  324  1  0.46076600  0.99302200  0.26627300  1
  H  327  1  0.47484600  0.94946500  0.24046900  1
  H  328  1  0.54391500  0.02669300  0.25577500  1
  H  343  1  0.32940200  0.00477100  0.36090700  1
  H  344  1  0.30285600  0.00097400  0.39579200  1
  H  351  1  0.38085700  0.95506900  0.34875600  1
  H  352  1  0.41264700  0.96120300  0.31879400  1
  H  353  1  0.40903700  0.03776300  0.33033700  1
  H  354  1  0.35995500  0.96835700  0.43625000  1
  H  355  1  0.37758900  0.03174900  0.36068300  1
  H  357  1  0.39939700  0.96424400  0.41869000  1
  H  358  1  0.40601300  0.97331400  0.39049000  1
  H  360  1  0.43251500  0.01500200  0.29410500  1
  H  362  1  0.29758500  0.97735000  0.43620000  1
  H  369  1  0.67052800  0.99228700  0.35870800  1
  H  370  1  0.69636100  0.99522700  0.39424900  1
  H  377  1  0.62449400  0.04355200  0.34328800  1
  H  378  1  0.59262000  0.03958300  0.31308000  1
  H  379  1  0.58612200  0.96413500  0.32965000  1
  H  380  1  0.63946600  0.02989100  0.43329700  1
  H  381  1  0.61789900  0.96799000  0.35993100  1
  H  383  1  0.60075000  0.03589500  0.41445900  1
  H  384  1  0.59473800  0.02741100  0.38592100  1
  H  386  1  0.56450500  0.98547500  0.29385600  1
  H  388  1  0.70135800  0.01932000  0.43459500  1
  H  395  1  0.66625300  0.02224100  0.63870900  1
  H  396  1  0.69476400  0.02303700  0.60523600  1
  H  403  1  0.63464100  0.95821900  0.66224000  1
  H  404  1  0.60058100  0.96065200  0.69027600  1
  H  405  1  0.58257600  0.03072500  0.66247500  1
  H  406  1  0.66193700  0.96010600  0.57503600  1
  H  407  1  0.61592700  0.02808600  0.63391500  1
  H  409  1  0.62642000  0.94330700  0.59327800  1
  H  410  1  0.61331600  0.95504300  0.61798300  1
  H  412  1  0.56514800  0.01185700  0.70227900  1
  H  414  1  0.70448300  0.97855000  0.56246600  1
  H  421  1  0.33905100  0.96574300  0.63436400  1
  H  422  1  0.30829600  0.96569700  0.60297700  1
  H  429  1  0.35909500  0.01934100  0.67313300  1
  H  430  1  0.39546500  0.01499000  0.69789700  1
  H  431  1  0.42880000  0.97325700  0.64168100  1
  H  432  1  0.32828100  0.03743400  0.58257800  1
  H  433  1  0.39279400  0.97779500  0.61684900  1
  H  435  1  0.36058200  0.05778500  0.60385100  1
  H  436  1  0.37622000  0.04471800  0.62642700  1
  H  438  1  0.43332500  0.98752900  0.70325400  1
  H  440  1  0.29159800  0.01496300  0.56556100  1
  H  447  1  0.36095700  0.32982700  0.00536800  1
  H  448  1  0.39577900  0.30311700  0.00228500  1
  H  455  1  0.34882900  0.38074000  0.95458500  1
  H  456  1  0.31905500  0.41275200  0.96053600  1
  H  457  1  0.33075600  0.40967400  0.03709200  1
  H  458  1  0.43625500  0.35914100  0.96790000  1
  H  459  1  0.36094000  0.37805400  0.03125700  1
  H  461  1  0.41882600  0.39848900  0.96274300  1
  H  462  1  0.39070500  0.40547800  0.97175200  1
  H  464  1  0.29451000  0.43305700  0.01428300  1
  H  466  1  0.43641700  0.29712400  0.97901700  1
  H  473  1  0.36021600  0.67022500  0.99117700  1
  H  474  1  0.39560500  0.69626900  0.99377500  1
  H  481  1  0.34456700  0.62460800  0.04366200  1
  H  482  1  0.31422700  0.59286600  0.03954600  1
  H  483  1  0.33092200  0.58649800  0.96411900  1
  H  484  1  0.43431900  0.64073300  0.03090600  1
  H  485  1  0.36135700  0.61811000  0.96812600  1
  H  487  1  0.41560100  0.60212600  0.03777800  1
  H  488  1  0.38726000  0.59566400  0.02898400  1
  H  490  1  0.29488400  0.56506700  0.98523600  1
  H  492  1  0.43568000  0.70232100  0.01784300  1
  H  499  1  0.63963500  0.66657600  0.02188700  1
  H  500  1  0.60619000  0.69514300  0.02229700  1
  H  507  1  0.66332200  0.63480800  0.95811800  1
  H  508  1  0.69131600  0.60072600  0.96054500  1
  H  509  1  0.66341800  0.58266800  0.03057100  1
  H  510  1  0.57615900  0.66172900  0.95958300  1
  H  511  1  0.63491100  0.61607200  0.02794700  1
  H  513  1  0.59441000  0.62603000  0.94319300  1
  H  514  1  0.61908000  0.61303500  0.95512200  1
  H  516  1  0.70306500  0.56503600  0.01166200  1
  H  518  1  0.56344900  0.70408700  0.97719400  1
  H  525  1  0.63465400  0.33885700  0.96607200  1
  H  526  1  0.60287700  0.30851700  0.96705600  1
  H  533  1  0.67425000  0.35974000  0.01897100  1
  H  534  1  0.69907300  0.39598200  0.01390600  1
  H  535  1  0.64272300  0.42876900  0.97190900  1
  H  536  1  0.58370000  0.33017600  0.03864900  1
  H  537  1  0.61783200  0.39289100  0.97715000  1
  H  539  1  0.60559100  0.36263400  0.05804600  1
  H  540  1  0.62817600  0.37773400  0.04438000  1
  H  542  1  0.70429100  0.43359700  0.98601500  1
  H  544  1  0.56605600  0.29318300  0.01710300  1
  H  551  1  0.00605500  0.36004500  0.32800400  1
  H  552  1  0.00378400  0.39558100  0.30212300  1
  H  559  1  0.95317800  0.34420100  0.37251500  1
  H  560  1  0.95654200  0.31355600  0.40405400  1
  H  561  1  0.03178800  0.33023100  0.41236400  1
  H  562  1  0.96664100  0.43423400  0.35768800  1
  H  563  1  0.02853500  0.36089600  0.38092200  1
  H  565  1  0.95937300  0.41530500  0.39613600  1
  H  566  1  0.96789100  0.38684300  0.40244300  1
  H  568  1  0.01041400  0.29430000  0.43320700  1
  H  570  1  0.97971900  0.43565100  0.29611500  1
  H  577  1  0.99101200  0.36130400  0.66803300  1
  H  578  1  0.99453200  0.39597200  0.69488400  1
  H  585  1  0.04139900  0.34859200  0.61658300  1
  H  586  1  0.03450600  0.31919600  0.58440800  1
  H  587  1  0.95822500  0.33228500  0.58847200  1
  H  588  1  0.02976200  0.43611800  0.63914600  1
  H  589  1  0.96500100  0.36215800  0.62022800  1
  H  591  1  0.03473400  0.41880000  0.59974100  1
  H  592  1  0.02524300  0.39088700  0.59257000  1
  H  594  1  0.98063900  0.29527400  0.56501000  1
  H  596  1  0.01810000  0.43651100  0.70102400  1
  H  603  1  0.03094800  0.63416300  0.65838900  1
  H  604  1  0.02949800  0.60262400  0.68894400  1
  H  611  1  0.97961800  0.67425700  0.63713600  1
  H  612  1  0.98572500  0.69899000  0.60100500  1
  H  613  1  0.02576800  0.64125500  0.56816800  1
  H  614  1  0.95805200  0.58359000  0.66666667  1
  H  615  1  0.01946800  0.61645400  0.60394500  1
  H  617  1  0.93902600  0.60550500  0.63394300  1
  H  618  1  0.95296500  0.62796300  0.61889200  1
  H  620  1  0.01388100  0.70348600  0.56382000  1
  H  622  1  0.97924500  0.56589000  0.70385300  1
  H  629  1  0.97466100  0.64006500  0.33238000  1
  H  630  1  0.97372200  0.60648600  0.30396900  1
  H  637  1  0.03927400  0.66372300  0.36240800  1
  H  638  1  0.03784000  0.69230300  0.39605700  1
  H  639  1  0.96802600  0.66528800  0.41612900  1
  H  640  1  0.03693300  0.57650800  0.33646300  1
  H  641  1  0.96965200  0.63624000  0.38313400  1
  H  643  1  0.05400500  0.59496300  0.37177100  1
  H  644  1  0.04235800  0.61973800  0.38482400  1
  H  646  1  0.98751800  0.70473300  0.43294300  1
  H  648  1  0.01895100  0.56397600  0.29430700  1
  H  655  1  0.82362800  0.50295800  0.85909700  1
  H  656  1  0.79885600  0.50136500  0.89545800  1
  H  663  1  0.86747300  0.45092900  0.84268200  1
  H  664  1  0.89845400  0.45369600  0.81139900  1
  H  665  1  0.90849500  0.52877800  0.82791400  1
  H  666  1  0.85633600  0.46670600  0.93365000  1
  H  667  1  0.87756100  0.52614200  0.85910600  1
  H  669  1  0.89431100  0.45941000  0.91372200  1
  H  670  1  0.89948900  0.46691300  0.88474100  1
  H  672  1  0.92866000  0.50728500  0.79219300  1
  H  674  1  0.79454100  0.47851400  0.93635600  1
  H  681  1  0.15427300  0.46560500  0.86601400  1
  H  682  1  0.18423000  0.46683100  0.89811400  1
  H  689  1  0.13567400  0.51870300  0.82412600  1
  H  690  1  0.09969300  0.51376800  0.79890800  1
  H  691  1  0.06560600  0.47309200  0.85545600  1
  H  692  1  0.16552500  0.54015800  0.91349200  1
  H  693  1  0.10117800  0.47826700  0.88074900  1
  H  695  1  0.13408100  0.55977000  0.89039600  1
  H  696  1  0.11859900  0.54567900  0.86834600  1
  H  698  1  0.06178000  0.48635700  0.79359500  1
  H  700  1  0.20178100  0.51782100  0.93229400  1
  H  707  1  0.17391700  0.50458700  0.14033200  1
  H  708  1  0.19897200  0.50366700  0.10411200  1
  H  715  1  0.12985100  0.45188800  0.15592500  1
  H  716  1  0.09818800  0.45439100  0.18651500  1
  H  717  1  0.08860900  0.52964700  0.17053800  1
  H  718  1  0.14231600  0.46837000  0.06530200  1
  H  719  1  0.12020600  0.52725700  0.13999400  1
  H  721  1  0.10432100  0.46038400  0.08483500  1
  H  722  1  0.09875400  0.46764100  0.11379900  1
  H  724  1  0.06770900  0.50781400  0.20563500  1
  H  726  1  0.20361100  0.48083400  0.06266500  1
  H  733  1  0.84118800  0.46518400  0.13349000  1
  H  734  1  0.81060400  0.46586400  0.10193800  1
  H  741  1  0.86050800  0.51772400  0.17384100  1
  H  742  1  0.89669100  0.51297400  0.19880100  1
  H  743  1  0.93088900  0.47315400  0.14171400  1
  H  744  1  0.83037200  0.53823300  0.08362600  1
  H  745  1  0.89507600  0.47811500  0.11668800  1
  H  747  1  0.86247800  0.55812600  0.10561500  1
  H  748  1  0.87803500  0.54452000  0.12792700  1
  H  750  1  0.93473600  0.48585000  0.20375400  1
  H  752  1  0.79378900  0.51618600  0.06601200  1
  H  759  1  0.85876500  0.83453900  0.52321000  1
  H  760  1  0.89142700  0.80510500  0.52423500  1
  H  767  1  0.83714400  0.86667400  0.45896700  1
  H  768  1  0.80945700  0.90102800  0.46090200  1
  H  769  1  0.83607900  0.91866000  0.53152500  1
  H  770  1  0.92355600  0.83779600  0.46218600  1
  H  771  1  0.86430800  0.88495800  0.52940300  1
  H  773  1  0.90643300  0.87385000  0.44533900  1
  H  774  1  0.88186600  0.88746400  0.45677900  1
  H  776  1  0.79663100  0.93635800  0.51190300  1
  H  778  1  0.93528200  0.79554200  0.47982900  1
  H  785  1  0.86086600  0.16975100  0.49048900  1
  H  786  1  0.89571700  0.19615900  0.49540100  1
  H  793  1  0.84594400  0.11796000  0.53962000  1
  H  794  1  0.81691100  0.08575000  0.53148600  1
  H  795  1  0.83298300  0.09002300  0.45579600  1
  H  796  1  0.93426000  0.13943800  0.53085400  1
  H  797  1  0.86250200  0.12183200  0.46382500  1
  H  799  1  0.91634900  0.10017500  0.53478800  1
  H  800  1  0.88862500  0.09347400  0.52443500  1
  H  802  1  0.79470600  0.06633800  0.47756200  1
  H  804  1  0.93575900  0.20141200  0.52017600  1
  H  811  1  0.13901200  0.16234800  0.52231500  1
  H  812  1  0.10624700  0.19168000  0.52336600  1
  H  819  1  0.16176600  0.13152400  0.45791300  1
  H  820  1  0.18952100  0.09722800  0.45965100  1
  H  821  1  0.16157900  0.07802700  0.52935900  1
  H  822  1  0.07513800  0.16000900  0.46027300  1
  H  823  1  0.13336800  0.11173200  0.52744600  1
  H  825  1  0.09253100  0.12418900  0.44317100  1
  H  826  1  0.11697800  0.11046400  0.45474900  1
  H  828  1  0.20071500  0.06040900  0.51051100  1
  H  830  1  0.06347600  0.20238900  0.47868800  1
  H  837  1  0.13435800  0.82816000  0.48716500  1
  H  838  1  0.09984700  0.80178300  0.49436500  1
  H  845  1  0.16366500  0.86685800  0.53047400  1
  H  846  1  0.19258200  0.89893900  0.52099400  1
  H  847  1  0.14939100  0.92001800  0.46016700  1
  H  848  1  0.06614900  0.85667400  0.53698000  1
  H  849  1  0.12051600  0.88802100  0.46947400  1
  H  851  1  0.08638900  0.89493400  0.54293600  1
  H  852  1  0.11364500  0.90120100  0.53098300  1
  H  854  1  0.20583400  0.92885900  0.48466800  1
  H  856  1  0.06233700  0.79557700  0.52254600  1
  H  863  1  0.50365200  0.85929700  0.82319400  1
  H  864  1  0.50214900  0.89552000  0.79821000  1
  H  871  1  0.45123600  0.84294200  0.86668700  1
  H  872  1  0.45382300  0.81185800  0.89788300  1
  H  873  1  0.52877500  0.82862900  0.90845300  1
  H  874  1  0.46675700  0.93386000  0.85513800  1
  H  875  1  0.52631500  0.85963000  0.87731100  1
  H  877  1  0.45917700  0.91411500  0.89314500  1
  H  878  1  0.46676600  0.88520100  0.89856500  1
  H  880  1  0.50719100  0.79292600  0.92862200  1
  H  882  1  0.47908100  0.93636700  0.79349500  1
  H  889  1  0.46542500  0.86585800  0.15468200  1
  H  890  1  0.46667600  0.89779800  0.18481600  1
  H  897  1  0.51778100  0.82418800  0.13549400  1
  H  898  1  0.51251000  0.79928400  0.09934200  1
  H  899  1  0.47274800  0.85666700  0.06556200  1
  H  900  1  0.53970100  0.91388000  0.16550700  1
  H  901  1  0.47825400  0.88164400  0.10131700  1
  H  903  1  0.55923800  0.89101900  0.13380600  1
  H  904  1  0.54517200  0.86890100  0.11838900  1
  H  906  1  0.48509400  0.79458700  0.06146400  1
  H  908  1  0.51743500  0.93247100  0.20198900  1
  H  915  1  0.50355100  0.14042300  0.17377000  1
  H  916  1  0.50245100  0.10408000  0.19863700  1
  H  923  1  0.45142200  0.15599800  0.12934200  1
  H  924  1  0.45399800  0.18665900  0.09775600  1
  H  925  1  0.52935300  0.17092500  0.08854000  1
  H  926  1  0.46824500  0.06533400  0.14126500  1
  H  927  1  0.52689100  0.14031600  0.12006700  1
  H  929  1  0.46072000  0.08501500  0.10324300  1
  H  930  1  0.46787400  0.11405600  0.09794100  1
  H  932  1  0.50751000  0.20591500  0.06752500  1
  H  934  1  0.47980100  0.06259600  0.20278000  1
  H  941  1  0.46537700  0.13348100  0.84117700  1
  H  942  1  0.46597300  0.10196400  0.81056300  1
  H  949  1  0.51833700  0.17374800  0.86037000  1
  H  950  1  0.51368000  0.19878300  0.89651100  1
  H  951  1  0.47329600  0.14205500  0.93064300  1
  H  952  1  0.53844900  0.08374000  0.83000100  1
  H  953  1  0.47816600  0.11695200  0.89487700  1
  H  955  1  0.55843700  0.10569600  0.86206300  1
  H  956  1  0.54486100  0.12795300  0.87772300  1
  H  958  1  0.48642500  0.20398900  0.93445800  1
  H  960  1  0.51630700  0.06617200  0.79346000  1
  H  967  1  0.22880300  0.21652600  0.99552800  1
  H  968  1  0.16786000  0.25925600  0.97442400  1
  H  975  1  0.33065500  0.24231600  0.00549180  1
  H  976  1  0.27104800  0.25490100  0.95800300  1
  H  979  1  0.24487900  0.30085500  0.96736500  1
  H  980  1  0.25163200  0.22972300  0.04243280  1
  H  995  1  0.76790500  0.29526200  0.99625800  1
  H  996  1  0.83130500  0.25367100  0.98135200  1
  H  1003  1  0.66666667  0.26798900  0.00345780  1
  H  1004  1  0.72730000  0.25670900  0.95682700  1
  H  1007  1  0.75537500  0.21115100  0.96590800  1
  H  1008  1  0.74468000  0.28013400  0.04229980  1
  H  1023  1  0.50368400  0.48573000  0.45960900  1
  H  1024  1  0.48368300  0.42502600  0.50299200  1
  H  1031  1  0.50922300  0.58849400  0.48230700  1
  H  1032  1  0.46250600  0.52854500  0.49619400  1
  H  1035  1  0.46873600  0.50262200  0.54135800  1
  H  1036  1  0.54784700  0.51023500  0.47219500  1
  H  1051  1  0.50283500  0.02735400  0.52863500  1
  H  1052  1  0.48295200  0.08797000  0.48509300  1
  H  1059  1  0.50869700  0.92482200  0.50756600  1
  H  1060  1  0.46187200  0.98454000  0.49275900  1
  H  1063  1  0.46840700  0.01013200  0.44684500  1
  H  1064  1  0.54753800  0.00326304  0.51526000  1
  H  1079  1  0.96367400  0.76053000  0.72438100  1
  H  1080  1  0.00722400  0.74093000  0.66366900  1
  H  1087  1  0.98557600  0.76592200  0.82710200  1
  H  1088  1  0.00004200  0.71944800  0.76703800  1
  H  1091  1  0.04557300  0.72611100  0.74134000  1
  H  1092  1  0.97670700  0.80503300  0.74891900  1
  H  1107  1  0.03264300  0.76101300  0.26523200  1
  H  1108  1  0.98941200  0.74077100  0.32595200  1
  H  1115  1  0.01084100  0.76631900  0.16264300  1
  H  1116  1  0.99637700  0.71974700  0.22256700  1
  H  1119  1  0.95096400  0.72600100  0.24834200  1
  H  1120  1  0.01984800  0.80521300  0.24089400  1
  H  1135  1  0.96225600  0.48429200  0.99575200  1
  H  1136  1  0.00825900  0.42336900  0.00815880  1
  H  1143  1  0.98846200  0.58804700  0.99128200  1
  H  1144  1  0.00330900  0.52490500  0.03315780  1
  H  1147  1  0.04830200  0.50100900  0.01807280  1
  H  1148  1  0.97011900  0.51197300  0.95028700  1
  H  1163  1  0.03607800  0.02842500  0.99720200  1
  H  1164  1  0.98910900  0.08786500  0.01264580  1
  H  1171  1  0.01593700  0.92544500  0.98677800  1
  H  1172  1  0.99595200  0.98524700  0.03148280  1
  H  1175  1  0.95009500  0.00912704  0.01712280  1
  H  1176  1  0.02813700  0.00425504  0.94928700  1
  H  1191  1  0.22838000  0.75782200  0.53107500  1
  H  1192  1  0.16524800  0.74656000  0.48792200  1
  H  1199  1  0.33098000  0.75922200  0.50145600  1
  H  1200  1  0.26662600  0.71857700  0.48839400  1
  H  1203  1  0.24063100  0.73257100  0.44515700  1
  H  1204  1  0.25656200  0.80163200  0.52242400  1
  H  1219  1  0.76994900  0.75714000  0.45893400  1
  H  1220  1  0.83095100  0.74289600  0.50413400  1
  H  1227  1  0.66730200  0.76319400  0.47999100  1
  H  1228  1  0.72830900  0.71991800  0.49957100  1
  H  1231  1  0.75342000  0.73237800  0.54423000  1
  H  1232  1  0.74467800  0.80282700  0.46728100  1
  H  1247  1  0.49992300  0.22047800  0.26490100  1
  H  1248  1  0.48587000  0.26533100  0.32620600  1
  H  1255  1  0.50574300  0.24227000  0.16231400  1
  H  1256  1  0.46261800  0.26165100  0.22349000  1
  H  1259  1  0.47508500  0.30591300  0.24897900  1
  H  1260  1  0.54534100  0.22864500  0.23951200  1
  H  1275  1  0.49987900  0.29254700  0.72373800  1
  H  1276  1  0.48896200  0.24895300  0.66084600  1
  H  1283  1  0.50171200  0.26336800  0.82648300  1
  H  1284  1  0.46076600  0.25023400  0.76232500  1
  H  1287  1  0.47484600  0.20667700  0.73652100  1
  H  1288  1  0.54391500  0.28390500  0.75182700  1
  H  1303  1  0.32940200  0.26198300  0.85695900  1
  H  1304  1  0.30285600  0.25818600  0.89184400  1
  H  1311  1  0.38085700  0.21228100  0.84480800  1
  H  1312  1  0.41264700  0.21841500  0.81484600  1
  H  1313  1  0.40903700  0.29497500  0.82638900  1
  H  1314  1  0.35995500  0.22556900  0.93230200  1
  H  1315  1  0.37758900  0.28896100  0.85673500  1
  H  1317  1  0.39939700  0.22145600  0.91474200  1
  H  1318  1  0.40601300  0.23052600  0.88654200  1
  H  1320  1  0.43251500  0.27221400  0.79015700  1
  H  1322  1  0.29758500  0.23456200  0.93225200  1
  H  1329  1  0.67052800  0.24949900  0.85476000  1
  H  1330  1  0.69636100  0.25243900  0.89030100  1
  H  1337  1  0.62449400  0.30076400  0.83934000  1
  H  1338  1  0.59262000  0.29679500  0.80913200  1
  H  1339  1  0.58612200  0.22134700  0.82570200  1
  H  1340  1  0.63946600  0.28710300  0.92934900  1
  H  1341  1  0.61789900  0.22520200  0.85598300  1
  H  1343  1  0.60075000  0.29310700  0.91051100  1
  H  1344  1  0.59473800  0.28462300  0.88197300  1
  H  1346  1  0.56450500  0.24268700  0.78990800  1
  H  1348  1  0.70135800  0.27653200  0.93064700  1
  H  1355  1  0.66625300  0.27945300  0.13476100  1
  H  1356  1  0.69476400  0.28024900  0.10128800  1
  H  1363  1  0.63464100  0.21543100  0.15829200  1
  H  1364  1  0.60058100  0.21786400  0.18632800  1
  H  1365  1  0.58257600  0.28793700  0.15852700  1
  H  1366  1  0.66193700  0.21731800  0.07108780  1
  H  1367  1  0.61592700  0.28529800  0.12996700  1
  H  1369  1  0.62642000  0.20051900  0.08932980  1
  H  1370  1  0.61331600  0.21225500  0.11403500  1
  H  1372  1  0.56514800  0.26906900  0.19833100  1
  H  1374  1  0.70448300  0.23576200  0.05851780  1
  H  1381  1  0.33905100  0.22295500  0.13041600  1
  H  1382  1  0.30829600  0.22290900  0.09902880  1
  H  1389  1  0.35909500  0.27655300  0.16918500  1
  H  1390  1  0.39546500  0.27220200  0.19394900  1
  H  1391  1  0.42880000  0.23046900  0.13773300  1
  H  1392  1  0.32828100  0.29464600  0.07862980  1
  H  1393  1  0.39279400  0.23500700  0.11290100  1
  H  1395  1  0.36058200  0.31499700  0.09990280  1
  H  1396  1  0.37622000  0.30193000  0.12247900  1
  H  1398  1  0.43332500  0.24474100  0.19930600  1
  H  1400  1  0.29159800  0.27217500  0.06161280  1
  H  1407  1  0.36095700  0.58703900  0.50142000  1
  H  1408  1  0.39577900  0.56032900  0.49833700  1
  H  1415  1  0.34882900  0.63795200  0.45063700  1
  H  1416  1  0.31905500  0.66996400  0.45658800  1
  H  1417  1  0.33075600  0.66688600  0.53314400  1
  H  1418  1  0.43625500  0.61635300  0.46395200  1
  H  1419  1  0.36094000  0.63526600  0.52730900  1
  H  1421  1  0.41882600  0.65570100  0.45879500  1
  H  1422  1  0.39070500  0.66269000  0.46780400  1
  H  1424  1  0.29451000  0.69026900  0.51033500  1
  H  1426  1  0.43641700  0.55433600  0.47506900  1
  H  1433  1  0.36021600  0.92743700  0.48722900  1
  H  1434  1  0.39560500  0.95348100  0.48982700  1
  H  1441  1  0.34456700  0.88182000  0.53971400  1
  H  1442  1  0.31422700  0.85007800  0.53559800  1
  H  1443  1  0.33092200  0.84371000  0.46017100  1
  H  1444  1  0.43431900  0.89794500  0.52695800  1
  H  1445  1  0.36135700  0.87532200  0.46417800  1
  H  1447  1  0.41560100  0.85933800  0.53383000  1
  H  1448  1  0.38726000  0.85287600  0.52503600  1
  H  1450  1  0.29488400  0.82227900  0.48128800  1
  H  1452  1  0.43568000  0.95953300  0.51389500  1
  H  1459  1  0.63963500  0.92378800  0.51793900  1
  H  1460  1  0.60619000  0.95235500  0.51834900  1
  H  1467  1  0.66332200  0.89202000  0.45417000  1
  H  1468  1  0.69131600  0.85793800  0.45659700  1
  H  1469  1  0.66341800  0.83988000  0.52662300  1
  H  1470  1  0.57615900  0.91894100  0.45563500  1
  H  1471  1  0.63491100  0.87328400  0.52399900  1
  H  1473  1  0.59441000  0.88324200  0.43924500  1
  H  1474  1  0.61908000  0.87024700  0.45117400  1
  H  1476  1  0.70306500  0.82224800  0.50771400  1
  H  1478  1  0.56344900  0.96129900  0.47324600  1
  H  1485  1  0.63465400  0.59606900  0.46212400  1
  H  1486  1  0.60287700  0.56572900  0.46310800  1
  H  1493  1  0.67425000  0.61695200  0.51502300  1
  H  1494  1  0.69907300  0.65319400  0.50995800  1
  H  1495  1  0.64272300  0.68598100  0.46796100  1
  H  1496  1  0.58370000  0.58738800  0.53470100  1
  H  1497  1  0.61783200  0.65010300  0.47320200  1
  H  1499  1  0.60559100  0.61984600  0.55409800  1
  H  1500  1  0.62817600  0.63494600  0.54043200  1
  H  1502  1  0.70429100  0.69080900  0.48206700  1
  H  1504  1  0.56605600  0.55039500  0.51315500  1
  H  1511  1  0.00605500  0.61725700  0.82405600  1
  H  1512  1  0.00378400  0.65279300  0.79817500  1
  H  1519  1  0.95317800  0.60141300  0.86856700  1
  H  1520  1  0.95654200  0.57076800  0.90010600  1
  H  1521  1  0.03178800  0.58744300  0.90841600  1
  H  1522  1  0.96664100  0.69144600  0.85374000  1
  H  1523  1  0.02853500  0.61810800  0.87697400  1
  H  1525  1  0.95937300  0.67251700  0.89218800  1
  H  1526  1  0.96789100  0.64405500  0.89849500  1
  H  1528  1  0.01041400  0.55151200  0.92925900  1
  H  1530  1  0.97971900  0.69286300  0.79216700  1
  H  1537  1  0.99101200  0.61851600  0.16408500  1
  H  1538  1  0.99453200  0.65318400  0.19093600  1
  H  1545  1  0.04139900  0.60580400  0.11263500  1
  H  1546  1  0.03450600  0.57640800  0.08045980  1
  H  1547  1  0.95822500  0.58949700  0.08452380  1
  H  1548  1  0.02976200  0.69333000  0.13519800  1
  H  1549  1  0.96500100  0.61937000  0.11628000  1
  H  1551  1  0.03473400  0.67601200  0.09579280  1
  H  1552  1  0.02524300  0.64809900  0.08862180  1
  H  1554  1  0.98063900  0.55248600  0.06106180  1
  H  1556  1  0.01810000  0.69372300  0.19707600  1
  H  1563  1  0.03094800  0.89137500  0.15444100  1
  H  1564  1  0.02949800  0.85983600  0.18499600  1
  H  1571  1  0.97961800  0.93146900  0.13318800  1
  H  1572  1  0.98572500  0.95620200  0.09705680  1
  H  1573  1  0.02576800  0.89846700  0.06421980  1
  H  1574  1  0.95805200  0.84080200  0.16268900  1
  H  1575  1  0.01946800  0.87366600  0.09999680  1
  H  1577  1  0.93902600  0.86271700  0.12999500  1
  H  1578  1  0.95296500  0.88517500  0.11494400  1
  H  1580  1  0.01388100  0.96069800  0.05987180  1
  H  1582  1  0.97924500  0.82310200  0.19990500  1
  H  1589  1  0.97466100  0.89727700  0.82843200  1
  H  1590  1  0.97372200  0.86369800  0.80002100  1
  H  1597  1  0.03927400  0.92093500  0.85846000  1
  H  1598  1  0.03784000  0.94951500  0.89210900  1
  H  1599  1  0.96802600  0.92250000  0.91218100  1
  H  1600  1  0.03693300  0.83372000  0.83251500  1
  H  1601  1  0.96965200  0.89345200  0.87918600  1
  H  1603  1  0.05400500  0.85217500  0.86782300  1
  H  1604  1  0.04235800  0.87695000  0.88087600  1
  H  1606  1  0.98751800  0.96194500  0.92899500  1
  H  1608  1  0.01895100  0.82118800  0.79035900  1
  H  1615  1  0.82362800  0.76017000  0.35514900  1
  H  1616  1  0.79885600  0.75857700  0.39151000  1
  H  1623  1  0.86747300  0.70814100  0.33873400  1
  H  1624  1  0.89845400  0.71090800  0.30745100  1
  H  1625  1  0.90849500  0.78599000  0.32396600  1
  H  1626  1  0.85633600  0.72391800  0.42970200  1
  H  1627  1  0.87756100  0.78335400  0.35515800  1
  H  1629  1  0.89431100  0.71662200  0.40977400  1
  H  1630  1  0.89948900  0.72412500  0.38079300  1
  H  1632  1  0.92866000  0.76449700  0.28824500  1
  H  1634  1  0.79454100  0.73572600  0.43240800  1
  H  1641  1  0.15427300  0.72281700  0.36206600  1
  H  1642  1  0.18423000  0.72404300  0.39416600  1
  H  1649  1  0.13567400  0.77591500  0.32017800  1
  H  1650  1  0.09969300  0.77098000  0.29496000  1
  H  1651  1  0.06560600  0.73030400  0.35150800  1
  H  1652  1  0.16552500  0.79737000  0.40954400  1
  H  1653  1  0.10117800  0.73547900  0.37680100  1
  H  1655  1  0.13408100  0.81698200  0.38644800  1
  H  1656  1  0.11859900  0.80289100  0.36439800  1
  H  1658  1  0.06178000  0.74356900  0.28964700  1
  H  1660  1  0.20178100  0.77503300  0.42834600  1
  H  1667  1  0.17391700  0.76179900  0.63638400  1
  H  1668  1  0.19897200  0.76087900  0.60016400  1
  H  1675  1  0.12985100  0.70910000  0.65197700  1
  H  1676  1  0.09818800  0.71160300  0.68256700  1
  H  1677  1  0.08860900  0.78685900  0.66659000  1
  H  1678  1  0.14231600  0.72558200  0.56135400  1
  H  1679  1  0.12020600  0.78446900  0.63604600  1
  H  1681  1  0.10432100  0.71759600  0.58088700  1
  H  1682  1  0.09875400  0.72485300  0.60985100  1
  H  1684  1  0.06770900  0.76502600  0.70168700  1
  H  1686  1  0.20361100  0.73804600  0.55871700  1
  H  1693  1  0.84118800  0.72239600  0.62954200  1
  H  1694  1  0.81060400  0.72307600  0.59799000  1
  H  1701  1  0.86050800  0.77493600  0.66989300  1
  H  1702  1  0.89669100  0.77018600  0.69485300  1
  H  1703  1  0.93088900  0.73036600  0.63776600  1
  H  1704  1  0.83037200  0.79544500  0.57967800  1
  H  1705  1  0.89507600  0.73532700  0.61274000  1
  H  1707  1  0.86247800  0.81533800  0.60166700  1
  H  1708  1  0.87803500  0.80173200  0.62397900  1
  H  1710  1  0.93473600  0.74306200  0.69980600  1
  H  1712  1  0.79378900  0.77339800  0.56206400  1
  H  1719  1  0.85876500  0.09175100  0.01926180  1
  H  1720  1  0.89142700  0.06231700  0.02028680  1
  H  1727  1  0.83714400  0.12388600  0.95501900  1
  H  1728  1  0.80945700  0.15824000  0.95695400  1
  H  1729  1  0.83607900  0.17587200  0.02757680  1
  H  1730  1  0.92355600  0.09500800  0.95823800  1
  H  1731  1  0.86430800  0.14217000  0.02545480  1
  H  1733  1  0.90643300  0.13106200  0.94139100  1
  H  1734  1  0.88186600  0.14467600  0.95283100  1
  H  1736  1  0.79663100  0.19357000  0.00795480  1
  H  1738  1  0.93528200  0.05275400  0.97588100  1
  H  1745  1  0.86086600  0.42696300  0.98654100  1
  H  1746  1  0.89571700  0.45337100  0.99145300  1
  H  1753  1  0.84594400  0.37517200  0.03567180  1
  H  1754  1  0.81691100  0.34296200  0.02753780  1
  H  1755  1  0.83298300  0.34723500  0.95184800  1
  H  1756  1  0.93426000  0.39665000  0.02690580  1
  H  1757  1  0.86250200  0.37904400  0.95987700  1
  H  1759  1  0.91634900  0.35738700  0.03083980  1
  H  1760  1  0.88862500  0.35068600  0.02048680  1
  H  1762  1  0.79470600  0.32355000  0.97361400  1
  H  1764  1  0.93575900  0.45862400  0.01622780  1
  H  1771  1  0.13901200  0.41956000  0.01836680  1
  H  1772  1  0.10624700  0.44889200  0.01941780  1
  H  1779  1  0.16176600  0.38873600  0.95396500  1
  H  1780  1  0.18952100  0.35444000  0.95570300  1
  H  1781  1  0.16157900  0.33523900  0.02541080  1
  H  1782  1  0.07513800  0.41722100  0.95632500  1
  H  1783  1  0.13336800  0.36894400  0.02349780  1
  H  1785  1  0.09253100  0.38140100  0.93922300  1
  H  1786  1  0.11697800  0.36767600  0.95080100  1
  H  1788  1  0.20071500  0.31762100  0.00656280  1
  H  1790  1  0.06347600  0.45960100  0.97474000  1
  H  1797  1  0.13435800  0.08537200  0.98321700  1
  H  1798  1  0.09984700  0.05899500  0.99041700  1
  H  1805  1  0.16366500  0.12407000  0.02652580  1
  H  1806  1  0.19258200  0.15615100  0.01704580  1
  H  1807  1  0.14939100  0.17723000  0.95621900  1
  H  1808  1  0.06614900  0.11388600  0.03303180  1
  H  1809  1  0.12051600  0.14523300  0.96552600  1
  H  1811  1  0.08638900  0.15214600  0.03898780  1
  H  1812  1  0.11364500  0.15841300  0.02703480  1
  H  1814  1  0.20583400  0.18607100  0.98072000  1
  H  1816  1  0.06233700  0.05278900  0.01859780  1
  H  1823  1  0.50365200  0.11650900  0.31924600  1
  H  1824  1  0.50214900  0.15273200  0.29426200  1
  H  1831  1  0.45123600  0.10015400  0.36273900  1
  H  1832  1  0.45382300  0.06907000  0.39393500  1
  H  1833  1  0.52877500  0.08584100  0.40450500  1
  H  1834  1  0.46675700  0.19107200  0.35119000  1
  H  1835  1  0.52631500  0.11684200  0.37336300  1
  H  1837  1  0.45917700  0.17132700  0.38919700  1
  H  1838  1  0.46676600  0.14241300  0.39461700  1
  H  1840  1  0.50719100  0.05013800  0.42467400  1
  H  1842  1  0.47908100  0.19357900  0.28954700  1
  H  1849  1  0.46542500  0.12307000  0.65073400  1
  H  1850  1  0.46667600  0.15501000  0.68086800  1
  H  1857  1  0.51778100  0.08140000  0.63154600  1
  H  1858  1  0.51251000  0.05649600  0.59539400  1
  H  1859  1  0.47274800  0.11387900  0.56161400  1
  H  1860  1  0.53970100  0.17109200  0.66155900  1
  H  1861  1  0.47825400  0.13885600  0.59736900  1
  H  1863  1  0.55923800  0.14823100  0.62985800  1
  H  1864  1  0.54517200  0.12611300  0.61444100  1
  H  1866  1  0.48509400  0.05179900  0.55751600  1
  H  1868  1  0.51743500  0.18968300  0.69804100  1
  H  1875  1  0.50355100  0.39763500  0.66982200  1
  H  1876  1  0.50245100  0.36129200  0.69468900  1
  H  1883  1  0.45142200  0.41321000  0.62539400  1
  H  1884  1  0.45399800  0.44387100  0.59380800  1
  H  1885  1  0.52935300  0.42813700  0.58459200  1
  H  1886  1  0.46824500  0.32254600  0.63731700  1
  H  1887  1  0.52689100  0.39752800  0.61611900  1
  H  1889  1  0.46072000  0.34222700  0.59929500  1
  H  1890  1  0.46787400  0.37126800  0.59399300  1
  H  1892  1  0.50751000  0.46312700  0.56357700  1
  H  1894  1  0.47980100  0.31980800  0.69883200  1
  H  1901  1  0.46537700  0.39069300  0.33722900  1
  H  1902  1  0.46597300  0.35917600  0.30661500  1
  H  1909  1  0.51833700  0.43096000  0.35642200  1
  H  1910  1  0.51368000  0.45599500  0.39256300  1
  H  1911  1  0.47329600  0.39926700  0.42669500  1
  H  1912  1  0.53844900  0.34095200  0.32605300  1
  H  1913  1  0.47816600  0.37416400  0.39092900  1
  H  1915  1  0.55843700  0.36290800  0.35811500  1
  H  1916  1  0.54486100  0.38516500  0.37377500  1
  H  1918  1  0.48642500  0.46120100  0.43051000  1
  H  1920  1  0.51630700  0.32338400  0.28951200  1
  C  1  1  0.23616100  0.99682100  0.49459300  1
  C  2  1  0.22112100  0.97572800  0.49452700  1
  C  3  1  0.19594800  0.97704000  0.48824500  1
  C  4  1  0.18616100  0.00045700  0.48248000  1
  C  5  1  0.20073000  0.02196000  0.48294300  1
  C  6  1  0.22605600  0.01995600  0.48853400  1
  C  9  1  0.26155700  0.99414500  0.49926900  1
  C  10  1  0.27063300  0.99031900  0.52331800  1
  C  11  1  0.29620000  0.98728100  0.52717600  1
  C  12  1  0.31216900  0.98739300  0.50667300  1
  C  13  1  0.30335900  0.99083900  0.48248600  1
  C  14  1  0.27789600  0.99441800  0.47916800  1
  C  21  1  0.32001000  0.99139800  0.46233500  1
  C  22  1  0.30615400  0.98419400  0.55106700  1
  C  23  1  0.18036000  0.95591200  0.48865500  1
  C  24  1  0.18972700  0.04518600  0.47859100  1
  C  29  1  0.76151100  0.00032600  0.49428600  1
  C  30  1  0.77608000  0.02167400  0.49576100  1
  C  31  1  0.80173500  0.02062000  0.49225000  1
  C  32  1  0.81261500  0.99756200  0.48731000  1
  C  33  1  0.79833800  0.97590300  0.48570800  1
  C  34  1  0.77254200  0.97743500  0.48891600  1
  C  37  1  0.73596800  0.00239500  0.49829300  1
  C  38  1  0.72640300  0.00558100  0.52223200  1
  C  39  1  0.70076500  0.00833400  0.52565900  1
  C  40  1  0.68517600  0.00867600  0.50488100  1
  C  41  1  0.69447400  0.00576300  0.48078400  1
  C  42  1  0.72003900  0.00236800  0.47788700  1
  C  49  1  0.67821800  0.00556300  0.46028500  1
  C  50  1  0.69051900  0.01034700  0.54950800  1
  C  51  1  0.81632500  0.04197900  0.49553000  1
  C  52  1  0.81005800  0.95298500  0.48170800  1
  C  57  1  0.49587500  0.23687800  0.00045300  1
  C  58  1  0.49812800  0.22118900  0.97996500  1
  C  59  1  0.49330700  0.19576800  0.98182600  1
  C  60  1  0.48677000  0.18629700  0.00512500  1
  C  61  1  0.48471400  0.20156400  0.02607200  1
  C  62  1  0.48878900  0.22715100  0.02347800  1
  C  65  1  0.50000900  0.26232100  0.99723700  1
  C  66  1  0.52393700  0.27166500  0.99326600  1
  C  67  1  0.52744600  0.29718600  0.98953900  1
  C  68  1  0.50670600  0.31283000  0.98906100  1
  C  69  1  0.48262900  0.30376000  0.99261000  1
  C  70  1  0.47965400  0.27835100  0.99688200  1
  C  77  1  0.46227400  0.32017400  0.99257600  1
  C  78  1  0.55122500  0.30735900  0.98630700  1
  C  79  1  0.49555400  0.17981500  0.96117900  1
  C  80  1  0.47900800  0.19098900  0.04923700  1
  C  85  1  0.49523400  0.76172800  0.99565800  1
  C  86  1  0.49733000  0.77743400  0.01614000  1
  C  87  1  0.49246900  0.80283600  0.01421700  1
  C  88  1  0.48606100  0.81228100  0.99088000  1
  C  89  1  0.48415700  0.79698400  0.96993500  1
  C  90  1  0.48828000  0.77140800  0.97257400  1
  C  93  1  0.49937200  0.73631900  0.99904200  1
  C  94  1  0.52332200  0.72704500  0.00293300  1
  C  95  1  0.52683100  0.70162100  0.00719400  1
  C  96  1  0.50610900  0.68599500  0.00837900  1
  C  97  1  0.48198400  0.69501100  0.00487600  1
  C  98  1  0.47901700  0.72032200  0.99997500  1
  C  105  1  0.46156300  0.67865200  0.00546300  1
  C  106  1  0.55072400  0.69157100  0.00966900  1
  C  107  1  0.49460600  0.81876800  0.03487200  1
  C  108  1  0.47852600  0.80756500  0.94676100  1
  C  113  1  0.00061200  0.49572800  0.23670300  1
  C  114  1  0.98012500  0.49788500  0.22100200  1
  C  115  1  0.98203700  0.49313400  0.19557300  1
  C  116  1  0.00538300  0.48676600  0.18610400  1
  C  117  1  0.02633500  0.48482400  0.20138000  1
  C  118  1  0.02369900  0.48884100  0.22697500  1
  C  121  1  0.99728100  0.49973900  0.26215600  1
  C  122  1  0.99334200  0.52362500  0.27158300  1
  C  123  1  0.98936800  0.52701600  0.29707600  1
  C  124  1  0.98851000  0.50621500  0.31261900  1
  C  125  1  0.99208100  0.48214000  0.30348100  1
  C  126  1  0.99669100  0.47932000  0.27809400  1
  C  133  1  0.99186100  0.46164000  0.31978100  1
  C  134  1  0.98687100  0.55085100  0.30730200  1
  C  135  1  0.96138300  0.49528600  0.17961800  1
  C  136  1  0.04951200  0.47922600  0.19077200  1
  C  141  1  0.99572600  0.49600200  0.76087200  1
  C  142  1  0.01624900  0.49821600  0.77651700  1
  C  143  1  0.01443500  0.49332300  0.80192300  1
  C  144  1  0.99117400  0.48672000  0.81142500  1
  C  145  1  0.97020200  0.48466300  0.79619200  1
  C  146  1  0.97273200  0.48884100  0.77061400  1
  C  149  1  0.99897300  0.50009400  0.73543000  1
  C  150  1  0.00299700  0.52400100  0.72605800  1
  C  151  1  0.00706200  0.52742800  0.70058300  1
  C  152  1  0.00778700  0.50664700  0.68500900  1
  C  153  1  0.00419200  0.48259800  0.69412100  1
  C  154  1  0.99960600  0.47968200  0.71947900  1
  C  161  1  0.00454200  0.46221200  0.67777700  1
  C  162  1  0.01045500  0.55117400  0.69041200  1
  C  163  1  0.03510900  0.49553700  0.81782600  1
  C  164  1  0.94710600  0.47881800  0.80683400  1
  C  169  1  0.99993800  0.23536700  0.50199500  1
  C  170  1  0.97932200  0.21970100  0.50255500  1
  C  171  1  0.98196000  0.19419100  0.50651800  1
  C  172  1  0.00594800  0.18467600  0.50958700  1
  C  173  1  0.02690500  0.19998600  0.50877800  1
  C  174  1  0.02377900  0.22557300  0.50532100  1
  C  177  1  0.99630000  0.26095100  0.49960500  1
  C  178  1  0.99042400  0.27181800  0.47673900  1
  C  179  1  0.98767200  0.29766800  0.47496400  1
  C  180  1  0.99028100  0.31213200  0.49641500  1
  C  181  1  0.99562400  0.30143400  0.51945200  1
  C  182  1  0.99866100  0.27574600  0.52072200  1
  C  189  1  0.99932500  0.31617400  0.54063000  1
  C  190  1  0.98249800  0.30932900  0.45221000  1
  C  191  1  0.96137200  0.17807700  0.50656600  1
  C  192  1  0.05061000  0.18944000  0.51093000  1
  C  197  1  0.99852400  0.76231800  0.50236100  1
  C  198  1  0.01889900  0.77819500  0.50428600  1
  C  199  1  0.01590900  0.80336300  0.50988100  1
  C  200  1  0.99172100  0.81234700  0.51304200  1
  C  201  1  0.97097500  0.79685600  0.51085400  1
  C  202  1  0.97451200  0.77155500  0.50592300  1
  C  205  1  0.00275200  0.73699900  0.49851200  1
  C  206  1  0.00928600  0.72770400  0.47516200  1
  C  207  1  0.01380700  0.70224400  0.47216000  1
  C  208  1  0.01265000  0.68664200  0.49291900  1
  C  209  1  0.00651800  0.69570000  0.51649800  1
  C  210  1  0.00130300  0.72100900  0.51882200  1
  C  217  1  0.00472900  0.67946800  0.53697000  1
  C  218  1  0.01858200  0.69209100  0.44863500  1
  C  219  1  0.03636000  0.81967800  0.51111700  1
  C  220  1  0.94706900  0.80699200  0.51293900  1
  C  225  1  0.23503800  0.49718000  0.99710400  1
  C  226  1  0.22020500  0.49771300  0.01833400  1
  C  227  1  0.19449300  0.49457600  0.01685100  1
  C  228  1  0.18390500  0.49142600  0.99333100  1
  C  229  1  0.19833600  0.49116600  0.97172500  1
  C  230  1  0.22416400  0.49362300  0.97377000  1
  C  233  1  0.26080900  0.49897300  0.99968300  1
  C  234  1  0.27229900  0.52158500  0.00534500  1
  C  235  1  0.29824500  0.52286200  0.00727100  1
  C  236  1  0.31221500  0.50117200  0.00408700  1
  C  237  1  0.30093100  0.47837000  0.99893000  1
  C  238  1  0.27513000  0.47759300  0.99672000  1
  C  245  1  0.31520800  0.45693200  0.99485000  1
  C  246  1  0.31040300  0.54535000  0.01240800  1
  C  247  1  0.17931800  0.49481500  0.03816800  1
  C  248  1  0.18680200  0.48809800  0.94855200  1
  C  253  1  0.76180500  0.49675500  0.00053200  1
  C  254  1  0.77737500  0.49654800  0.97983400  1
  C  255  1  0.80282500  0.49214600  0.98216600  1
  C  256  1  0.81245400  0.48853400  0.00601900  1
  C  257  1  0.79728000  0.48893600  0.02712500  1
  C  258  1  0.77166900  0.49260500  0.02420800  1
  C  261  1  0.73629300  0.49987900  0.99684200  1
  C  262  1  0.72638000  0.52298000  0.99033400  1
  C  263  1  0.70083300  0.52536100  0.98598200  1
  C  264  1  0.68576000  0.50422700  0.98720300  1
  C  265  1  0.69542200  0.48087100  0.99328300  1
  C  266  1  0.72082000  0.47916400  0.99835400  1
  C  273  1  0.67966600  0.46000900  0.99493100  1
  C  274  1  0.69016400  0.54862400  0.98110000  1
  C  275  1  0.81863600  0.49186600  0.96132400  1
  C  276  1  0.80796500  0.48564200  0.05067700  1
  C  281  1  0.49666200  0.00095600  0.76091600  1
  C  282  1  0.49656100  0.98017200  0.77638300  1
  C  283  1  0.49229300  0.98235500  0.80187300  1
  C  284  1  0.48865100  0.00615000  0.81163400  1
  C  285  1  0.48895800  0.02733700  0.79658000  1
  C  286  1  0.49255200  0.02457500  0.77094100  1
  C  289  1  0.49974500  0.99743900  0.73536200  1
  C  290  1  0.52280000  0.99085600  0.72537800  1
  C  291  1  0.52514800  0.98669800  0.69979300  1
  C  292  1  0.50401400  0.98820500  0.68474400  1
  C  293  1  0.48069400  0.99437600  0.69445200  1
  C  294  1  0.47903700  0.99923000  0.71990000  1
  C  301  1  0.45983600  0.99626300  0.67869200  1
  C  302  1  0.54835800  0.98168600  0.68904500  1
  C  303  1  0.49215900  0.96145800  0.81762400  1
  C  304  1  0.48565800  0.05081100  0.80743400  1
  C  309  1  0.49651800  0.99745700  0.23456800  1
  C  310  1  0.49702000  0.01858900  0.21960900  1
  C  311  1  0.49395000  0.01692400  0.19390500  1
  C  312  1  0.49095500  0.99332500  0.18345100  1
  C  313  1  0.49074900  0.97181300  0.19802800  1
  C  314  1  0.49308600  0.97404000  0.22385000  1
  C  317  1  0.49837000  0.00020900  0.26030400  1
  C  318  1  0.52105100  0.00581700  0.27167100  1
  C  319  1  0.52244000  0.00780800  0.29760300  1
  C  320  1  0.50078800  0.00480200  0.31167300  1
  C  321  1  0.47791800  0.99972000  0.30049200  1
  C  322  1  0.47703300  0.99738700  0.27470600  1
  C  329  1  0.45653100  0.99573700  0.31486100  1
  C  330  1  0.54502700  0.01275500  0.30963200  1
  C  331  1  0.49415000  0.03816700  0.17864200  1
  C  332  1  0.48787600  0.94855000  0.18663500  1
  C  337  1  0.32932300  0.98483000  0.41932400  1
  C  338  1  0.35375800  0.97617500  0.42030800  1
  C  339  1  0.36996600  0.97846000  0.40012400  1
  C  340  1  0.36087000  0.98910300  0.37797300  1
  C  341  1  0.33617800  0.99703100  0.37666900  1
  C  342  1  0.32052500  0.99465300  0.39703100  1
  C  345  1  0.37616200  0.99287300  0.35726700  1
  C  346  1  0.38602400  0.97261800  0.34437700  1
  C  347  1  0.40467000  0.97617600  0.32689100  1
  C  348  1  0.41351800  0.00003200  0.32182200  1
  C  349  1  0.40242100  0.02042600  0.33333333  1
  C  350  1  0.38403400  0.01685700  0.35116400  1
  C  363  1  0.66989800  0.01232100  0.41710600  1
  C  364  1  0.64575800  0.02181300  0.41752100  1
  C  365  1  0.63004400  0.02022400  0.39688900  1
  C  366  1  0.63932200  0.00922700  0.37500000  1
  C  367  1  0.66368600  0.00031700  0.37429500  1
  C  368  1  0.67889600  0.00215100  0.39504600  1
  C  371  1  0.62437700  0.00602500  0.35400100  1
  C  372  1  0.61730300  0.02652900  0.33976800  1
  C  373  1  0.59851900  0.02424400  0.32220600  1
  C  374  1  0.58653000  0.00149100  0.31861600  1
  C  375  1  0.59492200  0.98063700  0.33158700  1
  C  376  1  0.61354800  0.98291400  0.34933400  1
  C  389  1  0.68096300  0.99125100  0.58759900  1
  C  390  1  0.66310400  0.97255900  0.58910200  1
  C  391  1  0.64532500  0.97221900  0.60809500  1
  C  392  1  0.64657900  0.99059900  0.62678000  1
  C  393  1  0.66526200  0.00867200  0.62570300  1
  C  394  1  0.68210400  0.00917100  0.60619900  1
  C  397  1  0.62843700  0.99289000  0.64540900  1
  C  398  1  0.62405500  0.97376400  0.66243800  1
  C  399  1  0.60409000  0.97511800  0.67879500  1
  C  400  1  0.58855400  0.99589900  0.67886500  1
  C  401  1  0.59383100  0.01566800  0.66294700  1
  C  402  1  0.61339900  0.01406700  0.64620300  1
  C  415  1  0.31564900  0.00167000  0.59007600  1
  C  416  1  0.33003100  0.02283900  0.59432700  1
  C  417  1  0.34858100  0.02326900  0.61256700  1
  C  418  1  0.35193000  0.00198700  0.62743200  1
  C  419  1  0.33645500  0.98138700  0.62421900  1
  C  420  1  0.31841400  0.98128400  0.60581900  1
  C  423  1  0.37273000  0.99907100  0.64273400  1
  C  424  1  0.37372200  0.00962900  0.66639000  1
  C  425  1  0.39498900  0.00703200  0.68087000  1
  C  426  1  0.41579400  0.99436100  0.67181600  1
  C  427  1  0.41440000  0.98332000  0.64835100  1
  C  428  1  0.39315200  0.98571500  0.63391500  1
  C  441  1  0.41931100  0.32903700  0.98528900  1
  C  442  1  0.42029500  0.35319100  0.97587100  1
  C  443  1  0.40016500  0.36952000  0.97776200  1
  C  444  1  0.37802300  0.36080000  0.98874300  1
  C  445  1  0.37668900  0.33632900  0.99734100  1
  C  446  1  0.39701400  0.32056300  0.99537900  1
  C  449  1  0.35744700  0.37632300  0.99239900  1
  C  450  1  0.34454800  0.38609500  0.97210300  1
  C  451  1  0.32717500  0.40487600  0.97555200  1
  C  452  1  0.32218900  0.41392900  0.99934700  1
  C  453  1  0.33373400  0.40293500  0.01979500  1
  C  454  1  0.35143800  0.38443600  0.01632800  1
  C  467  1  0.41830400  0.67050900  0.01210500  1
  C  468  1  0.41863500  0.64670400  0.02241800  1
  C  469  1  0.39809300  0.63084400  0.02101000  1
  C  470  1  0.37633100  0.63964000  0.00937900  1
  C  471  1  0.37568900  0.66371300  0.99968900  1
  C  472  1  0.39635400  0.67906500  0.00132900  1
  C  475  1  0.35545400  0.62447600  0.00618700  1
  C  476  1  0.34112200  0.61740800  0.02662900  1
  C  477  1  0.32347000  0.59871100  0.02425700  1
  C  478  1  0.31983800  0.58681400  0.00146100  1
  C  479  1  0.33292000  0.59519200  0.98067200  1
  C  480  1  0.35076200  0.61372100  0.98304000  1
  C  493  1  0.58860900  0.68102200  0.99061300  1
  C  494  1  0.59016400  0.66298400  0.97209600  1
  C  495  1  0.60914200  0.64519800  0.97197500  1
  C  496  1  0.62777700  0.64663600  0.99038700  1
  C  497  1  0.62664600  0.66545300  0.00831000  1
  C  498  1  0.60715400  0.68231400  0.00858700  1
  C  501  1  0.64647300  0.62859100  0.99277800  1
  C  502  1  0.66352600  0.62423500  0.97367000  1
  C  503  1  0.67985200  0.60425000  0.97501900  1
  C  504  1  0.67985500  0.58867200  0.99576900  1
  C  505  1  0.66394900  0.59396300  0.01554600  1
  C  506  1  0.64723500  0.61355700  0.01395600  1
  C  519  1  0.59057300  0.31676200  0.00304600  1
  C  520  1  0.59528000  0.33148600  0.02387400  1
  C  521  1  0.61374500  0.34981000  0.02368700  1
  C  522  1  0.62836700  0.35252700  0.00214700  1
  C  523  1  0.62469400  0.33669400  0.98190100  1
  C  524  1  0.60606300  0.31890400  0.98239900  1
  C  527  1  0.64380300  0.37311000  0.99859100  1
  C  528  1  0.66752400  0.37419400  0.00899200  1
  C  529  1  0.68203400  0.39538300  0.00597900  1
  C  530  1  0.67293800  0.41599600  0.99303700  1
  C  531  1  0.64943600  0.41447900  0.98210000  1
  C  532  1  0.63496800  0.39331000  0.98491400  1
  C  545  1  0.98551500  0.41828900  0.32792000  1
  C  546  1  0.97511800  0.41855700  0.35169000  1
  C  547  1  0.97628900  0.39790700  0.36743700  1
  C  548  1  0.98781300  0.37611200  0.35858500  1
  C  549  1  0.99764800  0.37555200  0.33457000  1
  C  550  1  0.99620800  0.39631200  0.31931800  1
  C  553  1  0.99063700  0.35507600  0.37360800  1
  C  554  1  0.97002500  0.34072300  0.38012400  1
  C  555  1  0.97196600  0.32285100  0.39866800  1
  C  556  1  0.99446800  0.31911400  0.41108900  1
  C  557  1  0.01545100  0.33224800  0.40327900  1
  C  558  1  0.01351700  0.35027100  0.38486800  1
  C  571  1  0.01203200  0.41930000  0.66911900  1
  C  572  1  0.02160000  0.42022600  0.64502300  1
  C  573  1  0.01941400  0.40020900  0.62859500  1
  C  574  1  0.00802300  0.37822500  0.63718400  1
  C  575  1  0.99937600  0.37690700  0.66164300  1
  C  576  1  0.00159900  0.39713200  0.67749800  1
  C  579  1  0.00380600  0.35789200  0.62149400  1
  C  580  1  0.02374200  0.34466000  0.61142800  1
  C  581  1  0.01974500  0.32755900  0.59251000  1
  C  582  1  0.99575200  0.32308000  0.58373000  1
  C  583  1  0.97565500  0.33495800  0.59499400  1
  C  584  1  0.97967100  0.35242800  0.61359600  1
  C  597  1  0.99354900  0.59040100  0.68039700  1
  C  598  1  0.97290200  0.59508400  0.66541100  1
  C  599  1  0.97334500  0.61344900  0.64699300  1
  C  600  1  0.99500300  0.62791000  0.64437300  1
  C  601  1  0.01504400  0.62430700  0.66047400  1
  C  602  1  0.01427100  0.60581100  0.67838900  1
  C  605  1  0.99886900  0.64311800  0.62369700  1
  C  606  1  0.98932700  0.66719100  0.62266200  1
  C  607  1  0.99297100  0.68164900  0.60154500  1
  C  608  1  0.00569300  0.67217400  0.58095700  1
  C  609  1  0.01570000  0.64825900  0.58240300  1
  C  610  1  0.01225400  0.63382900  0.60350600  1
  C  623  1  0.00557800  0.58888500  0.31766600  1
  C  624  1  0.02439500  0.59050500  0.33539000  1
  C  625  1  0.02483800  0.60956700  0.35308400  1
  C  626  1  0.00647600  0.62826800  0.35184600  1
  C  627  1  0.98818800  0.62701700  0.33338700  1
  C  628  1  0.98759300  0.60743700  0.31662400  1
  C  631  1  0.00463000  0.64726700  0.36965800  1
  C  632  1  0.02397300  0.66421700  0.37333600  1
  C  633  1  0.02319700  0.68090600  0.39305500  1
  C  634  1  0.00280700  0.68136000  0.40909900  1
  C  635  1  0.98279200  0.66552700  0.40448800  1
  C  636  1  0.98378100  0.64850300  0.38511200  1
  C  649  1  0.82572200  0.48444000  0.91797500  1
  C  650  1  0.84970300  0.47453800  0.91789000  1
  C  651  1  0.86477800  0.47527300  0.89673300  1
  C  652  1  0.85501500  0.48585700  0.87485700  1
  C  653  1  0.83080800  0.49519600  0.87466800  1
  C  654  1  0.81622500  0.49417400  0.89592100  1
  C  657  1  0.86939900  0.48840100  0.85338300  1
  C  658  1  0.87526300  0.46764400  0.83897000  1
  C  659  1  0.89347400  0.46923700  0.82072700  1
  C  660  1  0.90626800  0.49149500  0.81678400  1
  C  661  1  0.89909000  0.51263600  0.83003800  1
  C  662  1  0.88098200  0.51106700  0.84837900  1
  C  675  1  0.17741000  0.50370000  0.90856600  1
  C  676  1  0.16365300  0.52487400  0.90267100  1
  C  677  1  0.14554500  0.52457100  0.88399000  1
  C  678  1  0.14206200  0.50248200  0.87037200  1
  C  679  1  0.15697700  0.48178700  0.87524600  1
  C  680  1  0.17453800  0.48242700  0.89408200  1
  C  683  1  0.12160200  0.49905200  0.85473600  1
  C  684  1  0.12098400  0.50905700  0.83082400  1
  C  685  1  0.09995400  0.50610300  0.81607500  1
  C  686  1  0.07903000  0.49362100  0.82510500  1
  C  687  1  0.08009800  0.48301800  0.84878700  1
  C  688  1  0.10109800  0.48578300  0.86349700  1
  C  701  1  0.17252700  0.48647100  0.08132500  1
  C  702  1  0.14873400  0.47612100  0.08119100  1
  C  703  1  0.13349500  0.47646900  0.10223600  1
  C  704  1  0.14292600  0.48706800  0.12425300  1
  C  705  1  0.16699400  0.49677600  0.12467200  1
  C  706  1  0.18174000  0.49616600  0.10350800  1
  C  709  1  0.12822500  0.48946300  0.14553900  1
  C  710  1  0.12205800  0.46859400  0.15967000  1
  C  711  1  0.10336200  0.47001400  0.17744000  1
  C  712  1  0.09049700  0.49224500  0.18132000  1
  C  713  1  0.09798700  0.51348700  0.16841300  1
  C  714  1  0.11652000  0.51208200  0.15048800  1
  C  727  1  0.81791400  0.50219500  0.09003800  1
  C  728  1  0.83215800  0.52331100  0.09495200  1
  C  729  1  0.85059500  0.52332700  0.11330400  1
  C  730  1  0.85393800  0.50166300  0.12760500  1
  C  731  1  0.83859900  0.48107600  0.12373500  1
  C  732  1  0.82067900  0.48139200  0.10522300  1
  C  735  1  0.87460700  0.49845800  0.14300200  1
  C  736  1  0.87527800  0.50833400  0.16696000  1
  C  737  1  0.89643700  0.50550200  0.18154900  1
  C  738  1  0.91742900  0.49327900  0.17232000  1
  C  739  1  0.91634700  0.48290100  0.14853700  1
  C  740  1  0.89521300  0.48553500  0.13398000  1
  C  753  1  0.91004700  0.81880900  0.49296300  1
  C  754  1  0.90929400  0.83689400  0.47443500  1
  C  755  1  0.89077100  0.85515500  0.47394400  1
  C  756  1  0.87175200  0.85421000  0.49199100  1
  C  757  1  0.87206100  0.83535700  0.50991200  1
  C  758  1  0.89108700  0.81797500  0.51053500  1
  C  761  1  0.85338700  0.87265800  0.49395500  1
  C  762  1  0.83682400  0.87729300  0.47448800  1
  C  763  1  0.82065300  0.89741800  0.47556300  1
  C  764  1  0.82035600  0.91294300  0.49635300  1
  C  765  1  0.83578100  0.90742700  0.51644900  1
  C  766  1  0.85234000  0.88766800  0.51514400  1
  C  779  1  0.91824500  0.16987200  0.51317300  1
  C  780  1  0.91864500  0.14562800  0.52238700  1
  C  781  1  0.89852000  0.12946600  0.51938800  1
  C  782  1  0.87696400  0.13847700  0.50751600  1
  C  783  1  0.87614700  0.16307500  0.49921500  1
  C  784  1  0.89647200  0.17866600  0.50225800  1
  C  787  1  0.85664100  0.12304200  0.50242300  1
  C  788  1  0.84264100  0.11292500  0.52179900  1
  C  789  1  0.82574400  0.09399100  0.51708100  1
  C  790  1  0.82224400  0.08527000  0.49290600  1
  C  791  1  0.83488800  0.09658000  0.47331400  1
  C  792  1  0.85214700  0.11520900  0.47806700  1
  C  805  1  0.08819600  0.17851500  0.49153600  1
  C  806  1  0.08922900  0.16073500  0.47273400  1
  C  807  1  0.10779600  0.14252300  0.47221500  1
  C  808  1  0.12654300  0.14321300  0.49055500  1
  C  809  1  0.12593000  0.16174600  0.50879700  1
  C  810  1  0.10684500  0.17906100  0.50944000  1
  C  813  1  0.14491100  0.12477600  0.49246700  1
  C  814  1  0.16184700  0.12059800  0.47322000  1
  C  815  1  0.17801800  0.10046400  0.47415900  1
  C  816  1  0.17794700  0.08446100  0.49459500  1
  C  817  1  0.16211600  0.08953900  0.51449900  1
  C  818  1  0.14557800  0.10931700  0.51333800  1
  C  831  1  0.07977500  0.82719200  0.51596000  1
  C  832  1  0.08072800  0.85081500  0.52663800  1
  C  833  1  0.10089000  0.86675300  0.52275900  1
  C  834  1  0.12075800  0.85829600  0.50796600  1
  C  835  1  0.12036500  0.83427800  0.49816600  1
  C  836  1  0.10019200  0.81877400  0.50241400  1
  C  839  1  0.13980100  0.87426700  0.50052000  1
  C  840  1  0.16101500  0.87737800  0.51510900  1
  C  841  1  0.17792300  0.89613000  0.50956100  1
  C  842  1  0.17356800  0.91230900  0.48974100  1
  C  843  1  0.15286800  0.90845800  0.47457600  1
  C  844  1  0.13607600  0.88961200  0.47993400  1
  C  857  1  0.48486300  0.91810500  0.82478300  1
  C  858  1  0.47471800  0.91809800  0.84866500  1
  C  859  1  0.47539800  0.89702700  0.86386300  1
  C  860  1  0.48617500  0.87514500  0.85432800  1
  C  861  1  0.49575000  0.87487200  0.83021000  1
  C  862  1  0.49478200  0.89604200  0.81550200  1
  C  865  1  0.48866200  0.85375800  0.86885800  1
  C  866  1  0.46789600  0.83932500  0.87464000  1
  C  867  1  0.46938100  0.82119900  0.89298100  1
  C  868  1  0.49153900  0.81739000  0.90598500  1
  C  869  1  0.51270400  0.83065700  0.89890300  1
  C  870  1  0.51124000  0.84888400  0.88067000  1
  C  883  1  0.50339900  0.90856500  0.17770800  1
  C  884  1  0.52449900  0.90293000  0.16373100  1
  C  885  1  0.52417600  0.88434100  0.14553400  1
  C  886  1  0.50216000  0.87058000  0.14218200  1
  C  887  1  0.48157100  0.87517500  0.15732200  1
  C  888  1  0.48222500  0.89390700  0.17499000  1
  C  891  1  0.49861600  0.85517700  0.12158200  1
  C  892  1  0.50827800  0.83113300  0.12082600  1
  C  893  1  0.50512200  0.81657100  0.09969800  1
  C  894  1  0.49278900  0.82592100  0.07882500  1
  C  895  1  0.48257000  0.84976200  0.08001600  1
  C  896  1  0.48553000  0.86428900  0.10111600  1
  C  909  1  0.48579600  0.08132100  0.17181900  1
  C  910  1  0.47582600  0.08122900  0.14786700  1
  C  911  1  0.47628300  0.10234800  0.13273800  1
  C  912  1  0.48660300  0.12437700  0.14244500  1
  C  913  1  0.49594700  0.12474700  0.16665300  1
  C  914  1  0.49523400  0.10351000  0.18128400  1
  C  917  1  0.48904400  0.14575300  0.12790300  1
  C  918  1  0.46816100  0.15983000  0.12166500  1
  C  919  1  0.46962500  0.17763600  0.10301200  1
  C  920  1  0.49190900  0.18158800  0.09026300  1
  C  921  1  0.51315800  0.16874800  0.09784500  1
  C  922  1  0.51171000  0.15078900  0.11633600  1
  C  935  1  0.50235000  0.09010000  0.81770100  1
  C  936  1  0.52351500  0.09503600  0.83186400  1
  C  937  1  0.52358300  0.11336700  0.85032600  1
  C  938  1  0.50191200  0.12763500  0.85378000  1
  C  939  1  0.48126800  0.12374000  0.83852600  1
  C  940  1  0.48153600  0.10524500  0.82058700  1
  C  943  1  0.49879100  0.14307200  0.87444000  1
  C  944  1  0.50885500  0.16695300  0.87512200  1
  C  945  1  0.50607700  0.18158900  0.89625700  1
  C  946  1  0.49371500  0.17248300  0.91722200  1
  C  947  1  0.48315100  0.14878200  0.91612800  1
  C  948  1  0.48573200  0.13418200  0.89501900  1
  C  961  1  0.23616100  0.25403300  0.99064500  1
  C  962  1  0.22112100  0.23294000  0.99057900  1
  C  963  1  0.19594800  0.23425200  0.98429700  1
  C  964  1  0.18616100  0.25766900  0.97853200  1
  C  965  1  0.20073000  0.27917200  0.97899500  1
  C  966  1  0.22605600  0.27716800  0.98458600  1
  C  969  1  0.26155700  0.25135700  0.99532100  1
  C  970  1  0.27063300  0.24753100  0.01936980  1
  C  971  1  0.29620000  0.24449300  0.02322780  1
  C  972  1  0.31216900  0.24460500  0.00272480  1
  C  973  1  0.30335900  0.24805100  0.97853800  1
  C  974  1  0.27789600  0.25163000  0.97522000  1
  C  981  1  0.32001000  0.24861000  0.95838700  1
  C  982  1  0.30615400  0.24140600  0.04711880  1
  C  983  1  0.18036000  0.21312400  0.98470700  1
  C  984  1  0.18972700  0.30239800  0.97464300  1
  C  989  1  0.76151100  0.25753800  0.99033800  1
  C  990  1  0.77608000  0.27888600  0.99181300  1
  C  991  1  0.80173500  0.27783200  0.98830200  1
  C  992  1  0.81261500  0.25477400  0.98336200  1
  C  993  1  0.79833800  0.23311500  0.98176000  1
  C  994  1  0.77254200  0.23464700  0.98496800  1
  C  997  1  0.73596800  0.25960700  0.99434500  1
  C  998  1  0.72640300  0.26279300  0.01828380  1
  C  999  1  0.70076500  0.26554600  0.02171080  1
  C  1000  1  0.68517600  0.26588800  0.00093280  1
  C  1001  1  0.69447400  0.26297500  0.97683600  1
  C  1002  1  0.72003900  0.25958000  0.97393900  1
  C  1009  1  0.67821800  0.26277500  0.95633700  1
  C  1010  1  0.69051900  0.26755900  0.04555980  1
  C  1011  1  0.81632500  0.29919100  0.99158200  1
  C  1012  1  0.81005800  0.21019700  0.97776000  1
  C  1017  1  0.49587500  0.49409000  0.49650500  1
  C  1018  1  0.49812800  0.47840100  0.47601700  1
  C  1019  1  0.49330700  0.45298000  0.47787800  1
  C  1020  1  0.48677000  0.44350900  0.50117700  1
  C  1021  1  0.48471400  0.45877600  0.52212400  1
  C  1022  1  0.48878900  0.48436300  0.51953000  1
  C  1025  1  0.50000900  0.51953300  0.49328900  1
  C  1026  1  0.52393700  0.52887700  0.48931800  1
  C  1027  1  0.52744600  0.55439800  0.48559100  1
  C  1028  1  0.50670600  0.57004200  0.48511300  1
  C  1029  1  0.48262900  0.56097200  0.48866200  1
  C  1030  1  0.47965400  0.53556300  0.49293400  1
  C  1037  1  0.46227400  0.57738600  0.48862800  1
  C  1038  1  0.55122500  0.56457100  0.48235900  1
  C  1039  1  0.49555400  0.43702700  0.45723100  1
  C  1040  1  0.47900800  0.44820100  0.54528900  1
  C  1045  1  0.49523400  0.01894000  0.49171000  1
  C  1046  1  0.49733000  0.03464600  0.51219200  1
  C  1047  1  0.49246900  0.06004800  0.51026900  1
  C  1048  1  0.48606100  0.06949300  0.48693200  1
  C  1049  1  0.48415700  0.05419600  0.46598700  1
  C  1050  1  0.48828000  0.02862000  0.46862600  1
  C  1053  1  0.49937200  0.99353100  0.49509400  1
  C  1054  1  0.52332200  0.98425700  0.49898500  1
  C  1055  1  0.52683100  0.95883300  0.50324600  1
  C  1056  1  0.50610900  0.94320700  0.50443100  1
  C  1057  1  0.48198400  0.95222300  0.50092800  1
  C  1058  1  0.47901700  0.97753400  0.49602700  1
  C  1065  1  0.46156300  0.93586400  0.50151500  1
  C  1066  1  0.55072400  0.94878300  0.50572100  1
  C  1067  1  0.49460600  0.07598000  0.53092400  1
  C  1068  1  0.47852600  0.06477700  0.44281300  1
  C  1073  1  0.00061200  0.75294000  0.73275500  1
  C  1074  1  0.98012500  0.75509700  0.71705400  1
  C  1075  1  0.98203700  0.75034600  0.69162500  1
  C  1076  1  0.00538300  0.74397800  0.68215600  1
  C  1077  1  0.02633500  0.74203600  0.69743200  1
  C  1078  1  0.02369900  0.74605300  0.72302700  1
  C  1081  1  0.99728100  0.75695100  0.75820800  1
  C  1082  1  0.99334200  0.78083700  0.76763500  1
  C  1083  1  0.98936800  0.78422800  0.79312800  1
  C  1084  1  0.98851000  0.76342700  0.80867100  1
  C  1085  1  0.99208100  0.73935200  0.79953300  1
  C  1086  1  0.99669100  0.73653200  0.77414600  1
  C  1093  1  0.99186100  0.71885200  0.81583300  1
  C  1094  1  0.98687100  0.80806300  0.80335400  1
  C  1095  1  0.96138300  0.75249800  0.67567000  1
  C  1096  1  0.04951200  0.73643800  0.68682400  1
  C  1101  1  0.99572600  0.75321400  0.25692400  1
  C  1102  1  0.01624900  0.75542800  0.27256900  1
  C  1103  1  0.01443500  0.75053500  0.29797500  1
  C  1104  1  0.99117400  0.74393200  0.30747700  1
  C  1105  1  0.97020200  0.74187500  0.29224400  1
  C  1106  1  0.97273200  0.74605300  0.26666600  1
  C  1109  1  0.99897300  0.75730600  0.23148200  1
  C  1110  1  0.00299700  0.78121300  0.22211000  1
  C  1111  1  0.00706200  0.78464000  0.19663500  1
  C  1112  1  0.00778700  0.76385900  0.18106100  1
  C  1113  1  0.00419200  0.73981000  0.19017300  1
  C  1114  1  0.99960600  0.73689400  0.21553100  1
  C  1121  1  0.00454200  0.71942400  0.17382900  1
  C  1122  1  0.01045500  0.80838600  0.18646400  1
  C  1123  1  0.03510900  0.75274900  0.31387800  1
  C  1124  1  0.94710600  0.73603000  0.30288600  1
  C  1129  1  0.99993800  0.49257900  0.99804700  1
  C  1130  1  0.97932200  0.47691300  0.99860700  1
  C  1131  1  0.98196000  0.45140300  0.00256980  1
  C  1132  1  0.00594800  0.44188800  0.00563880  1
  C  1133  1  0.02690500  0.45719800  0.00482980  1
  C  1134  1  0.02377900  0.48278500  0.00137280  1
  C  1137  1  0.99630000  0.51816300  0.99565700  1
  C  1138  1  0.99042400  0.52903000  0.97279100  1
  C  1139  1  0.98767200  0.55488000  0.97101600  1
  C  1140  1  0.99028100  0.56934400  0.99246700  1
  C  1141  1  0.99562400  0.55864600  0.01550380  1
  C  1142  1  0.99866100  0.53295800  0.01677380  1
  C  1149  1  0.99932500  0.57338600  0.03668180  1
  C  1150  1  0.98249800  0.56654100  0.94826200  1
  C  1151  1  0.96137200  0.43528900  0.00261780  1
  C  1152  1  0.05061000  0.44665200  0.00698180  1
  C  1157  1  0.99852400  0.01953000  0.99841300  1
  C  1158  1  0.01889900  0.03540700  0.00033780  1
  C  1159  1  0.01590900  0.06057500  0.00593280  1
  C  1160  1  0.99172100  0.06955900  0.00909380  1
  C  1161  1  0.97097500  0.05406800  0.00690580  1
  C  1162  1  0.97451200  0.02876700  0.00197480  1
  C  1165  1  0.00275200  0.99421100  0.99456400  1
  C  1166  1  0.00928600  0.98491600  0.97121400  1
  C  1167  1  0.01380700  0.95945600  0.96821200  1
  C  1168  1  0.01265000  0.94385400  0.98897100  1
  C  1169  1  0.00651800  0.95291200  0.01254980  1
  C  1170  1  0.00130300  0.97822100  0.01487380  1
  C  1177  1  0.00472900  0.93668000  0.03302180  1
  C  1178  1  0.01858200  0.94930300  0.94468700  1
  C  1179  1  0.03636000  0.07689000  0.00716880  1
  C  1180  1  0.94706900  0.06420400  0.00899080  1
  C  1185  1  0.23503800  0.75439200  0.49315600  1
  C  1186  1  0.22020500  0.75492500  0.51438600  1
  C  1187  1  0.19449300  0.75178800  0.51290300  1
  C  1188  1  0.18390500  0.74863800  0.48938300  1
  C  1189  1  0.19833600  0.74837800  0.46777700  1
  C  1190  1  0.22416400  0.75083500  0.46982200  1
  C  1193  1  0.26080900  0.75618500  0.49573500  1
  C  1194  1  0.27229900  0.77879700  0.50139700  1
  C  1195  1  0.29824500  0.78007400  0.50332300  1
  C  1196  1  0.31221500  0.75838400  0.50013900  1
  C  1197  1  0.30093100  0.73558200  0.49498200  1
  C  1198  1  0.27513000  0.73480500  0.49277200  1
  C  1205  1  0.31520800  0.71414400  0.49090200  1
  C  1206  1  0.31040300  0.80256200  0.50846000  1
  C  1207  1  0.17931800  0.75202700  0.53422000  1
  C  1208  1  0.18680200  0.74531000  0.44460400  1
  C  1213  1  0.76180500  0.75396700  0.49658400  1
  C  1214  1  0.77737500  0.75376000  0.47588600  1
  C  1215  1  0.80282500  0.74935800  0.47821800  1
  C  1216  1  0.81245400  0.74574600  0.50207100  1
  C  1217  1  0.79728000  0.74614800  0.52317700  1
  C  1218  1  0.77166900  0.74981700  0.52026000  1
  C  1221  1  0.73629300  0.75709100  0.49289400  1
  C  1222  1  0.72638000  0.78019200  0.48638600  1
  C  1223  1  0.70083300  0.78257300  0.48203400  1
  C  1224  1  0.68576000  0.76143900  0.48325500  1
  C  1225  1  0.69542200  0.73808300  0.48933500  1
  C  1226  1  0.72082000  0.73637600  0.49440600  1
  C  1233  1  0.67966600  0.71722100  0.49098300  1
  C  1234  1  0.69016400  0.80583600  0.47715200  1
  C  1235  1  0.81863600  0.74907800  0.45737600  1
  C  1236  1  0.80796500  0.74285400  0.54672900  1
  C  1241  1  0.49666200  0.25816800  0.25696800  1
  C  1242  1  0.49656100  0.23738400  0.27243500  1
  C  1243  1  0.49229300  0.23956700  0.29792500  1
  C  1244  1  0.48865100  0.26336200  0.30768600  1
  C  1245  1  0.48895800  0.28454900  0.29263200  1
  C  1246  1  0.49255200  0.28178700  0.26699300  1
  C  1249  1  0.49974500  0.25465100  0.23141400  1
  C  1250  1  0.52280000  0.24806800  0.22143000  1
  C  1251  1  0.52514800  0.24391000  0.19584500  1
  C  1252  1  0.50401400  0.24541700  0.18079600  1
  C  1253  1  0.48069400  0.25158800  0.19050400  1
  C  1254  1  0.47903700  0.25644200  0.21595200  1
  C  1261  1  0.45983600  0.25347500  0.17474400  1
  C  1262  1  0.54835800  0.23889800  0.18509700  1
  C  1263  1  0.49215900  0.21867000  0.31367600  1
  C  1264  1  0.48565800  0.30802300  0.30348600  1
  C  1269  1  0.49651800  0.25466900  0.73062000  1
  C  1270  1  0.49702000  0.27580100  0.71566100  1
  C  1271  1  0.49395000  0.27413600  0.68995700  1
  C  1272  1  0.49095500  0.25053700  0.67950300  1
  C  1273  1  0.49074900  0.22902500  0.69408000  1
  C  1274  1  0.49308600  0.23125200  0.71990200  1
  C  1277  1  0.49837000  0.25742100  0.75635600  1
  C  1278  1  0.52105100  0.26302900  0.76772300  1
  C  1279  1  0.52244000  0.26502000  0.79365500  1
  C  1280  1  0.50078800  0.26201400  0.80772500  1
  C  1281  1  0.47791800  0.25693200  0.79654400  1
  C  1282  1  0.47703300  0.25459900  0.77075800  1
  C  1289  1  0.45653100  0.25294900  0.81091300  1
  C  1290  1  0.54502700  0.26996700  0.80568400  1
  C  1291  1  0.49415000  0.29537900  0.67469400  1
  C  1292  1  0.48787600  0.20576200  0.68268700  1
  C  1297  1  0.32932300  0.24204200  0.91537600  1
  C  1298  1  0.35375800  0.23338700  0.91636000  1
  C  1299  1  0.36996600  0.23567200  0.89617600  1
  C  1300  1  0.36087000  0.24631500  0.87402500  1
  C  1301  1  0.33617800  0.25424300  0.87272100  1
  C  1302  1  0.32052500  0.25186500  0.89308300  1
  C  1305  1  0.37616200  0.25008500  0.85331900  1
  C  1306  1  0.38602400  0.22983000  0.84042900  1
  C  1307  1  0.40467000  0.23338800  0.82294300  1
  C  1308  1  0.41351800  0.25724400  0.81787400  1
  C  1309  1  0.40242100  0.27763800  0.82941700  1
  C  1310  1  0.38403400  0.27406900  0.84721600  1
  C  1323  1  0.66989800  0.26953300  0.91315800  1
  C  1324  1  0.64575800  0.27902500  0.91357300  1
  C  1325  1  0.63004400  0.27743600  0.89294100  1
  C  1326  1  0.63932200  0.26643900  0.87105200  1
  C  1327  1  0.66368600  0.25752900  0.87034700  1
  C  1328  1  0.67889600  0.25936300  0.89109800  1
  C  1331  1  0.62437700  0.26323700  0.85005300  1
  C  1332  1  0.61730300  0.28374100  0.83582000  1
  C  1333  1  0.59851900  0.28145600  0.81825800  1
  C  1334  1  0.58653000  0.25870300  0.81466800  1
  C  1335  1  0.59492200  0.23784900  0.82763900  1
  C  1336  1  0.61354800  0.24012600  0.84538600  1
  C  1349  1  0.68096300  0.24846300  0.08365080  1
  C  1350  1  0.66310400  0.22977100  0.08515380  1
  C  1351  1  0.64532500  0.22943100  0.10414700  1
  C  1352  1  0.64657900  0.24781100  0.12283200  1
  C  1353  1  0.66526200  0.26588400  0.12175500  1
  C  1354  1  0.68210400  0.26638300  0.10225100  1
  C  1357  1  0.62843700  0.25010200  0.14146100  1
  C  1358  1  0.62405500  0.23097600  0.15849000  1
  C  1359  1  0.60409000  0.23233000  0.17484700  1
  C  1360  1  0.58855400  0.25311100  0.17491700  1
  C  1361  1  0.59383100  0.27288000  0.15899900  1
  C  1362  1  0.61339900  0.27127900  0.14225500  1
  C  1375  1  0.31564900  0.25888200  0.08612780  1
  C  1376  1  0.33003100  0.28005100  0.09037880  1
  C  1377  1  0.34858100  0.28048100  0.10861900  1
  C  1378  1  0.35193000  0.25919900  0.12348400  1
  C  1379  1  0.33645500  0.23859900  0.12027100  1
  C  1380  1  0.31841400  0.23849600  0.10187100  1
  C  1383  1  0.37273000  0.25628300  0.13878600  1
  C  1384  1  0.37372200  0.26684100  0.16244200  1
  C  1385  1  0.39498900  0.26424400  0.17692200  1
  C  1386  1  0.41579400  0.25157300  0.16786800  1
  C  1387  1  0.41440000  0.24053200  0.14440300  1
  C  1388  1  0.39315200  0.24292700  0.12996700  1
  C  1401  1  0.41931100  0.58624900  0.48134100  1
  C  1402  1  0.42029500  0.61040300  0.47192300  1
  C  1403  1  0.40016500  0.62673200  0.47381400  1
  C  1404  1  0.37802300  0.61801200  0.48479500  1
  C  1405  1  0.37668900  0.59354100  0.49339300  1
  C  1406  1  0.39701400  0.57777500  0.49143100  1
  C  1409  1  0.35744700  0.63353500  0.48845100  1
  C  1410  1  0.34454800  0.64330700  0.46815500  1
  C  1411  1  0.32717500  0.66208800  0.47160400  1
  C  1412  1  0.32218900  0.67114100  0.49539900  1
  C  1413  1  0.33373400  0.66014700  0.51584700  1
  C  1414  1  0.35143800  0.64164800  0.51238000  1
  C  1427  1  0.41830400  0.92772100  0.50815700  1
  C  1428  1  0.41863500  0.90391600  0.51847000  1
  C  1429  1  0.39809300  0.88805600  0.51706200  1
  C  1430  1  0.37633100  0.89685200  0.50543100  1
  C  1431  1  0.37568900  0.92092500  0.49574100  1
  C  1432  1  0.39635400  0.93627700  0.49738100  1
  C  1435  1  0.35545400  0.88168800  0.50223900  1
  C  1436  1  0.34112200  0.87462000  0.52268100  1
  C  1437  1  0.32347000  0.85592300  0.52030900  1
  C  1438  1  0.31983800  0.84402600  0.49751300  1
  C  1439  1  0.33292000  0.85240400  0.47672400  1
  C  1440  1  0.35076200  0.87093300  0.47909200  1
  C  1453  1  0.58860900  0.93823400  0.48666500  1
  C  1454  1  0.59016400  0.92019600  0.46814800  1
  C  1455  1  0.60914200  0.90241000  0.46802700  1
  C  1456  1  0.62777700  0.90384800  0.48643900  1
  C  1457  1  0.62664600  0.92266500  0.50436200  1
  C  1458  1  0.60715400  0.93952600  0.50463900  1
  C  1461  1  0.64647300  0.88580300  0.48883000  1
  C  1462  1  0.66352600  0.88144700  0.46972200  1
  C  1463  1  0.67985200  0.86146200  0.47107100  1
  C  1464  1  0.67985500  0.84588400  0.49182100  1
  C  1465  1  0.66394900  0.85117500  0.51159800  1
  C  1466  1  0.64723500  0.87076900  0.51000800  1
  C  1479  1  0.59057300  0.57397400  0.49909800  1
  C  1480  1  0.59528000  0.58869800  0.51992600  1
  C  1481  1  0.61374500  0.60702200  0.51973900  1
  C  1482  1  0.62836700  0.60973900  0.49819900  1
  C  1483  1  0.62469400  0.59390600  0.47795300  1
  C  1484  1  0.60606300  0.57611600  0.47845100  1
  C  1487  1  0.64380300  0.63032200  0.49464300  1
  C  1488  1  0.66752400  0.63140600  0.50504400  1
  C  1489  1  0.68203400  0.65259500  0.50203100  1
  C  1490  1  0.67293800  0.67320800  0.48908900  1
  C  1491  1  0.64943600  0.67169100  0.47815200  1
  C  1492  1  0.63496800  0.65052200  0.48096600  1
  C  1505  1  0.98551500  0.67550100  0.82397200  1
  C  1506  1  0.97511800  0.67576900  0.84774200  1
  C  1507  1  0.97628900  0.65511900  0.86348900  1
  C  1508  1  0.98781300  0.63332400  0.85463700  1
  C  1509  1  0.99764800  0.63276400  0.83062200  1
  C  1510  1  0.99620800  0.65352400  0.81537000  1
  C  1513  1  0.99063700  0.61228800  0.86966000  1
  C  1514  1  0.97002500  0.59793500  0.87617600  1
  C  1515  1  0.97196600  0.58006300  0.89472000  1
  C  1516  1  0.99446800  0.57632600  0.90714100  1
  C  1517  1  0.01545100  0.58946000  0.89933100  1
  C  1518  1  0.01351700  0.60748300  0.88092000  1
  C  1531  1  0.01203200  0.67651200  0.16517100  1
  C  1532  1  0.02160000  0.67743800  0.14107500  1
  C  1533  1  0.01941400  0.65742100  0.12464700  1
  C  1534  1  0.00802300  0.63543700  0.13323600  1
  C  1535  1  0.99937600  0.63411900  0.15769500  1
  C  1536  1  0.00159900  0.65434400  0.17355000  1
  C  1539  1  0.00380600  0.61510400  0.11754600  1
  C  1540  1  0.02374200  0.60187200  0.10748000  1
  C  1541  1  0.01974500  0.58477100  0.08856180  1
  C  1542  1  0.99575200  0.58029200  0.07978180  1
  C  1543  1  0.97565500  0.59217000  0.09104580  1
  C  1544  1  0.97967100  0.60964000  0.10964800  1
  C  1557  1  0.99354900  0.84761300  0.17644900  1
  C  1558  1  0.97290200  0.85229600  0.16146300  1
  C  1559  1  0.97334500  0.87066100  0.14304500  1
  C  1560  1  0.99500300  0.88512200  0.14042500  1
  C  1561  1  0.01504400  0.88151900  0.15652600  1
  C  1562  1  0.01427100  0.86302300  0.17444100  1
  C  1565  1  0.99886900  0.90033000  0.11974900  1
  C  1566  1  0.98932700  0.92440300  0.11871400  1
  C  1567  1  0.99297100  0.93886100  0.09759680  1
  C  1568  1  0.00569300  0.92938600  0.07700880  1
  C  1569  1  0.01570000  0.90547100  0.07845480  1
  C  1570  1  0.01225400  0.89104100  0.09955780  1
  C  1583  1  0.00557800  0.84609700  0.81371800  1
  C  1584  1  0.02439500  0.84771700  0.83144200  1
  C  1585  1  0.02483800  0.86677900  0.84913600  1
  C  1586  1  0.00647600  0.88548000  0.84789800  1
  C  1587  1  0.98818800  0.88422900  0.82943900  1
  C  1588  1  0.98759300  0.86464900  0.81267600  1
  C  1591  1  0.00463000  0.90447900  0.86571000  1
  C  1592  1  0.02397300  0.92142900  0.86938800  1
  C  1593  1  0.02319700  0.93811800  0.88910700  1
  C  1594  1  0.00280700  0.93857200  0.90515100  1
  C  1595  1  0.98279200  0.92273900  0.90054000  1
  C  1596  1  0.98378100  0.90571500  0.88116400  1
  C  1609  1  0.82572200  0.74165200  0.41402700  1
  C  1610  1  0.84970300  0.73175000  0.41394200  1
  C  1611  1  0.86477800  0.73248500  0.39278500  1
  C  1612  1  0.85501500  0.74306900  0.37090900  1
  C  1613  1  0.83080800  0.75240800  0.37072000  1
  C  1614  1  0.81622500  0.75138600  0.39197300  1
  C  1617  1  0.86939900  0.74561300  0.34943500  1
  C  1618  1  0.87526300  0.72485600  0.33502200  1
  C  1619  1  0.89347400  0.72644900  0.31677900  1
  C  1620  1  0.90626800  0.74870700  0.31283600  1
  C  1621  1  0.89909000  0.76984800  0.32609000  1
  C  1622  1  0.88098200  0.76827900  0.34443100  1
  C  1635  1  0.17741000  0.76091200  0.40461800  1
  C  1636  1  0.16365300  0.78208600  0.39872300  1
  C  1637  1  0.14554500  0.78178300  0.38004200  1
  C  1638  1  0.14206200  0.75969400  0.36642400  1
  C  1639  1  0.15697700  0.73899900  0.37129800  1
  C  1640  1  0.17453800  0.73963900  0.39013400  1
  C  1643  1  0.12160200  0.75626400  0.35078800  1
  C  1644  1  0.12098400  0.76626900  0.32687600  1
  C  1645  1  0.09995400  0.76331500  0.31212700  1
  C  1646  1  0.07903000  0.75083300  0.32115700  1
  C  1647  1  0.08009800  0.74023000  0.34483900  1
  C  1648  1  0.10109800  0.74299500  0.35954900  1
  C  1661  1  0.17252700  0.74368300  0.57737700  1
  C  1662  1  0.14873400  0.73333300  0.57724300  1
  C  1663  1  0.13349500  0.73368100  0.59828800  1
  C  1664  1  0.14292600  0.74428000  0.62030500  1
  C  1665  1  0.16699400  0.75398800  0.62072400  1
  C  1666  1  0.18174000  0.75337800  0.59956000  1
  C  1669  1  0.12822500  0.74667500  0.64159100  1
  C  1670  1  0.12205800  0.72580600  0.65572200  1
  C  1671  1  0.10336200  0.72722600  0.67349200  1
  C  1672  1  0.09049700  0.74945700  0.67737200  1
  C  1673  1  0.09798700  0.77069900  0.66446500  1
  C  1674  1  0.11652000  0.76929400  0.64654000  1
  C  1687  1  0.81791400  0.75940700  0.58609000  1
  C  1688  1  0.83215800  0.78052300  0.59100400  1
  C  1689  1  0.85059500  0.78053900  0.60935600  1
  C  1690  1  0.85393800  0.75887500  0.62365700  1
  C  1691  1  0.83859900  0.73828800  0.61978700  1
  C  1692  1  0.82067900  0.73860400  0.60127500  1
  C  1695  1  0.87460700  0.75567000  0.63905400  1
  C  1696  1  0.87527800  0.76554600  0.66301200  1
  C  1697  1  0.89643700  0.76271400  0.67760100  1
  C  1698  1  0.91742900  0.75049100  0.66837200  1
  C  1699  1  0.91634700  0.74011300  0.64458900  1
  C  1700  1  0.89521300  0.74274700  0.63003200  1
  C  1713  1  0.91004700  0.07602100  0.98901500  1
  C  1714  1  0.90929400  0.09410600  0.97048700  1
  C  1715  1  0.89077100  0.11236700  0.96999600  1
  C  1716  1  0.87175200  0.11142200  0.98804300  1
  C  1717  1  0.87206100  0.09256900  0.00596380  1
  C  1718  1  0.89108700  0.07518700  0.00658680  1
  C  1721  1  0.85338700  0.12987000  0.99000700  1
  C  1722  1  0.83682400  0.13450500  0.97054000  1
  C  1723  1  0.82065300  0.15463000  0.97161500  1
  C  1724  1  0.82035600  0.17015500  0.99240500  1
  C  1725  1  0.83578100  0.16463900  0.01250080  1
  C  1726  1  0.85234000  0.14488000  0.01119580  1
  C  1739  1  0.91824500  0.42708400  0.00922480  1
  C  1740  1  0.91864500  0.40284000  0.01843880  1
  C  1741  1  0.89852000  0.38667800  0.01543980  1
  C  1742  1  0.87696400  0.39568900  0.00356780  1
  C  1743  1  0.87614700  0.42028700  0.99526700  1
  C  1744  1  0.89647200  0.43587800  0.99831000  1
  C  1747  1  0.85664100  0.38025400  0.99847500  1
  C  1748  1  0.84264100  0.37013700  0.01785080  1
  C  1749  1  0.82574400  0.35120300  0.01313280  1
  C  1750  1  0.82224400  0.34248200  0.98895800  1
  C  1751  1  0.83488800  0.35379200  0.96936600  1
  C  1752  1  0.85214700  0.37242100  0.97411900  1
  C  1765  1  0.08819600  0.43572700  0.98758800  1
  C  1766  1  0.08922900  0.41794700  0.96878600  1
  C  1767  1  0.10779600  0.39973500  0.96826700  1
  C  1768  1  0.12654300  0.40042500  0.98660700  1
  C  1769  1  0.12593000  0.41895800  0.00484880  1
  C  1770  1  0.10684500  0.43627300  0.00549180  1
  C  1773  1  0.14491100  0.38198800  0.98851900  1
  C  1774  1  0.16184700  0.37781000  0.96927200  1
  C  1775  1  0.17801800  0.35767600  0.97021100  1
  C  1776  1  0.17794700  0.34167300  0.99064700  1
  C  1777  1  0.16211600  0.34675100  0.01055080  1
  C  1778  1  0.14557800  0.36652900  0.00938980  1
  C  1791  1  0.07977500  0.08440400  0.01201180  1
  C  1792  1  0.08072800  0.10802700  0.02268980  1
  C  1793  1  0.10089000  0.12396500  0.01881080  1
  C  1794  1  0.12075800  0.11550800  0.00401780  1
  C  1795  1  0.12036500  0.09149000  0.99421800  1
  C  1796  1  0.10019200  0.07598600  0.99846600  1
  C  1799  1  0.13980100  0.13147900  0.99657200  1
  C  1800  1  0.16101500  0.13459000  0.01116080  1
  C  1801  1  0.17792300  0.15334200  0.00561280  1
  C  1802  1  0.17356800  0.16952100  0.98579300  1
  C  1803  1  0.15286800  0.16567000  0.97062800  1
  C  1804  1  0.13607600  0.14682400  0.97598600  1
  C  1817  1  0.48486300  0.17531700  0.32083500  1
  C  1818  1  0.47471800  0.17531000  0.34471700  1
  C  1819  1  0.47539800  0.15423900  0.35991500  1
  C  1820  1  0.48617500  0.13235700  0.35038000  1
  C  1821  1  0.49575000  0.13208400  0.32626200  1
  C  1822  1  0.49478200  0.15325400  0.31155400  1
  C  1825  1  0.48866200  0.11097000  0.36491000  1
  C  1826  1  0.46789600  0.09653700  0.37069200  1
  C  1827  1  0.46938100  0.07841100  0.38903300  1
  C  1828  1  0.49153900  0.07460200  0.40203700  1
  C  1829  1  0.51270400  0.08786900  0.39495500  1
  C  1830  1  0.51124000  0.10609600  0.37672200  1
  C  1843  1  0.50339900  0.16577700  0.67376000  1
  C  1844  1  0.52449900  0.16014200  0.65978300  1
  C  1845  1  0.52417600  0.14155300  0.64158600  1
  C  1846  1  0.50216000  0.12779200  0.63823400  1
  C  1847  1  0.48157100  0.13238700  0.65337400  1
  C  1848  1  0.48222500  0.15111900  0.67104200  1
  C  1851  1  0.49861600  0.11238900  0.61763400  1
  C  1852  1  0.50827800  0.08834500  0.61687800  1
  C  1853  1  0.50512200  0.07378300  0.59575000  1
  C  1854  1  0.49278900  0.08313300  0.57487700  1
  C  1855  1  0.48257000  0.10697400  0.57606800  1
  C  1856  1  0.48553000  0.12150100  0.59716800  1
  C  1869  1  0.48579600  0.33853300  0.66787100  1
  C  1870  1  0.47582600  0.33844100  0.64391900  1
  C  1871  1  0.47628300  0.35956000  0.62879000  1
  C  1872  1  0.48660300  0.38158900  0.63849700  1
  C  1873  1  0.49594700  0.38195900  0.66270500  1
  C  1874  1  0.49523400  0.36072200  0.67733600  1
  C  1877  1  0.48904400  0.40296500  0.62395500  1
  C  1878  1  0.46816100  0.41704200  0.61771700  1
  C  1879  1  0.46962500  0.43484800  0.59906400  1
  C  1880  1  0.49190900  0.43880000  0.58631500  1
  C  1881  1  0.51315800  0.42596000  0.59389700  1
  C  1882  1  0.51171000  0.40800100  0.61238800  1
  C  1895  1  0.50235000  0.34731200  0.31375300  1
  C  1896  1  0.52351500  0.35224800  0.32791600  1
  C  1897  1  0.52358300  0.37057900  0.34637800  1
  C  1898  1  0.50191200  0.38484700  0.34983200  1
  C  1899  1  0.48126800  0.38095200  0.33457800  1
  C  1900  1  0.48153600  0.36245700  0.31663900  1
  C  1903  1  0.49879100  0.40028400  0.37049200  1
  C  1904  1  0.50885500  0.42416500  0.37117400  1
  C  1905  1  0.50607700  0.43880100  0.39230900  1
  C  1906  1  0.49371500  0.42969500  0.41327400  1
  C  1907  1  0.48315100  0.40599400  0.41218000  1
  C  1908  1  0.48573200  0.39139400  0.39107100  1
  N  356  1  0.39368900  0.97106000  0.40316700  1
  N  359  1  0.43377000  0.00315300  0.30748600  1
  N  361  1  0.31407600  0.98359000  0.43925400  1
  N  382  1  0.60662900  0.02878300  0.39913400  1
  N  385  1  0.56587700  0.99985200  0.30448800  1
  N  387  1  0.68475200  0.01325900  0.43732800  1
  N  408  1  0.62710100  0.95510900  0.60670800  1
  N  411  1  0.56798300  0.99671100  0.69309100  1
  N  413  1  0.69515400  0.99315800  0.56710100  1
  N  434  1  0.36309300  0.04356200  0.61440400  1
  N  437  1  0.43626600  0.99213600  0.68622900  1
  N  439  1  0.30116600  0.00034200  0.56958900  1
  N  460  1  0.40329700  0.39303100  0.96975200  1
  N  463  1  0.30785300  0.43419800  0.00238300  1
  N  465  1  0.43931800  0.31383500  0.98471800  1
  N  486  1  0.40034900  0.60770000  0.03027900  1
  N  489  1  0.30542300  0.56635900  0.99968200  1
  N  491  1  0.43851500  0.68543100  0.01267000  1
  N  512  1  0.60781000  0.62682400  0.95502100  1
  N  515  1  0.69392700  0.56799900  0.99650400  1
  N  517  1  0.56819200  0.69538000  0.99214900  1
  N  538  1  0.61600100  0.36472100  0.04364800  1
  N  541  1  0.68725900  0.43648900  0.99063900  1
  N  543  1  0.56992500  0.30250500  0.00228400  1
  N  564  1  0.96685400  0.40005800  0.39052100  1
  N  567  1  0.99580500  0.30455200  0.43150300  1
  N  569  1  0.98491100  0.43851200  0.31299000  1
  N  590  1  0.02750500  0.40334100  0.60511000  1
  N  593  1  0.99224900  0.30883800  0.56350200  1
  N  595  1  0.01253700  0.43934400  0.68425400  1
  N  616  1  0.95354000  0.61576000  0.63188900  1
  N  619  1  0.00888200  0.68660500  0.56065400  1
  N  621  1  0.99413000  0.56971900  0.69459400  1
  N  642  1  0.04211900  0.60832300  0.37115300  1
  N  645  1  0.00267300  0.69570500  0.42963800  1
  N  647  1  0.00400800  0.56861500  0.30306400  1
  N  668  1  0.88807900  0.46628900  0.89843000  1
  N  671  1  0.92661000  0.49248000  0.80210100  1
  N  673  1  0.81137300  0.48415200  0.93859400  1
  N  694  1  0.13150800  0.54500300  0.88063100  1
  N  697  1  0.05871300  0.49121200  0.81053600  1
  N  699  1  0.19154400  0.50339900  0.92928900  1
  N  720  1  0.11033300  0.46718300  0.10025000  1
  N  723  1  0.06982200  0.49312900  0.19554500  1
  N  725  1  0.18683900  0.48672800  0.06068300  1
  N  746  1  0.86498900  0.54363200  0.11579600  1
  N  749  1  0.93778200  0.49084100  0.18684800  1
  N  751  1  0.80337000  0.50145700  0.06958100  1
  N  772  1  0.89287100  0.87346300  0.45700300  1
  N  775  1  0.80609900  0.93351000  0.49694100  1
  N  777  1  0.93004200  0.80387200  0.49482800  1
  N  798  1  0.90116400  0.10582700  0.52720200  1
  N  801  1  0.80848300  0.06482000  0.48890900  1
  N  803  1  0.93847700  0.18470900  0.51436500  1
  N  824  1  0.10599300  0.12448300  0.45495300  1
  N  827  1  0.19217600  0.06384700  0.49510200  1
  N  829  1  0.06810600  0.19329300  0.49344600  1
  N  850  1  0.10022700  0.88960100  0.53293600  1
  N  853  1  0.18839500  0.93223400  0.48647100  1
  N  855  1  0.05942500  0.81263400  0.51803000  1
  N  876  1  0.46618200  0.89881800  0.88706700  1
  N  879  1  0.49239200  0.80280500  0.92640800  1
  N  881  1  0.48463700  0.93866900  0.81034500  1
  N  902  1  0.54450500  0.88118300  0.13130300  1
  N  905  1  0.49013600  0.81148400  0.05845100  1
  N  907  1  0.50298400  0.92924600  0.19188000  1
  N  928  1  0.46734500  0.10043500  0.10943500  1
  N  931  1  0.49284200  0.19579000  0.06958500  1
  N  933  1  0.48589200  0.06064800  0.18607300  1
  N  954  1  0.54394500  0.11586100  0.86464200  1
  N  957  1  0.49130400  0.18705900  0.93754500  1
  N  959  1  0.50160400  0.06966200  0.80312400  1
  N  1316  1  0.39368900  0.22827200  0.89921900  1
  N  1319  1  0.43377000  0.26036500  0.80353800  1
  N  1321  1  0.31407600  0.24080200  0.93530600  1
  N  1342  1  0.60662900  0.28599500  0.89518600  1
  N  1345  1  0.56587700  0.25706400  0.80054000  1
  N  1347  1  0.68475200  0.27047100  0.93338000  1
  N  1368  1  0.62710100  0.21232100  0.10276000  1
  N  1371  1  0.56798300  0.25392300  0.18914300  1
  N  1373  1  0.69515400  0.25037000  0.06315280  1
  N  1394  1  0.36309300  0.30077400  0.11045600  1
  N  1397  1  0.43626600  0.24934800  0.18228100  1
  N  1399  1  0.30116600  0.25755400  0.06564080  1
  N  1420  1  0.40329700  0.65024300  0.46580400  1
  N  1423  1  0.30785300  0.69141000  0.49843500  1
  N  1425  1  0.43931800  0.57104700  0.48077000  1
  N  1446  1  0.40034900  0.86491200  0.52633100  1
  N  1449  1  0.30542300  0.82357100  0.49573400  1
  N  1451  1  0.43851500  0.94264300  0.50872200  1
  N  1472  1  0.60781000  0.88403600  0.45107300  1
  N  1475  1  0.69392700  0.82521100  0.49255600  1
  N  1477  1  0.56819200  0.95259200  0.48820100  1
  N  1498  1  0.61600100  0.62193300  0.53970000  1
  N  1501  1  0.68725900  0.69370100  0.48669100  1
  N  1503  1  0.56992500  0.55971700  0.49833600  1
  N  1524  1  0.96685400  0.65727000  0.88657300  1
  N  1527  1  0.99580500  0.56176400  0.92755500  1
  N  1529  1  0.98491100  0.69572400  0.80904200  1
  N  1550  1  0.02750500  0.66055300  0.10116200  1
  N  1553  1  0.99224900  0.56605000  0.05955380  1
  N  1555  1  0.01253700  0.69655600  0.18030600  1
  N  1576  1  0.95354000  0.87297200  0.12794100  1
  N  1579  1  0.00888200  0.94381700  0.05670580  1
  N  1581  1  0.99413000  0.82693100  0.19064600  1
  N  1602  1  0.04211900  0.86553500  0.86720500  1
  N  1605  1  0.00267300  0.95291700  0.92569000  1
  N  1607  1  0.00400800  0.82582700  0.79911600  1
  N  1628  1  0.88807900  0.72350100  0.39448200  1
  N  1631  1  0.92661000  0.74969200  0.29815300  1
  N  1633  1  0.81137300  0.74136400  0.43464600  1
  N  1654  1  0.13150800  0.80221500  0.37668300  1
  N  1657  1  0.05871300  0.74842400  0.30658800  1
  N  1659  1  0.19154400  0.76061100  0.42534100  1
  N  1680  1  0.11033300  0.72439500  0.59630200  1
  N  1683  1  0.06982200  0.75034100  0.69159700  1
  N  1685  1  0.18683900  0.74394000  0.55673500  1
  N  1706  1  0.86498900  0.80084400  0.61184800  1
  N  1709  1  0.93778200  0.74805300  0.68290000  1
  N  1711  1  0.80337000  0.75866900  0.56563300  1
  N  1732  1  0.89287100  0.13067500  0.95305500  1
  N  1735  1  0.80609900  0.19072200  0.99299300  1
  N  1737  1  0.93004200  0.06108400  0.99088000  1
  N  1758  1  0.90116400  0.36303900  0.02325380  1
  N  1761  1  0.80848300  0.32203200  0.98496100  1
  N  1763  1  0.93847700  0.44192100  0.01041680  1
  N  1784  1  0.10599300  0.38169500  0.95100500  1
  N  1787  1  0.19217600  0.32105900  0.99115400  1
  N  1789  1  0.06810600  0.45050500  0.98949800  1
  N  1810  1  0.10022700  0.14681300  0.02898780  1
  N  1813  1  0.18839500  0.18944600  0.98252300  1
  N  1815  1  0.05942500  0.06984600  0.01408180  1
  N  1836  1  0.46618200  0.15603000  0.38311900  1
  N  1839  1  0.49239200  0.06001700  0.42246000  1
  N  1841  1  0.48463700  0.19588100  0.30639700  1
  N  1862  1  0.54450500  0.13839500  0.62735500  1
  N  1865  1  0.49013600  0.06869600  0.55450300  1
  N  1867  1  0.50298400  0.18645800  0.68793200  1
  N  1888  1  0.46734500  0.35764700  0.60548700  1
  N  1891  1  0.49284200  0.45300200  0.56563700  1
  N  1893  1  0.48589200  0.31786000  0.68212500  1
  N  1914  1  0.54394500  0.37307300  0.36069400  1
  N  1917  1  0.49130400  0.44427100  0.43359700  1
  N  1919  1  0.50160400  0.32687400  0.29917600  1
  O  17  1  0.24084000  0.04022700  0.48859300  1
  O  18  1  0.25460900  0.98992800  0.54260000  1
  O  25  1  0.34229200  0.00172600  0.46648000  1
  O  26  1  0.32419700  0.96720300  0.55362900  1
  O  27  1  0.17299100  0.04674000  0.46021500  1
  O  28  1  0.15613200  0.95981600  0.49301700  1
  O  45  1  0.75816200  0.95693500  0.48745500  1
  O  46  1  0.74203100  0.00559500  0.54185900  1
  O  53  1  0.65567000  0.99561200  0.46388900  1
  O  54  1  0.67275800  0.02747400  0.55293600  1
  O  55  1  0.82800200  0.95210300  0.46445900  1
  O  56  1  0.83837500  0.03918200  0.50678300  1
  O  73  1  0.48645000  0.24261300  0.04309400  1
  O  74  1  0.54346100  0.25591500  0.99343200  1
  O  81  1  0.46611600  0.34278100  0.00230300  1
  O  82  1  0.55365600  0.32513600  0.96901900  1
  O  83  1  0.46240100  0.17241900  0.04944600  1
  O  84  1  0.50372000  0.15670300  0.96558300  1
  O  101  1  0.48609400  0.75591500  0.95297200  1
  O  102  1  0.54288600  0.74273100  0.00206500  1
  O  109  1  0.46533300  0.65567700  0.99660800  1
  O  110  1  0.55421300  0.67453300  0.02750200  1
  O  111  1  0.46170100  0.82593900  0.94649200  1
  O  112  1  0.50299800  0.84181300  0.03054000  1
  O  129  1  0.04331700  0.48660100  0.24244400  1
  O  130  1  0.99391500  0.54325600  0.25596600  1
  O  137  1  0.00066600  0.46545800  0.34276400  1
  O  138  1  0.96915600  0.55418300  0.32449500  1
  O  139  1  0.04982400  0.46249500  0.17231800  1
  O  140  1  0.96573700  0.50359400  0.15654700  1
  O  157  1  0.95309700  0.48649800  0.75518200  1
  O  158  1  0.00260300  0.54358600  0.74173300  1
  O  165  1  0.99491100  0.46591000  0.65510400  1
  O  166  1  0.02795300  0.55350900  0.67283000  1
  O  167  1  0.94704400  0.46201000  0.82522600  1
  O  168  1  0.03074900  0.50372800  0.84094000  1
  O  185  1  0.04361800  0.24092900  0.50480600  1
  O  186  1  0.98787400  0.25718400  0.45653800  1
  O  193  1  0.01070800  0.33811300  0.53751600  1
  O  194  1  0.96612900  0.32810500  0.45259000  1
  O  195  1  0.05388800  0.17206000  0.52847000  1
  O  196  1  0.96483700  0.15553500  0.49654200  1
  O  213  1  0.95493800  0.75596800  0.50414100  1
  O  214  1  0.01060600  0.74337800  0.45562900  1
  O  221  1  0.99648100  0.65642000  0.53239900  1
  O  222  1  0.03633900  0.67469600  0.44706200  1
  O  223  1  0.94321800  0.82355600  0.53114300  1
  O  224  1  0.03264100  0.84292600  0.50297400  1
  O  241  1  0.23879600  0.49281600  0.95339800  1
  O  242  1  0.25813400  0.54204100  0.00852900  1
  O  249  1  0.33703000  0.45974400  0.98316300  1
  O  250  1  0.32956000  0.54449600  0.02831300  1
  O  251  1  0.16814500  0.47164000  0.94725300  1
  O  252  1  0.15650900  0.50451600  0.03569200  1
  O  269  1  0.75630800  0.49251700  0.04403800  1
  O  270  1  0.74158800  0.54287900  0.98882200  1
  O  277  1  0.65637000  0.46404500  0.00276300  1
  O  278  1  0.67267200  0.54978100  0.96340800  1
  O  279  1  0.82601400  0.46857600  0.05262300  1
  O  280  1  0.84153100  0.50116700  0.96441500  1
  O  297  1  0.49244000  0.04451400  0.75572400  1
  O  298  1  0.54269000  0.98907200  0.74056800  1
  O  305  1  0.46394600  0.00404500  0.65539300  1
  O  306  1  0.54937500  0.96404500  0.67149200  1
  O  307  1  0.46853900  0.05265600  0.82544100  1
  O  308  1  0.50142400  0.96455800  0.84053400  1
  O  325  1  0.49229800  0.95377700  0.23863400  1
  O  326  1  0.54145700  0.00886600  0.25740500  1
  O  333  1  0.45940300  0.98413900  0.33672400  1
  O  334  1  0.54442400  0.02857100  0.32886900  1
  O  335  1  0.47146600  0.94702500  0.16795000  1
  O  336  1  0.50407500  0.03567300  0.15593200  1
  O  977  1  0.24084000  0.29743900  0.98464500  1
  O  978  1  0.25460900  0.24714000  0.03865180  1
  O  985  1  0.34229200  0.25893800  0.96253200  1
  O  986  1  0.32419700  0.22441500  0.04968080  1
  O  987  1  0.17299100  0.30395200  0.95626700  1
  O  988  1  0.15613200  0.21702800  0.98906900  1
  O  1005  1  0.75816200  0.21414700  0.98350700  1
  O  1006  1  0.74203100  0.26280700  0.03791080  1
  O  1013  1  0.65567000  0.25282400  0.95994100  1
  O  1014  1  0.67275800  0.28468600  0.04898780  1
  O  1015  1  0.82800200  0.20931500  0.96051100  1
  O  1016  1  0.83837500  0.29639400  0.00283480  1
  O  1033  1  0.48645000  0.49982500  0.53914600  1
  O  1034  1  0.54346100  0.51312700  0.48948400  1
  O  1041  1  0.46611600  0.59999300  0.49835500  1
  O  1042  1  0.55365600  0.58234800  0.46507100  1
  O  1043  1  0.46240100  0.42963100  0.54549800  1
  O  1044  1  0.50372000  0.41391500  0.46163500  1
  O  1061  1  0.48609400  0.01312700  0.44902400  1
  O  1062  1  0.54288600  0.99994300  0.49811700  1
  O  1069  1  0.46533300  0.91288900  0.49266000  1
  O  1070  1  0.55421300  0.93174500  0.52355400  1
  O  1071  1  0.46170100  0.08315100  0.44254400  1
  O  1072  1  0.50299800  0.09902500  0.52659200  1
  O  1089  1  0.04331700  0.74381300  0.73849600  1
  O  1090  1  0.99391500  0.80046800  0.75201800  1
  O  1097  1  0.00066600  0.72267000  0.83881600  1
  O  1098  1  0.96915600  0.81139500  0.82054700  1
  O  1099  1  0.04982400  0.71970700  0.66837000  1
  O  1100  1  0.96573700  0.76080600  0.65259900  1
  O  1117  1  0.95309700  0.74371000  0.25123400  1
  O  1118  1  0.00260300  0.80079800  0.23778500  1
  O  1125  1  0.99491100  0.72312200  0.15115600  1
  O  1126  1  0.02795300  0.81072100  0.16888200  1
  O  1127  1  0.94704400  0.71922200  0.32127800  1
  O  1128  1  0.03074900  0.76094000  0.33699200  1
  O  1145  1  0.04361800  0.49814100  0.00085779  1
  O  1146  1  0.98787400  0.51439600  0.95259000  1
  O  1153  1  0.01070800  0.59532500  0.03356780  1
  O  1154  1  0.96612900  0.58531700  0.94864200  1
  O  1155  1  0.05388800  0.42927200  0.02452180  1
  O  1156  1  0.96483700  0.41274700  0.99259400  1
  O  1173  1  0.95493800  0.01318000  0.00019279  1
  O  1174  1  0.01060600  0.00059004  0.95168100  1
  O  1181  1  0.99648100  0.91363200  0.02845080  1
  O  1182  1  0.03633900  0.93190800  0.94311400  1
  O  1183  1  0.94321800  0.08076800  0.02719480  1
  O  1184  1  0.03264100  0.10013800  0.99902600  1
  O  1201  1  0.23879600  0.75002800  0.44945000  1
  O  1202  1  0.25813400  0.79925300  0.50458100  1
  O  1209  1  0.33703000  0.71695600  0.47921500  1
  O  1210  1  0.32956000  0.80170800  0.52436500  1
  O  1211  1  0.16814500  0.72885200  0.44330500  1
  O  1212  1  0.15650900  0.76172800  0.53174400  1
  O  1229  1  0.75630800  0.74972900  0.54009000  1
  O  1230  1  0.74158800  0.80009100  0.48487400  1
  O  1237  1  0.65637000  0.72125700  0.49881500  1
  O  1238  1  0.67267200  0.80699300  0.45946000  1
  O  1239  1  0.82601400  0.72578800  0.54867500  1
  O  1240  1  0.84153100  0.75837900  0.46046700  1
  O  1257  1  0.49244000  0.30172600  0.25177600  1
  O  1258  1  0.54269000  0.24628400  0.23662000  1
  O  1265  1  0.46394600  0.26125700  0.15144500  1
  O  1266  1  0.54937500  0.22125700  0.16754400  1
  O  1267  1  0.46853900  0.30986800  0.32149300  1
  O  1268  1  0.50142400  0.22177000  0.33658600  1
  O  1285  1  0.49229800  0.21098900  0.73468600  1
  O  1286  1  0.54145700  0.26607800  0.75345700  1
  O  1293  1  0.45940300  0.24135100  0.83277600  1
  O  1294  1  0.54442400  0.28578300  0.82492100  1
  O  1295  1  0.47146600  0.20423700  0.66400200  1
  O  1296  1  0.50407500  0.29288500  0.65198400  1
