# generated using pymatgen
data_H27C41N6O
_symmetry_space_group_name_H-M   'P 1'
_cell_length_a   68.40120000
_cell_length_b   68.40120000
_cell_length_c   68.40120000
_cell_angle_alpha   90.00000000
_cell_angle_beta   90.00000000
_cell_angle_gamma   90.00000000
_symmetry_Int_Tables_number   1
_chemical_formula_structural   H27C41N6O
_chemical_formula_sum   'H648 C984 N144 O24'
_cell_volume   320030.34711149
_cell_formula_units_Z   24
loop_
 _symmetry_equiv_pos_site_id
 _symmetry_equiv_pos_as_xyz
  1  'x, y, z'
loop_
 _atom_site_type_symbol
 _atom_site_label
 _atom_site_symmetry_multiplicity
 _atom_site_fract_x
 _atom_site_fract_y
 _atom_site_fract_z
 _atom_site_occupancy
  H  73  1  0.99533600  0.33784800  0.49381000  1
  H  74  1  0.99513700  0.37266000  0.49299300  1
  H  75  1  0.04024400  0.33891500  0.53598800  1
  H  76  1  0.03984700  0.37381200  0.53555900  1
  H  77  1  0.04805600  0.40200300  0.51457100  1
  H  78  1  0.04770300  0.43693100  0.51426900  1
  H  79  1  0.98630800  0.40147100  0.51301000  1
  H  80  1  0.98608300  0.43639400  0.51222000  1
  H  81  1  0.01646900  0.44653300  0.47387500  1
  H  82  1  0.01615900  0.47246100  0.44741500  1
  H  83  1  0.01633100  0.50002900  0.50036000  1
  H  84  1  0.01672500  0.52450100  0.52432800  1
  H  85  1  0.01759800  0.44674600  0.55261900  1
  H  86  1  0.01789200  0.47324900  0.57863900  1
  H  87  1  0.04710300  0.51990300  0.58790000  1
  H  88  1  0.04720500  0.52057400  0.62286900  1
  H  89  1  0.98700100  0.50612000  0.58826900  1
  H  90  1  0.98699100  0.50689700  0.62319900  1
  H  91  1  0.01663700  0.55209700  0.57724800  1
  H  92  1  0.01667600  0.57797200  0.55084000  1
  H  93  1  0.01533800  0.55119600  0.44602000  1
  H  94  1  0.01536000  0.57775700  0.47198300  1
  H  95  1  0.98626000  0.58791400  0.51838300  1
  H  96  1  0.98605100  0.62285400  0.51814900  1
  H  97  1  0.04635300  0.58810900  0.50456400  1
  H  98  1  0.04626000  0.62307700  0.50444600  1
  H  99  1  0.03229500  0.65139800  0.48503200  1
  H  100  1  0.03168300  0.68634000  0.48484100  1
  H  101  1  0.99850900  0.68601600  0.53678100  1
  H  102  1  0.99945600  0.65122500  0.53729500  1
  H  103  1  0.04689800  0.51037500  0.43680700  1
  H  104  1  0.04702600  0.51028900  0.40187900  1
  H  105  1  0.99410200  0.53268800  0.37327000  1
  H  106  1  0.99418300  0.53262500  0.33845300  1
  H  107  1  0.03883400  0.49016400  0.33845200  1
  H  108  1  0.03855400  0.48983600  0.37335600  1
  H  109  1  0.98528700  0.51223100  0.40175200  1
  H  110  1  0.98528900  0.51280200  0.43668400  1
  H  111  1  0.00057400  0.48826000  0.65187700  1
  H  112  1  0.99966900  0.48955400  0.68666200  1
  H  113  1  0.03326700  0.54060700  0.65083900  1
  H  114  1  0.03268400  0.54158800  0.68577100  1
  H  191  1  0.48954000  0.99958700  0.33776600  1
  H  192  1  0.48823300  0.00050300  0.37255000  1
  H  193  1  0.54138100  0.03290500  0.33865000  1
  H  194  1  0.54039200  0.03349400  0.37357800  1
  H  195  1  0.52035900  0.04731000  0.40155000  1
  H  196  1  0.51989400  0.04716800  0.43652000  1
  H  197  1  0.50692200  0.98704200  0.40123400  1
  H  198  1  0.50634000  0.98701500  0.43616800  1
  H  199  1  0.47372500  0.01805000  0.44641600  1
  H  200  1  0.44731400  0.01754200  0.47234700  1
  H  201  1  0.50026900  0.01561700  0.49982600  1
  H  202  1  0.52424200  0.01753900  0.52431700  1
  H  203  1  0.55258700  0.01700000  0.44658600  1
  H  204  1  0.57855300  0.01729200  0.47309200  1
  H  205  1  0.58780100  0.04679600  0.52013500  1
  H  206  1  0.62276200  0.04687300  0.52089600  1
  H  207  1  0.58816800  0.98684900  0.50569300  1
  H  208  1  0.62310000  0.98681100  0.50656400  1
  H  209  1  0.57712400  0.01513100  0.55190700  1
  H  210  1  0.55066700  0.01499100  0.57778200  1
  H  211  1  0.44592000  0.01599300  0.55106500  1
  H  212  1  0.47193800  0.01603100  0.57761300  1
  H  213  1  0.51255500  0.98537400  0.58770700  1
  H  214  1  0.51216900  0.98534200  0.62264700  1
  H  215  1  0.51026700  0.04698900  0.58765500  1
  H  216  1  0.51035500  0.04708400  0.62258200  1
  H  217  1  0.48988700  0.03858800  0.65110000  1
  H  218  1  0.49022100  0.03883000  0.68600200  1
  H  219  1  0.53266000  0.99415800  0.68594500  1
  H  220  1  0.53271300  0.99411100  0.65112600  1
  H  221  1  0.43672500  0.04710600  0.51044400  1
  H  222  1  0.40179100  0.04725100  0.51041600  1
  H  223  1  0.37319800  0.99422200  0.53256100  1
  H  224  1  0.33837800  0.99428500  0.53251100  1
  H  225  1  0.33833900  0.03912400  0.49024700  1
  H  226  1  0.37324300  0.03886500  0.48990600  1
  H  227  1  0.40163800  0.98550100  0.51198200  1
  H  228  1  0.43656700  0.98548200  0.51248800  1
  H  229  1  0.65181400  0.00058200  0.48812400  1
  H  230  1  0.68659900  0.99970300  0.48943600  1
  H  231  1  0.65070200  0.03277000  0.54078000  1
  H  232  1  0.68563400  0.03221800  0.54178100  1
  H  309  1  0.33777000  0.48954700  0.99959300  1
  H  310  1  0.37255500  0.48824600  0.00050600  1
  H  311  1  0.33865000  0.54139200  0.03290400  1
  H  312  1  0.37357800  0.54040900  0.03349000  1
  H  313  1  0.40155300  0.52037800  0.04731100  1
  H  314  1  0.43652300  0.51991500  0.04716800  1
  H  315  1  0.40123700  0.50693400  0.98704400  1
  H  316  1  0.43617100  0.50635400  0.98701600  1
  H  317  1  0.44641600  0.47374300  0.01806200  1
  H  318  1  0.47234700  0.44733000  0.01755200  1
  H  319  1  0.49982700  0.50028300  0.01561200  1
  H  320  1  0.52431700  0.52425800  0.01751500  1
  H  321  1  0.44658900  0.55260400  0.01699200  1
  H  322  1  0.47309500  0.57857000  0.01728200  1
  H  323  1  0.52010800  0.58781000  0.04681200  1
  H  324  1  0.52085900  0.62277000  0.04690200  1
  H  325  1  0.50571900  0.58819300  0.98685400  1
  H  326  1  0.50658200  0.62312500  0.98682700  1
  H  327  1  0.55191100  0.57714000  0.01517300  1
  H  328  1  0.57778500  0.55068200  0.01502500  1
  H  329  1  0.55106500  0.44593400  0.01598200  1
  H  330  1  0.57761300  0.47195200  0.01601400  1
  H  331  1  0.58771000  0.51257100  0.98537300  1
  H  332  1  0.62264800  0.51218500  0.98534400  1
  H  333  1  0.58765300  0.51027600  0.04698700  1
  H  334  1  0.62258000  0.51036500  0.04708500  1
  H  335  1  0.65109700  0.48989600  0.03858700  1
  H  336  1  0.68599900  0.49022400  0.03883100  1
  H  337  1  0.68595000  0.53266900  0.99416400  1
  H  338  1  0.65113000  0.53272700  0.99411700  1
  H  339  1  0.51041900  0.43672500  0.04710400  1
  H  340  1  0.51038700  0.40179100  0.04723600  1
  H  341  1  0.53258300  0.37321700  0.99421900  1
  H  342  1  0.53253100  0.33840000  0.99426300  1
  H  343  1  0.49022200  0.33833800  0.03906000  1
  H  344  1  0.48988600  0.37324300  0.03882100  1
  H  345  1  0.51200400  0.40166000  0.98548800  1
  H  346  1  0.51251100  0.43658900  0.98548200  1
  H  347  1  0.48813800  0.65182900  0.00056800  1
  H  348  1  0.48943100  0.68661400  0.99970900  1
  H  349  1  0.54074500  0.65073000  0.03283600  1
  H  350  1  0.54172600  0.68566000  0.03230500  1
  H  427  1  0.50061100  0.83783400  0.98846600  1
  H  428  1  0.50126200  0.87274200  0.98736400  1
  H  429  1  0.52954800  0.83882100  0.04283900  1
  H  430  1  0.53007500  0.87381500  0.04194400  1
  H  431  1  0.54585600  0.90152000  0.02176200  1
  H  432  1  0.54598700  0.93649500  0.02098600  1
  H  433  1  0.48615900  0.90148100  0.00603300  1
  H  434  1  0.48633600  0.93643900  0.00536200  1
  H  435  1  0.51622200  0.94656500  0.97367700  1
  H  436  1  0.51553900  0.97242000  0.94727100  1
  H  437  1  0.51585200  0.00003900  0.00017700  1
  H  438  1  0.51605100  0.02453700  0.02415200  1
  H  439  1  0.51610600  0.94683400  0.05258400  1
  H  440  1  0.51642800  0.97334100  0.07850400  1
  H  441  1  0.54582100  0.02117900  0.08788300  1
  H  442  1  0.54568900  0.02216200  0.12285700  1
  H  443  1  0.48626500  0.00518400  0.08804600  1
  H  444  1  0.48608600  0.00606700  0.12299900  1
  H  445  1  0.51548500  0.05219500  0.07704500  1
  H  446  1  0.51556100  0.07802500  0.05063900  1
  H  447  1  0.51542100  0.05128800  0.94584100  1
  H  448  1  0.51512100  0.07778200  0.97179100  1
  H  449  1  0.48530900  0.08767900  0.01876900  1
  H  450  1  0.48483900  0.12264000  0.01879000  1
  H  451  1  0.54515800  0.08841800  0.00391500  1
  H  452  1  0.54476100  0.12339300  0.00390800  1
  H  453  1  0.52945400  0.15147400  0.98442000  1
  H  454  1  0.52886300  0.18642700  0.98445500  1
  H  455  1  0.49838700  0.18589100  0.03802200  1
  H  456  1  0.49920200  0.15101500  0.03822700  1
  H  457  1  0.54516600  0.00432300  0.93607400  1
  H  458  1  0.54479900  0.00413100  0.90109900  1
  H  459  1  0.49910700  0.03820000  0.87332400  1
  H  460  1  0.49832200  0.03792800  0.83845000  1
  H  461  1  0.52909700  0.98453400  0.83803900  1
  H  462  1  0.52966000  0.98456600  0.87299200  1
  H  463  1  0.48483200  0.01881300  0.90172400  1
  H  464  1  0.48526900  0.01897200  0.93667900  1
  H  465  1  0.50139800  0.98747700  0.15166400  1
  H  466  1  0.50078300  0.98854700  0.18657000  1
  H  467  1  0.52978400  0.04228400  0.15059200  1
  H  468  1  0.52929900  0.04314600  0.18559200  1
  H  545  1  0.98850400  0.50061200  0.83789000  1
  H  546  1  0.98738900  0.50126200  0.87279700  1
  H  547  1  0.04287200  0.52955600  0.83889600  1
  H  548  1  0.04196500  0.53008400  0.87388900  1
  H  549  1  0.02176600  0.54586200  0.90158600  1
  H  550  1  0.02098100  0.54599200  0.93656100  1
  H  551  1  0.00605800  0.48615800  0.90154100  1
  H  552  1  0.00537800  0.48633500  0.93649900  1
  H  553  1  0.97368300  0.51623600  0.94662300  1
  H  554  1  0.94727600  0.51555100  0.97247700  1
  H  555  1  0.00018000  0.51584000  0.00009900  1
  H  556  1  0.02415400  0.51604500  0.02459800  1
  H  557  1  0.05258800  0.51610600  0.94689500  1
  H  558  1  0.07850700  0.51643100  0.97340400  1
  H  559  1  0.08788600  0.54581900  0.02123300  1
  H  560  1  0.12286000  0.54569100  0.02220400  1
  H  561  1  0.08804700  0.48626000  0.00524700  1
  H  562  1  0.12300100  0.48608500  0.00611700  1
  H  563  1  0.07704600  0.51549400  0.05225700  1
  H  564  1  0.05063900  0.51557100  0.07808700  1
  H  565  1  0.94584300  0.51540300  0.05134500  1
  H  566  1  0.97179100  0.51510800  0.07784100  1
  H  567  1  0.01878600  0.48532000  0.08775300  1
  H  568  1  0.01879900  0.48486000  0.12271300  1
  H  569  1  0.00389300  0.54516000  0.08847300  1
  H  570  1  0.00387700  0.54477200  0.12344700  1
  H  571  1  0.98439900  0.52946300  0.15152800  1
  H  572  1  0.98442100  0.52888100  0.18647900  1
  H  573  1  0.03799700  0.49841800  0.18597300  1
  H  574  1  0.03821400  0.49922400  0.15109700  1
  H  575  1  0.93607800  0.54516600  0.00438400  1
  H  576  1  0.90110400  0.54479900  0.00418200  1
  H  577  1  0.87331800  0.49909900  0.03822700  1
  H  578  1  0.83844300  0.49832000  0.03794600  1
  H  579  1  0.83804900  0.52910300  0.98455600  1
  H  580  1  0.87300300  0.52966000  0.98459800  1
  H  581  1  0.90172400  0.48482800  0.01884600  1
  H  582  1  0.93668100  0.48526500  0.01901600  1
  H  583  1  0.15165800  0.50140200  0.98750900  1
  H  584  1  0.18656400  0.50078800  0.98856700  1
  H  585  1  0.15060300  0.52978300  0.04231800  1
  H  586  1  0.18560300  0.52929800  0.04316900  1
  H  663  1  0.83778600  0.98818100  0.50096800  1
  H  664  1  0.87268800  0.98703100  0.50166400  1
  H  665  1  0.83882900  0.04282200  0.52939300  1
  H  666  1  0.87382100  0.04187900  0.52996000  1
  H  667  1  0.90149600  0.02182600  0.54594300  1
  H  668  1  0.93646900  0.02100100  0.54609600  1
  H  669  1  0.90145900  0.00549500  0.48640800  1
  H  670  1  0.93641300  0.00477500  0.48660700  1
  H  671  1  0.94679600  0.97336700  0.51676400  1
  H  672  1  0.97282000  0.94711500  0.51593100  1
  H  673  1  0.00009000  0.00019700  0.51567600  1
  H  674  1  0.02444800  0.02434700  0.51575300  1
  H  675  1  0.94656400  0.05227400  0.51583300  1
  H  676  1  0.97290400  0.07835400  0.51601100  1
  H  677  1  0.01977300  0.08807500  0.54592000  1
  H  678  1  0.01998700  0.12304700  0.54586000  1
  H  679  1  0.00528500  0.08799600  0.48597700  1
  H  680  1  0.00546600  0.12296700  0.48584700  1
  H  681  1  0.05174800  0.07742700  0.51607300  1
  H  682  1  0.07776600  0.05117800  0.51623900  1
  H  683  1  0.05170500  0.94622300  0.51508300  1
  H  684  1  0.07801300  0.97234100  0.51490500  1
  H  685  1  0.08765600  0.01962200  0.48556900  1
  H  686  1  0.12261400  0.01960600  0.48507600  1
  H  687  1  0.08841600  0.00413900  0.54525800  1
  H  688  1  0.12339100  0.00410100  0.54484000  1
  H  689  1  0.15139900  0.98471800  0.52933300  1
  H  690  1  0.18635000  0.98465200  0.52869700  1
  H  691  1  0.18593700  0.03848300  0.49868300  1
  H  692  1  0.15106600  0.03879000  0.49955400  1
  H  693  1  0.00506100  0.93600800  0.54503100  1
  H  694  1  0.00565300  0.90104100  0.54467300  1
  H  695  1  0.04069500  0.87410100  0.49962000  1
  H  696  1  0.04166400  0.83910600  0.49955100  1
  H  697  1  0.98788300  0.83751300  0.52954200  1
  H  698  1  0.98671500  0.87244200  0.52952000  1
  H  699  1  0.02016100  0.90194700  0.48467400  1
  H  700  1  0.01948100  0.93691600  0.48508500  1
  H  701  1  0.98588200  0.15122800  0.50066400  1
  H  702  1  0.98593100  0.18617900  0.50066200  1
  H  703  1  0.03954100  0.15124700  0.53117900  1
  H  704  1  0.03935700  0.18614400  0.53139100  1
  H  715  1  0.04711100  0.51871900  0.25356000  1
  H  718  1  0.96508400  0.50317100  0.25842100  1
  H  719  1  0.96698600  0.51775500  0.27949900  1
  H  720  1  0.97548000  0.47681200  0.27664900  1
  H  722  1  0.99113300  0.51833900  0.30626500  1
  H  724  1  0.03731600  0.51168100  0.21884300  1
  H  731  1  0.97893900  0.52481700  0.77261500  1
  H  734  1  0.05115800  0.48520900  0.76085900  1
  H  735  1  0.05873300  0.50940200  0.75639300  1
  H  736  1  0.04664800  0.48117000  0.72854700  1
  H  738  1  0.01169400  0.49058000  0.71952800  1
  H  740  1  0.99017500  0.52087800  0.80679600  1
  H  747  1  0.25354100  0.04734400  0.51874200  1
  H  750  1  0.25825900  0.96530900  0.50318500  1
  H  751  1  0.27936200  0.96718300  0.51773900  1
  H  752  1  0.27646100  0.97567100  0.47679700  1
  H  754  1  0.30617600  0.99128900  0.51822500  1
  H  756  1  0.21880800  0.03761100  0.51181300  1
  H  763  1  0.77245600  0.97887100  0.52495300  1
  H  766  1  0.76083900  0.05102200  0.48516700  1
  H  767  1  0.75639900  0.05864900  0.50934600  1
  H  768  1  0.72851900  0.04660200  0.48113600  1
  H  770  1  0.71944000  0.01181800  0.49058200  1
  H  772  1  0.80665800  0.99005500  0.52104800  1
  H  779  1  0.51867100  0.25346900  0.04718100  1
  H  782  1  0.50316800  0.25836800  0.96514700  1
  H  783  1  0.51774100  0.27945600  0.96706900  1
  H  784  1  0.47679300  0.27657700  0.97553500  1
  H  786  1  0.51825700  0.30621200  0.99122800  1
  H  788  1  0.51164400  0.21875800  0.03736200  1
  H  795  1  0.52479800  0.77253400  0.97891200  1
  H  798  1  0.48519300  0.76079800  0.05113900  1
  H  799  1  0.50939000  0.75635500  0.05870900  1
  H  800  1  0.48116500  0.72848300  0.04667200  1
  H  802  1  0.49054800  0.71945800  0.01181400  1
  H  804  1  0.52083600  0.80672200  0.99013300  1
  H  811  1  0.51869000  0.04709600  0.77089000  1
  H  814  1  0.50334500  0.96503400  0.76599200  1
  H  815  1  0.51794700  0.96697700  0.74492800  1
  H  816  1  0.47698000  0.97537600  0.74774000  1
  H  818  1  0.51849200  0.99113700  0.71816800  1
  H  820  1  0.51161200  0.03728300  0.80559400  1
  H  827  1  0.52489600  0.97902800  0.25179200  1
  H  830  1  0.48511000  0.05114200  0.26358200  1
  H  831  1  0.50927200  0.05876300  0.26812500  1
  H  832  1  0.48099900  0.04654400  0.29587600  1
  H  834  1  0.49051600  0.01155800  0.30488600  1
  H  836  1  0.52104500  0.99033300  0.21762500  1
  H  843  1  0.04848600  0.25334900  0.50922200  1
  H  846  1  0.96665100  0.25853600  0.52566200  1
  H  847  1  0.96834100  0.27923600  0.51051600  1
  H  848  1  0.97736400  0.27744500  0.55140700  1
  H  850  1  0.99245900  0.30598300  0.50885900  1
  H  852  1  0.03878800  0.21879600  0.51738000  1
  H  859  1  0.97878400  0.77277700  0.50126600  1
  H  862  1  0.04805800  0.76015200  0.54557700  1
  H  863  1  0.05737000  0.75648800  0.52186400  1
  H  864  1  0.04364200  0.72771900  0.54834400  1
  H  866  1  0.00990300  0.71893900  0.53642000  1
  H  868  1  0.98934300  0.80690800  0.50773400  1
  H  875  1  0.25178900  0.52489900  0.97903500  1
  H  878  1  0.26358900  0.48511300  0.05114900  1
  H  879  1  0.26813400  0.50927600  0.05876900  1
  H  880  1  0.29588400  0.48100200  0.04654700  1
  H  882  1  0.30488900  0.49052200  0.01156100  1
  H  884  1  0.21762300  0.52104600  0.99034500  1
  H  891  1  0.77088700  0.51869100  0.04710600  1
  H  894  1  0.76599800  0.50335200  0.96504100  1
  H  895  1  0.74493300  0.51795100  0.96698400  1
  H  896  1  0.74774700  0.47698400  0.97538000  1
  H  898  1  0.71817100  0.51849800  0.99114300  1
  H  900  1  0.80559100  0.51161400  0.03729600  1
  H  973  1  0.09767340  0.44018500  0.62538700  1
  H  974  1  0.09747440  0.47499700  0.62457000  1
  H  975  1  0.14258100  0.44125200  0.66756500  1
  H  976  1  0.14218400  0.47614900  0.66713600  1
  H  977  1  0.15039300  0.50434000  0.64614800  1
  H  978  1  0.15004000  0.53926800  0.64584600  1
  H  979  1  0.08864540  0.50380800  0.64458700  1
  H  980  1  0.08842040  0.53873100  0.64379700  1
  H  981  1  0.11880600  0.54887000  0.60545200  1
  H  982  1  0.11849600  0.57479800  0.57899200  1
  H  983  1  0.11866800  0.60236600  0.63193700  1
  H  984  1  0.11906200  0.62683800  0.65590500  1
  H  985  1  0.11993500  0.54908300  0.68419600  1
  H  986  1  0.12022900  0.57558600  0.71021600  1
  H  987  1  0.14944000  0.62224000  0.71947700  1
  H  988  1  0.14954200  0.62291100  0.75444600  1
  H  989  1  0.08933840  0.60845700  0.71984600  1
  H  990  1  0.08932840  0.60923400  0.75477600  1
  H  991  1  0.11897400  0.65443400  0.70882500  1
  H  992  1  0.11901300  0.68030900  0.68241700  1
  H  993  1  0.11767500  0.65353300  0.57759700  1
  H  994  1  0.11769700  0.68009400  0.60356000  1
  H  995  1  0.08859740  0.69025100  0.64996000  1
  H  996  1  0.08838840  0.72519100  0.64972600  1
  H  997  1  0.14869000  0.69044600  0.63614100  1
  H  998  1  0.14859700  0.72541400  0.63602300  1
  H  999  1  0.13463200  0.75373500  0.61660900  1
  H  1000  1  0.13402000  0.78867700  0.61641800  1
  H  1001  1  0.10084600  0.78835300  0.66835800  1
  H  1002  1  0.10179300  0.75356200  0.66887200  1
  H  1003  1  0.14923500  0.61271200  0.56838400  1
  H  1004  1  0.14936300  0.61262600  0.53345600  1
  H  1005  1  0.09643940  0.63502500  0.50484700  1
  H  1006  1  0.09652040  0.63496200  0.47003000  1
  H  1007  1  0.14117100  0.59250100  0.47002900  1
  H  1008  1  0.14089100  0.59217300  0.50493300  1
  H  1009  1  0.08762440  0.61456800  0.53332900  1
  H  1010  1  0.08762640  0.61513900  0.56826100  1
  H  1011  1  0.10291100  0.59059700  0.78345400  1
  H  1012  1  0.10200600  0.59189100  0.81823900  1
  H  1013  1  0.13560400  0.64294400  0.78241600  1
  H  1014  1  0.13502100  0.64392500  0.81734800  1
  H  1091  1  0.59187700  0.10192400  0.46934300  1
  H  1092  1  0.59057000  0.10284000  0.50412700  1
  H  1093  1  0.64371800  0.13524200  0.47022700  1
  H  1094  1  0.64272900  0.13583100  0.50515500  1
  H  1095  1  0.62269600  0.14964700  0.53312700  1
  H  1096  1  0.62223100  0.14950500  0.56809700  1
  H  1097  1  0.60925900  0.08937940  0.53281100  1
  H  1098  1  0.60867700  0.08935240  0.56774500  1
  H  1099  1  0.57606200  0.12038700  0.57799300  1
  H  1100  1  0.54965100  0.11987900  0.60392400  1
  H  1101  1  0.60260600  0.11795400  0.63140300  1
  H  1102  1  0.62657900  0.11987600  0.65589400  1
  H  1103  1  0.65492400  0.11933700  0.57816300  1
  H  1104  1  0.68089000  0.11962900  0.60466900  1
  H  1105  1  0.69013800  0.14913300  0.65171200  1
  H  1106  1  0.72509900  0.14921000  0.65247300  1
  H  1107  1  0.69050500  0.08918640  0.63727000  1
  H  1108  1  0.72543700  0.08914840  0.63814100  1
  H  1109  1  0.67946100  0.11746800  0.68348400  1
  H  1110  1  0.65300400  0.11732800  0.70935900  1
  H  1111  1  0.54825700  0.11833000  0.68264200  1
  H  1112  1  0.57427500  0.11836800  0.70919000  1
  H  1113  1  0.61489200  0.08771140  0.71928400  1
  H  1114  1  0.61450600  0.08767940  0.75422400  1
  H  1115  1  0.61260400  0.14932600  0.71923200  1
  H  1116  1  0.61269200  0.14942100  0.75415900  1
  H  1117  1  0.59222400  0.14092500  0.78267700  1
  H  1118  1  0.59255800  0.14116700  0.81757900  1
  H  1119  1  0.63499700  0.09649540  0.81752200  1
  H  1120  1  0.63505000  0.09644840  0.78270300  1
  H  1121  1  0.53906200  0.14944300  0.64202100  1
  H  1122  1  0.50412800  0.14958800  0.64199300  1
  H  1123  1  0.47553500  0.09655940  0.66413800  1
  H  1124  1  0.44071500  0.09662240  0.66408800  1
  H  1125  1  0.44067600  0.14146100  0.62182400  1
  H  1126  1  0.47558000  0.14120200  0.62148300  1
  H  1127  1  0.50397500  0.08783840  0.64355900  1
  H  1128  1  0.53890400  0.08781940  0.64406500  1
  H  1129  1  0.75415100  0.10291900  0.61970100  1
  H  1130  1  0.78893600  0.10204000  0.62101300  1
  H  1131  1  0.75303900  0.13510700  0.67235700  1
  H  1132  1  0.78797100  0.13455500  0.67335800  1
  H  1209  1  0.44010700  0.59188400  0.13117000  1
  H  1210  1  0.47489200  0.59058300  0.13208300  1
  H  1211  1  0.44098700  0.64372900  0.16448100  1
  H  1212  1  0.47591500  0.64274600  0.16506700  1
  H  1213  1  0.50389000  0.62271500  0.17888800  1
  H  1214  1  0.53886000  0.62225200  0.17874500  1
  H  1215  1  0.50357400  0.60927100  0.11862100  1
  H  1216  1  0.53850800  0.60869100  0.11859300  1
  H  1217  1  0.54875300  0.57608000  0.14963900  1
  H  1218  1  0.57468400  0.54966700  0.14912900  1
  H  1219  1  0.60216400  0.60262000  0.14718900  1
  H  1220  1  0.62665400  0.62659500  0.14909200  1
  H  1221  1  0.54892600  0.65494100  0.14856900  1
  H  1222  1  0.57543200  0.68090700  0.14885900  1
  H  1223  1  0.62244500  0.69014700  0.17838900  1
  H  1224  1  0.62319600  0.72510700  0.17847900  1
  H  1225  1  0.60805600  0.69053000  0.11843100  1
  H  1226  1  0.60891900  0.72546200  0.11840400  1
  H  1227  1  0.65424800  0.67947700  0.14675000  1
  H  1228  1  0.68012200  0.65301900  0.14660200  1
  H  1229  1  0.65340200  0.54827100  0.14755900  1
  H  1230  1  0.67995000  0.57428900  0.14759100  1
  H  1231  1  0.69004700  0.61490800  0.11695000  1
  H  1232  1  0.72498500  0.61452200  0.11692100  1
  H  1233  1  0.68999000  0.61261300  0.17856400  1
  H  1234  1  0.72491700  0.61270200  0.17866200  1
  H  1235  1  0.75343400  0.59223300  0.17016400  1
  H  1236  1  0.78833600  0.59256100  0.17040800  1
  H  1237  1  0.78828700  0.63500600  0.12574100  1
  H  1238  1  0.75346700  0.63506400  0.12569400  1
  H  1239  1  0.61275600  0.53906200  0.17868100  1
  H  1240  1  0.61272400  0.50412800  0.17881300  1
  H  1241  1  0.63492000  0.47555400  0.12579600  1
  H  1242  1  0.63486800  0.44073700  0.12584000  1
  H  1243  1  0.59255900  0.44067500  0.17063700  1
  H  1244  1  0.59222300  0.47558000  0.17039800  1
  H  1245  1  0.61434100  0.50399700  0.11706500  1
  H  1246  1  0.61484800  0.53892600  0.11705900  1
  H  1247  1  0.59047500  0.75416600  0.13214500  1
  H  1248  1  0.59176800  0.78895100  0.13128600  1
  H  1249  1  0.64308200  0.75306700  0.16441300  1
  H  1250  1  0.64406300  0.78799700  0.16388200  1
  H  1327  1  0.60294800  0.94017100  0.12004300  1
  H  1328  1  0.60359900  0.97507900  0.11894100  1
  H  1329  1  0.63188500  0.94115800  0.17441600  1
  H  1330  1  0.63241200  0.97615200  0.17352100  1
  H  1331  1  0.64819300  0.00385739  0.15333900  1
  H  1332  1  0.64832400  0.03883240  0.15256300  1
  H  1333  1  0.58849600  0.00381839  0.13761000  1
  H  1334  1  0.58867300  0.03877640  0.13693900  1
  H  1335  1  0.61855900  0.04890240  0.10525400  1
  H  1336  1  0.61787600  0.07475740  0.07884760  1
  H  1337  1  0.61818900  0.10237600  0.13175400  1
  H  1338  1  0.61838800  0.12687400  0.15572900  1
  H  1339  1  0.61844300  0.04917140  0.18416100  1
  H  1340  1  0.61876500  0.07567840  0.21008100  1
  H  1341  1  0.64815800  0.12351600  0.21946000  1
  H  1342  1  0.64802600  0.12449900  0.25443400  1
  H  1343  1  0.58860200  0.10752100  0.21962300  1
  H  1344  1  0.58842300  0.10840400  0.25457600  1
  H  1345  1  0.61782200  0.15453200  0.20862200  1
  H  1346  1  0.61789800  0.18036200  0.18221600  1
  H  1347  1  0.61775800  0.15362500  0.07741760  1
  H  1348  1  0.61745800  0.18011900  0.10336800  1
  H  1349  1  0.58764600  0.19001600  0.15034600  1
  H  1350  1  0.58717600  0.22497700  0.15036700  1
  H  1351  1  0.64749500  0.19075500  0.13549200  1
  H  1352  1  0.64709800  0.22573000  0.13548500  1
  H  1353  1  0.63179100  0.25381100  0.11599700  1
  H  1354  1  0.63120000  0.28876400  0.11603200  1
  H  1355  1  0.60072400  0.28822800  0.16959900  1
  H  1356  1  0.60153900  0.25335200  0.16980400  1
  H  1357  1  0.64750300  0.10666000  0.06765060  1
  H  1358  1  0.64713600  0.10646800  0.03267560  1
  H  1359  1  0.60144400  0.14053700  0.00490064  1
  H  1360  1  0.60065900  0.14026500  0.97002700  1
  H  1361  1  0.63143400  0.08687140  0.96961600  1
  H  1362  1  0.63199700  0.08690340  0.00456864  1
  H  1363  1  0.58716900  0.12115000  0.03330060  1
  H  1364  1  0.58760600  0.12130900  0.06825560  1
  H  1365  1  0.60373500  0.08981440  0.28324100  1
  H  1366  1  0.60312000  0.09088440  0.31814700  1
  H  1367  1  0.63212100  0.14462100  0.28216900  1
  H  1368  1  0.63163600  0.14548300  0.31716900  1
  H  1445  1  0.09084140  0.60294900  0.96946700  1
  H  1446  1  0.08972640  0.60359900  0.00437364  1
  H  1447  1  0.14520900  0.63189300  0.97047300  1
  H  1448  1  0.14430200  0.63242100  0.00546564  1
  H  1449  1  0.12410300  0.64819900  0.03316260  1
  H  1450  1  0.12331800  0.64832900  0.06813760  1
  H  1451  1  0.10839500  0.58849500  0.03311760  1
  H  1452  1  0.10771500  0.58867200  0.06807560  1
  H  1453  1  0.07602040  0.61857300  0.07819960  1
  H  1454  1  0.04961340  0.61788800  0.10405400  1
  H  1455  1  0.10251700  0.61817700  0.13167600  1
  H  1456  1  0.12649100  0.61838200  0.15617500  1
  H  1457  1  0.15492500  0.61844300  0.07847160  1
  H  1458  1  0.18084400  0.61876800  0.10498100  1
  H  1459  1  0.19022300  0.64815600  0.15281000  1
  H  1460  1  0.22519700  0.64802800  0.15378100  1
  H  1461  1  0.19038400  0.58859700  0.13682400  1
  H  1462  1  0.22533800  0.58842200  0.13769400  1
  H  1463  1  0.17938300  0.61783100  0.18383400  1
  H  1464  1  0.15297600  0.61790800  0.20966400  1
  H  1465  1  0.04818040  0.61774000  0.18292200  1
  H  1466  1  0.07412840  0.61744500  0.20941800  1
  H  1467  1  0.12112300  0.58765700  0.21933000  1
  H  1468  1  0.12113600  0.58719700  0.25429000  1
  H  1469  1  0.10623000  0.64749700  0.22005000  1
  H  1470  1  0.10621400  0.64710900  0.25502400  1
  H  1471  1  0.08673640  0.63180000  0.28310500  1
  H  1472  1  0.08675840  0.63121800  0.31805600  1
  H  1473  1  0.14033400  0.60075500  0.31755000  1
  H  1474  1  0.14055100  0.60156100  0.28267400  1
  H  1475  1  0.03841540  0.64750300  0.13596100  1
  H  1476  1  0.00344139  0.64713600  0.13575900  1
  H  1477  1  0.97565500  0.60143600  0.16980400  1
  H  1478  1  0.94078000  0.60065700  0.16952300  1
  H  1479  1  0.94038600  0.63144000  0.11613300  1
  H  1480  1  0.97534000  0.63199700  0.11617500  1
  H  1481  1  0.00406139  0.58716500  0.15042300  1
  H  1482  1  0.03901840  0.58760200  0.15059300  1
  H  1483  1  0.25399500  0.60373900  0.11908600  1
  H  1484  1  0.28890100  0.60312500  0.12014400  1
  H  1485  1  0.25294000  0.63212000  0.17389500  1
  H  1486  1  0.28794000  0.63163500  0.17474600  1
  H  1563  1  0.94012300  0.09051840  0.63254500  1
  H  1564  1  0.97502500  0.08936840  0.63324100  1
  H  1565  1  0.94116600  0.14515900  0.66097000  1
  H  1566  1  0.97615800  0.14421600  0.66153700  1
  H  1567  1  0.00383339  0.12416300  0.67752000  1
  H  1568  1  0.03880640  0.12333800  0.67767300  1
  H  1569  1  0.00379639  0.10783200  0.61798500  1
  H  1570  1  0.03875040  0.10711200  0.61818400  1
  H  1571  1  0.04913340  0.07570440  0.64834100  1
  H  1572  1  0.07515740  0.04945240  0.64750800  1
  H  1573  1  0.10242700  0.10253400  0.64725300  1
  H  1574  1  0.12678500  0.12668400  0.64733000  1
  H  1575  1  0.04890140  0.15461100  0.64741000  1
  H  1576  1  0.07524140  0.18069100  0.64758800  1
  H  1577  1  0.12211000  0.19041200  0.67749700  1
  H  1578  1  0.12232400  0.22538400  0.67743700  1
  H  1579  1  0.10762200  0.19033300  0.61755400  1
  H  1580  1  0.10780300  0.22530400  0.61742400  1
  H  1581  1  0.15408500  0.17976400  0.64765000  1
  H  1582  1  0.18010300  0.15351500  0.64781600  1
  H  1583  1  0.15404200  0.04856040  0.64666000  1
  H  1584  1  0.18035000  0.07467840  0.64648200  1
  H  1585  1  0.18999300  0.12195900  0.61714600  1
  H  1586  1  0.22495100  0.12194300  0.61665300  1
  H  1587  1  0.19075300  0.10647600  0.67683500  1
  H  1588  1  0.22572800  0.10643800  0.67641700  1
  H  1589  1  0.25373600  0.08705540  0.66091000  1
  H  1590  1  0.28868700  0.08698940  0.66027400  1
  H  1591  1  0.28827400  0.14082000  0.63026000  1
  H  1592  1  0.25340300  0.14112700  0.63113100  1
  H  1593  1  0.10739800  0.03834540  0.67660800  1
  H  1594  1  0.10799000  0.00337839  0.67625000  1
  H  1595  1  0.14303200  0.97643800  0.63119700  1
  H  1596  1  0.14400100  0.94144300  0.63112800  1
  H  1597  1  0.09022040  0.93985000  0.66111900  1
  H  1598  1  0.08905240  0.97477900  0.66109700  1
  H  1599  1  0.12249800  0.00428439  0.61625100  1
  H  1600  1  0.12181800  0.03925340  0.61666200  1
  H  1601  1  0.08821940  0.25356500  0.63224100  1
  H  1602  1  0.08826840  0.28851600  0.63223900  1
  H  1603  1  0.14187800  0.25358400  0.66275600  1
  H  1604  1  0.14169400  0.28848100  0.66296800  1
  H  1615  1  0.14944800  0.62105600  0.38513700  1
  H  1618  1  0.06742140  0.60550800  0.38999800  1
  H  1619  1  0.06932340  0.62009200  0.41107600  1
  H  1620  1  0.07781740  0.57914900  0.40822600  1
  H  1622  1  0.09347040  0.62067600  0.43784200  1
  H  1624  1  0.13965300  0.61401800  0.35042000  1
  H  1631  1  0.08127640  0.62715400  0.90419200  1
  H  1634  1  0.15349500  0.58754600  0.89243600  1
  H  1635  1  0.16107000  0.61173900  0.88797000  1
  H  1636  1  0.14898500  0.58350700  0.86012400  1
  H  1638  1  0.11403100  0.59291700  0.85110500  1
  H  1640  1  0.09251240  0.62321500  0.93837300  1
  H  1647  1  0.35587800  0.14968100  0.65031900  1
  H  1650  1  0.36059600  0.06764640  0.63476200  1
  H  1651  1  0.38169900  0.06952040  0.64931600  1
  H  1652  1  0.37879800  0.07800840  0.60837400  1
  H  1654  1  0.40851300  0.09362640  0.64980200  1
  H  1656  1  0.32114500  0.13994800  0.64339000  1
  H  1663  1  0.87479300  0.08120840  0.65653000  1
  H  1666  1  0.86317600  0.15335900  0.61674400  1
  H  1667  1  0.85873600  0.16098600  0.64092300  1
  H  1668  1  0.83085600  0.14893900  0.61271300  1
  H  1670  1  0.82177700  0.11415500  0.62215900  1
  H  1672  1  0.90899500  0.09239240  0.65262500  1
  H  1679  1  0.62100800  0.35580600  0.17875800  1
  H  1682  1  0.60550500  0.36070500  0.09672360  1
  H  1683  1  0.62007800  0.38179300  0.09864560  1
  H  1684  1  0.57913000  0.37891400  0.10711200  1
  H  1686  1  0.62059400  0.40854900  0.12280500  1
  H  1688  1  0.61398100  0.32109500  0.16893900  1
  H  1695  1  0.62713500  0.87487100  0.11048900  1
  H  1698  1  0.58753000  0.86313500  0.18271600  1
  H  1699  1  0.61172700  0.85869200  0.19028600  1
  H  1700  1  0.58350200  0.83082000  0.17824900  1
  H  1702  1  0.59288500  0.82179500  0.14339100  1
  H  1704  1  0.62317300  0.90905900  0.12171000  1
  H  1711  1  0.62102700  0.14943300  0.90246700  1
  H  1714  1  0.60568200  0.06737140  0.89756900  1
  H  1715  1  0.62028400  0.06931440  0.87650500  1
  H  1716  1  0.57931700  0.07771340  0.87931700  1
  H  1718  1  0.62082900  0.09347440  0.84974500  1
  H  1720  1  0.61394900  0.13962000  0.93717100  1
  H  1727  1  0.62723300  0.08136540  0.38336900  1
  H  1730  1  0.58744700  0.15347900  0.39515900  1
  H  1731  1  0.61160900  0.16110000  0.39970200  1
  H  1732  1  0.58333600  0.14888100  0.42745300  1
  H  1734  1  0.59285300  0.11389500  0.43646300  1
  H  1736  1  0.62338200  0.09267040  0.34920200  1
  H  1743  1  0.15082300  0.35568600  0.64079900  1
  H  1746  1  0.06898840  0.36087300  0.65723900  1
  H  1747  1  0.07067840  0.38157300  0.64209300  1
  H  1748  1  0.07970140  0.37978200  0.68298400  1
  H  1750  1  0.09479640  0.40832000  0.64043600  1
  H  1752  1  0.14112500  0.32113300  0.64895700  1
  H  1759  1  0.08112140  0.87511400  0.63284300  1
  H  1762  1  0.15039500  0.86248900  0.67715400  1
  H  1763  1  0.15970700  0.85882500  0.65344100  1
  H  1764  1  0.14597900  0.83005600  0.67992100  1
  H  1766  1  0.11224000  0.82127600  0.66799700  1
  H  1768  1  0.09168040  0.90924500  0.63931100  1
  H  1775  1  0.35412600  0.62723600  0.11061200  1
  H  1778  1  0.36592600  0.58745000  0.18272600  1
  H  1779  1  0.37047100  0.61161300  0.19034600  1
  H  1780  1  0.39822100  0.58333900  0.17812400  1
  H  1782  1  0.40722600  0.59285900  0.14313800  1
  H  1784  1  0.31996000  0.62338300  0.12192200  1
  H  1791  1  0.87322400  0.62102800  0.17868300  1
  H  1794  1  0.86833500  0.60568900  0.09661760  1
  H  1795  1  0.84727000  0.62028800  0.09856060  1
  H  1796  1  0.85008400  0.57932100  0.10695700  1
  H  1798  1  0.82050800  0.62083500  0.12272000  1
  H  1800  1  0.90792800  0.61395100  0.16887300  1
  C  1  1  0.01637900  0.46124600  0.47649600  1
  C  2  1  0.01623200  0.47538000  0.46207200  1
  C  3  1  0.01622800  0.49373800  0.47104400  1
  C  5  1  0.01644400  0.47059100  0.49466700  1
  C  6  1  0.01668700  0.46086500  0.51308700  1
  C  7  1  0.01685300  0.47050500  0.53150700  1
  C  9  1  0.01695400  0.49394900  0.55451600  1
  C  10  1  0.01743000  0.47582600  0.56392600  1
  C  11  1  0.01728900  0.46141900  0.54978800  1
  C  12  1  0.01696000  0.51256100  0.56380300  1
  C  13  1  0.01680500  0.53077100  0.55365100  1
  C  15  1  0.01654000  0.55394500  0.53000100  1
  C  16  1  0.01666000  0.56326800  0.54818200  1
  C  17  1  0.01666600  0.54913900  0.56260100  1
  C  18  1  0.01639800  0.56372500  0.51158600  1
  C  19  1  0.01624600  0.55406000  0.49317000  1
  C  21  1  0.01605600  0.53057400  0.47020400  1
  C  22  1  0.01570400  0.54866600  0.46074500  1
  C  23  1  0.01573500  0.56309800  0.47486000  1
  C  24  1  0.01608800  0.51195900  0.46094500  1
  C  25  1  0.01608600  0.51159000  0.44003600  1
  C  26  1  0.99837800  0.51222300  0.42944700  1
  C  27  1  0.99845300  0.51204800  0.40884500  1
  C  28  1  0.01616300  0.51120300  0.39808500  1
  C  29  1  0.03383100  0.51051100  0.40891800  1
  C  30  1  0.03382900  0.51073400  0.42951900  1
  C  31  1  0.01620500  0.51114400  0.37706300  1
  C  32  1  0.02917000  0.49908600  0.36627900  1
  C  33  1  0.02926800  0.49913700  0.34566600  1
  C  34  1  0.01627700  0.51108600  0.33499700  1
  C  35  1  0.00343200  0.52333100  0.34562500  1
  C  36  1  0.00337800  0.52329900  0.36623000  1
  C  37  1  0.01632800  0.58467400  0.51152500  1
  C  38  1  0.99900400  0.59520300  0.51547000  1
  C  39  1  0.99896800  0.61580500  0.51546200  1
  C  40  1  0.01615000  0.62663400  0.51131300  1
  C  41  1  0.03342000  0.61592600  0.50723700  1
  C  42  1  0.03355500  0.59532000  0.50743400  1
  C  43  1  0.01603500  0.64762600  0.51125100  1
  C  44  1  0.00629900  0.65834900  0.52605900  1
  C  45  1  0.00595600  0.67895000  0.52592500  1
  C  46  1  0.01535900  0.68969100  0.51093800  1
  C  47  1  0.02493700  0.67907700  0.49605700  1
  C  48  1  0.02542000  0.65846200  0.49628600  1
  C  49  1  0.01705000  0.51293500  0.58474800  1
  C  50  1  0.03434800  0.51715000  0.59522900  1
  C  51  1  0.03432600  0.51767600  0.61583300  1
  C  52  1  0.01711300  0.51378300  0.62669600  1
  C  53  1  0.99987300  0.50945300  0.61603600  1
  C  54  1  0.99979100  0.50913100  0.59543800  1
  C  55  1  0.01708500  0.51426000  0.64768100  1
  C  56  1  0.00741200  0.49965900  0.65874400  1
  C  57  1  0.00709600  0.50025300  0.67933600  1
  C  58  1  0.01645700  0.51551400  0.68971900  1
  C  59  1  0.02598200  0.53018200  0.67876900  1
  C  60  1  0.02644700  0.52948800  0.65816400  1
  C  61  1  0.01686700  0.43995300  0.51315500  1
  C  62  1  0.03468400  0.42955500  0.51394600  1
  C  63  1  0.99922600  0.42924500  0.51267200  1
  C  64  1  0.99943200  0.40864600  0.51298600  1
  C  65  1  0.01721300  0.39800600  0.51385300  1
  C  66  1  0.03481700  0.40895600  0.51430500  1
  C  67  1  0.01737300  0.37698900  0.51429500  1
  C  68  1  0.03044800  0.36651000  0.52650400  1
  C  69  1  0.03061600  0.34590200  0.52690000  1
  C  70  1  0.01758100  0.33493400  0.51527300  1
  C  71  1  0.00462700  0.34525300  0.50287800  1
  C  72  1  0.00450600  0.36585300  0.50246000  1
  C  119  1  0.47638000  0.01738000  0.46110700  1
  C  120  1  0.46197000  0.01710500  0.47524600  1
  C  121  1  0.47095500  0.01648800  0.49358300  1
  C  123  1  0.49456900  0.01677500  0.47040400  1
  C  124  1  0.51298400  0.01692300  0.46063100  1
  C  125  1  0.53140300  0.01691800  0.47030300  1
  C  127  1  0.55440800  0.01690000  0.49377900  1
  C  128  1  0.56383400  0.01713000  0.47566700  1
  C  129  1  0.54970800  0.01698400  0.46124900  1
  C  130  1  0.56370200  0.01679800  0.51239000  1
  C  131  1  0.55355200  0.01652200  0.53059600  1
  C  133  1  0.52990300  0.01621400  0.55373300  1
  C  134  1  0.54805700  0.01561800  0.56308100  1
  C  135  1  0.56248600  0.01571000  0.54896000  1
  C  136  1  0.51148900  0.01620600  0.56348000  1
  C  137  1  0.49306700  0.01621600  0.55385700  1
  C  139  1  0.47009400  0.01611500  0.53041300  1
  C  140  1  0.46064700  0.01603900  0.54851900  1
  C  141  1  0.47477700  0.01609100  0.56293900  1
  C  142  1  0.46084400  0.01623200  0.51179900  1
  C  143  1  0.43993500  0.01628600  0.51144600  1
  C  144  1  0.42933900  0.99858000  0.51200000  1
  C  145  1  0.40873700  0.99866500  0.51186800  1
  C  146  1  0.39798700  0.01638500  0.51115300  1
  C  147  1  0.40882600  0.03405300  0.51056100  1
  C  148  1  0.42942800  0.03404100  0.51073200  1
  C  149  1  0.37696800  0.01642900  0.51112000  1
  C  150  1  0.36617300  0.02944500  0.49912600  1
  C  151  1  0.34556300  0.02952800  0.49918100  1
  C  152  1  0.33490600  0.01646900  0.51106800  1
  C  153  1  0.34554400  0.00357900  0.52325700  1
  C  154  1  0.36614800  0.00354800  0.52322900  1
  C  155  1  0.51143700  0.01617900  0.58439200  1
  C  156  1  0.51208400  0.99845700  0.59496000  1
  C  157  1  0.51201400  0.99851400  0.61556400  1
  C  158  1  0.51123500  0.01621600  0.62634300  1
  C  159  1  0.51055800  0.03389700  0.61553000  1
  C  160  1  0.51067700  0.03391300  0.59492800  1
  C  161  1  0.51119100  0.01623900  0.64736300  1
  C  162  1  0.52334400  0.00339600  0.65818000  1
  C  163  1  0.52337200  0.00342200  0.67878500  1
  C  164  1  0.51113700  0.01626200  0.68943100  1
  C  165  1  0.49919700  0.02927400  0.67877700  1
  C  166  1  0.49913700  0.02919400  0.65816500  1
  C  167  1  0.58464700  0.01683000  0.51279600  1
  C  168  1  0.59512800  0.03406700  0.51725400  1
  C  169  1  0.61572900  0.03403200  0.51782600  1
  C  170  1  0.62659400  0.01685700  0.51377400  1
  C  171  1  0.61593500  0.99966900  0.50923700  1
  C  172  1  0.59533700  0.99960200  0.50885600  1
  C  173  1  0.64758100  0.01682800  0.51428300  1
  C  174  1  0.65866500  0.00730500  0.49960100  1
  C  175  1  0.67925700  0.00701400  0.50020300  1
  C  176  1  0.68961800  0.01624000  0.51556000  1
  C  177  1  0.67864600  0.02561000  0.53031100  1
  C  178  1  0.65804100  0.02604400  0.52961300  1
  C  179  1  0.51303500  0.01709000  0.43968200  1
  C  180  1  0.51710900  0.03441800  0.42919400  1
  C  181  1  0.50921900  0.99983200  0.42899500  1
  C  182  1  0.50943500  0.99993400  0.40839600  1
  C  183  1  0.51366300  0.01719500  0.39772800  1
  C  184  1  0.51752100  0.03441900  0.40858900  1
  C  185  1  0.51413300  0.01716800  0.37674200  1
  C  186  1  0.52931200  0.02660500  0.36625800  1
  C  187  1  0.53001100  0.02614000  0.34565500  1
  C  188  1  0.51540200  0.01652600  0.33470600  1
  C  189  1  0.50019600  0.00707600  0.34509000  1
  C  190  1  0.49959500  0.00740000  0.36568200  1
  C  237  1  0.46110700  0.47639600  0.01739000  1
  C  238  1  0.47524700  0.46198600  0.01713700  1
  C  239  1  0.49358500  0.47097000  0.01650400  1
  C  241  1  0.47040500  0.49458500  0.01678600  1
  C  242  1  0.46063400  0.51300000  0.01692500  1
  C  243  1  0.47030600  0.53141900  0.01691800  1
  C  245  1  0.49378200  0.55442400  0.01690100  1
  C  246  1  0.47566800  0.56385100  0.01713100  1
  C  247  1  0.46125200  0.54972400  0.01697400  1
  C  248  1  0.51239300  0.56371800  0.01680200  1
  C  249  1  0.53059700  0.55356800  0.01652200  1
  C  251  1  0.55373400  0.52991700  0.01621300  1
  C  252  1  0.56308200  0.54807200  0.01563400  1
  C  253  1  0.54896100  0.56250000  0.01571700  1
  C  254  1  0.56348000  0.51150300  0.01620200  1
  C  255  1  0.55385700  0.49308000  0.01620500  1
  C  257  1  0.53041300  0.47010700  0.01611200  1
  C  258  1  0.54851900  0.46066100  0.01602800  1
  C  259  1  0.56293900  0.47479100  0.01607800  1
  C  260  1  0.51179900  0.46085700  0.01623800  1
  C  261  1  0.51144600  0.43994800  0.01628600  1
  C  262  1  0.51201400  0.42935600  0.99857700  1
  C  263  1  0.51188700  0.40875600  0.99865500  1
  C  264  1  0.51115300  0.39799900  0.01637000  1
  C  265  1  0.51054500  0.40883200  0.03404100  1
  C  266  1  0.51071800  0.42943400  0.03403700  1
  C  267  1  0.51111800  0.37697900  0.01640500  1
  C  268  1  0.49911400  0.36617800  0.02940600  1
  C  269  1  0.49916400  0.34556500  0.02947400  1
  C  270  1  0.51106800  0.33491500  0.01642700  1
  C  271  1  0.52326800  0.34556000  0.00355400  1
  C  272  1  0.52323500  0.36616500  0.00352600  1
  C  273  1  0.58439200  0.51145100  0.01617700  1
  C  274  1  0.59496200  0.51210200  0.99845700  1
  C  275  1  0.61556500  0.51203600  0.99851600  1
  C  276  1  0.62634300  0.51125000  0.01621800  1
  C  277  1  0.61552900  0.51056700  0.03389700  1
  C  278  1  0.59492700  0.51069000  0.03391200  1
  C  279  1  0.64736400  0.51120400  0.01624200  1
  C  280  1  0.65818300  0.52335500  0.00339900  1
  C  281  1  0.67878800  0.52338100  0.00342700  1
  C  282  1  0.68943100  0.51114300  0.01626600  1
  C  283  1  0.67877600  0.49920300  0.02927700  1
  C  284  1  0.65816400  0.49915200  0.02920000  1
  C  285  1  0.51279900  0.58466400  0.01683900  1
  C  286  1  0.51724200  0.59514000  0.03408200  1
  C  287  1  0.51781400  0.61574000  0.03405300  1
  C  288  1  0.51377200  0.62661300  0.01687900  1
  C  289  1  0.50926100  0.61595700  0.99968100  1
  C  290  1  0.50887500  0.59535800  0.99960900  1
  C  291  1  0.51426900  0.64760000  0.01686000  1
  C  292  1  0.49959600  0.65868100  0.00731800  1
  C  293  1  0.50018600  0.67927400  0.00704100  1
  C  294  1  0.51551900  0.68964100  0.01630300  1
  C  295  1  0.53026500  0.67867100  0.02568100  1
  C  296  1  0.52957500  0.65806600  0.02611000  1
  C  297  1  0.43968500  0.51305100  0.01709100  1
  C  298  1  0.42919600  0.51712700  0.03441800  1
  C  299  1  0.42899800  0.50923500  0.99983300  1
  C  300  1  0.40839800  0.50945000  0.99993500  1
  C  301  1  0.39773100  0.51368100  0.01719600  1
  C  302  1  0.40859100  0.51754000  0.03442000  1
  C  303  1  0.37674500  0.51414600  0.01717000  1
  C  304  1  0.36625800  0.52932400  0.02660900  1
  C  305  1  0.34565500  0.53002300  0.02614100  1
  C  306  1  0.33470900  0.51541000  0.01653000  1
  C  307  1  0.34509300  0.50020500  0.00708100  1
  C  308  1  0.36568600  0.49960500  0.00740600  1
  C  355  1  0.51605100  0.96126700  0.97633900  1
  C  356  1  0.51571600  0.97538900  0.96191600  1
  C  357  1  0.51574700  0.99376200  0.97085300  1
  C  359  1  0.51599800  0.97058700  0.99452200  1
  C  360  1  0.51617500  0.96080700  0.01294400  1
  C  361  1  0.51622900  0.97051800  0.03135200  1
  C  363  1  0.51615300  0.99402200  0.05434700  1
  C  364  1  0.51632900  0.97591500  0.06378400  1
  C  365  1  0.51619000  0.96149000  0.04967200  1
  C  366  1  0.51609800  0.01263400  0.06364700  1
  C  367  1  0.51595400  0.03083300  0.05347300  1
  C  369  1  0.51564700  0.05398300  0.02980700  1
  C  370  1  0.51564100  0.06332100  0.04798000  1
  C  371  1  0.51565200  0.04920900  0.06240500  1
  C  372  1  0.51553000  0.06375400  0.01139100  1
  C  373  1  0.51554300  0.05407000  0.99298100  1
  C  375  1  0.51547500  0.03058400  0.96998700  1
  C  376  1  0.51542500  0.04870200  0.96055900  1
  C  377  1  0.51530700  0.06312100  0.97467700  1
  C  378  1  0.51551600  0.01197000  0.96068900  1
  C  379  1  0.51524500  0.01161800  0.93973200  1
  C  380  1  0.49790500  0.01581300  0.92930700  1
  C  381  1  0.49772800  0.01585500  0.90870500  1
  C  382  1  0.51477600  0.01145700  0.89777900  1
  C  383  1  0.53205300  0.00709300  0.90835200  1
  C  384  1  0.53234300  0.00731000  0.92895900  1
  C  385  1  0.51454300  0.01145100  0.87680600  1
  C  386  1  0.52324900  0.99610700  0.86594900  1
  C  387  1  0.52280400  0.99598700  0.84534000  1
  C  388  1  0.51397600  0.01136500  0.83478900  1
  C  389  1  0.50520200  0.02671100  0.84553500  1
  C  390  1  0.50545000  0.02671000  0.86614400  1
  C  391  1  0.51527400  0.08470600  0.01134200  1
  C  392  1  0.49793400  0.09508300  0.01564400  1
  C  393  1  0.49773800  0.11568300  0.01577900  1
  C  394  1  0.51475800  0.12664000  0.01135600  1
  C  395  1  0.53203700  0.11611200  0.00689300  1
  C  396  1  0.53234900  0.09551000  0.00702300  1
  C  397  1  0.51449500  0.14760600  0.01138700  1
  C  398  1  0.50547100  0.15822500  0.02671300  1
  C  399  1  0.50520000  0.17883200  0.02675000  1
  C  400  1  0.51389600  0.18960800  0.01138100  1
  C  401  1  0.52263800  0.17909800  0.99592800  1
  C  402  1  0.52310000  0.15849100  0.99600600  1
  C  403  1  0.51606800  0.01305300  0.08460900  1
  C  404  1  0.53314000  0.01798300  0.09516100  1
  C  405  1  0.53298300  0.01870000  0.11575800  1
  C  406  1  0.51587700  0.01420100  0.12654100  1
  C  407  1  0.49887000  0.00912500  0.11585100  1
  C  408  1  0.49889900  0.00870900  0.09525300  1
  C  409  1  0.51577400  0.01471800  0.14750200  1
  C  410  1  0.50734500  0.99935600  0.15854700  1
  C  411  1  0.50719100  0.99983500  0.17914300  1
  C  412  1  0.51544300  0.01573600  0.18947900  1
  C  413  1  0.52350200  0.03127400  0.17856100  1
  C  414  1  0.52390300  0.03066000  0.15794900  1
  C  415  1  0.51619300  0.93983400  0.01304300  1
  C  416  1  0.53329500  0.92923900  0.01778500  1
  C  417  1  0.49900300  0.92921000  0.00872600  1
  C  418  1  0.49896800  0.90860500  0.00902900  1
  C  419  1  0.51599700  0.89787700  0.01395900  1
  C  420  1  0.53314000  0.90863900  0.01837700  1
  C  421  1  0.51586700  0.87691100  0.01448000  1
  C  422  1  0.52409600  0.86645800  0.03036800  1
  C  423  1  0.52367200  0.84584800  0.03100400  1
  C  424  1  0.51548400  0.83492400  0.01553800  1
  C  425  1  0.50711800  0.84526100  0.99969700  1
  C  426  1  0.50729400  0.86586200  0.99920200  1
  C  473  1  0.97634400  0.51606400  0.96132500  1
  C  474  1  0.96191900  0.51572600  0.97544600  1
  C  475  1  0.97085600  0.51575000  0.99382000  1
  C  477  1  0.99452600  0.51600500  0.97064600  1
  C  478  1  0.01294800  0.51617400  0.96086900  1
  C  479  1  0.03135600  0.51621400  0.97057900  1
  C  481  1  0.05435000  0.51614100  0.99408300  1
  C  482  1  0.06378800  0.51631100  0.97597700  1
  C  483  1  0.04967600  0.51617800  0.96155200  1
  C  484  1  0.06364900  0.51609600  0.01269600  1
  C  485  1  0.05347400  0.51595700  0.03089500  1
  C  487  1  0.02980800  0.51565000  0.05404500  1
  C  488  1  0.04798100  0.51565200  0.06338300  1
  C  489  1  0.06240600  0.51566000  0.04927100  1
  C  490  1  0.01139100  0.51553200  0.06381600  1
  C  491  1  0.99298100  0.51554600  0.05413100  1
  C  493  1  0.96999000  0.51546900  0.03064300  1
  C  494  1  0.96056000  0.51541900  0.04876000  1
  C  495  1  0.97467900  0.51529800  0.06318000  1
  C  496  1  0.96069200  0.51551400  0.01202900  1
  C  497  1  0.93973300  0.51524400  0.01167400  1
  C  498  1  0.92930800  0.49790300  0.01586200  1
  C  499  1  0.90870600  0.49772500  0.01589400  1
  C  500  1  0.89778200  0.51477300  0.01149500  1
  C  501  1  0.90835500  0.53205000  0.00713100  1
  C  502  1  0.92896200  0.53234300  0.00736700  1
  C  503  1  0.87680700  0.51453900  0.01148100  1
  C  504  1  0.86595700  0.52325200  0.99613600  1
  C  505  1  0.84534800  0.52280500  0.99601000  1
  C  506  1  0.83479100  0.51397800  0.01138400  1
  C  507  1  0.84553200  0.50519100  0.02672700  1
  C  508  1  0.86614100  0.50544300  0.02673400  1
  C  509  1  0.01134200  0.51528200  0.08476900  1
  C  510  1  0.01565500  0.49794700  0.09515300  1
  C  511  1  0.01579300  0.49775700  0.11575300  1
  C  512  1  0.01135300  0.51477700  0.12670500  1
  C  513  1  0.00689000  0.53205200  0.11617100  1
  C  514  1  0.00701100  0.53235600  0.09556800  1
  C  515  1  0.01137700  0.51452000  0.14767300  1
  C  516  1  0.02670200  0.50550400  0.15830000  1
  C  517  1  0.02673000  0.50523500  0.17890800  1
  C  518  1  0.01135500  0.51392900  0.18967600  1
  C  519  1  0.99590200  0.52266300  0.17915800  1
  C  520  1  0.99599500  0.52313200  0.15855100  1
  C  521  1  0.08461100  0.51606500  0.01311400  1
  C  522  1  0.09516400  0.53313800  0.01803900  1
  C  523  1  0.11576100  0.53298300  0.01874500  1
  C  524  1  0.12654400  0.51587800  0.01424300  1
  C  525  1  0.11585400  0.49887000  0.00916800  1
  C  526  1  0.09525500  0.49889800  0.00876600  1
  C  527  1  0.14750500  0.51577900  0.01475100  1
  C  528  1  0.15854400  0.50734800  0.99938700  1
  C  529  1  0.17914200  0.50720000  0.99985500  1
  C  530  1  0.18948200  0.51544800  0.01575600  1
  C  531  1  0.17856800  0.52350800  0.03129600  1
  C  532  1  0.15795800  0.52391000  0.03068800  1
  C  533  1  0.01304900  0.51619400  0.93989600  1
  C  534  1  0.01779000  0.53329600  0.92930500  1
  C  535  1  0.00873800  0.49900300  0.92927100  1
  C  536  1  0.00903900  0.49897100  0.90866700  1
  C  537  1  0.01397400  0.51600000  0.89794200  1
  C  538  1  0.01839000  0.53314100  0.90870300  1
  C  539  1  0.01450200  0.51586900  0.87697600  1
  C  540  1  0.03039300  0.52410200  0.86653000  1
  C  541  1  0.03103700  0.52367600  0.84591900  1
  C  542  1  0.01557600  0.51548800  0.83499000  1
  C  543  1  0.99972900  0.50712300  0.84532100  1
  C  544  1  0.99923100  0.50729100  0.86592200  1
  C  591  1  0.96148000  0.97611700  0.51643500  1
  C  592  1  0.97569200  0.96178000  0.51601100  1
  C  593  1  0.99400600  0.97083200  0.51581700  1
  C  595  1  0.97068000  0.99435900  0.51620900  1
  C  596  1  0.96078400  0.01272100  0.51634000  1
  C  597  1  0.97037900  0.03118800  0.51624200  1
  C  599  1  0.99373400  0.05432200  0.51604500  1
  C  600  1  0.97557000  0.06365100  0.51604800  1
  C  601  1  0.96123600  0.04945100  0.51600100  1
  C  602  1  0.01228300  0.06374000  0.51603300  1
  C  603  1  0.03055500  0.05370400  0.51608900  1
  C  605  1  0.05385900  0.03019600  0.51588300  1
  C  606  1  0.06307800  0.04842900  0.51615000  1
  C  607  1  0.04886900  0.06276400  0.51608900  1
  C  608  1  0.06374000  0.01184000  0.51568500  1
  C  609  1  0.05416500  0.99337300  0.51555700  1
  C  611  1  0.03082900  0.97022400  0.51536800  1
  C  612  1  0.04901200  0.96092000  0.51519700  1
  C  613  1  0.06333500  0.97513300  0.51514900  1
  C  614  1  0.01228200  0.96079000  0.51541900  1
  C  615  1  0.01210600  0.93982200  0.51507100  1
  C  616  1  0.01647500  0.92947900  0.49772100  1
  C  617  1  0.01702300  0.90887900  0.49755700  1
  C  618  1  0.01295400  0.89787100  0.51462800  1
  C  619  1  0.00837200  0.90835200  0.53190700  1
  C  620  1  0.00810600  0.92895900  0.53218500  1
  C  621  1  0.01352200  0.87690500  0.51444100  1
  C  622  1  0.99844600  0.86568500  0.52315000  1
  C  623  1  0.99897200  0.84508400  0.52295600  1
  C  624  1  0.01466400  0.83492800  0.51410500  1
  C  625  1  0.02994500  0.84601300  0.50579100  1
  C  626  1  0.02926600  0.86662500  0.50572900  1
  C  627  1  0.08469300  0.01191000  0.51546300  1
  C  628  1  0.09506400  0.01638900  0.49816500  1
  C  629  1  0.11566400  0.01649700  0.49795500  1
  C  630  1  0.12662700  0.01186800  0.51491600  1
  C  631  1  0.11610500  0.00725700  0.53216000  1
  C  632  1  0.09550300  0.00740300  0.53248600  1
  C  633  1  0.14759200  0.01183100  0.51462200  1
  C  634  1  0.15824700  0.02720300  0.50571900  1
  C  635  1  0.17885400  0.02717500  0.50541200  1
  C  636  1  0.18959500  0.01169800  0.51396000  1
  C  637  1  0.17904800  0.99620000  0.52257800  1
  C  638  1  0.15844300  0.99634000  0.52307400  1
  C  639  1  0.01252700  0.08469300  0.51595400  1
  C  640  1  0.01680000  0.09530600  0.53315900  1
  C  641  1  0.01703900  0.11590900  0.53304800  1
  C  642  1  0.01275000  0.12662900  0.51584300  1
  C  643  1  0.00836400  0.11586500  0.49869100  1
  C  644  1  0.00838800  0.09526100  0.49869000  1
  C  645  1  0.01278400  0.14759700  0.51579800  1
  C  646  1  0.99744900  0.15834400  0.50694100  1
  C  647  1  0.99737100  0.17895300  0.50706700  1
  C  648  1  0.01279500  0.18960200  0.51569100  1
  C  649  1  0.02811500  0.17896900  0.52464700  1
  C  650  1  0.02806900  0.15835800  0.52472500  1
  C  651  1  0.93980900  0.01271400  0.51639400  1
  C  652  1  0.92921300  0.01766000  0.53343900  1
  C  653  1  0.92918500  0.00824500  0.49924400  1
  C  654  1  0.90858200  0.00857900  0.49919900  1
  C  655  1  0.89785400  0.01371600  0.51616600  1
  C  656  1  0.90861400  0.01829500  0.53326700  1
  C  657  1  0.87688800  0.01427800  0.51601300  1
  C  658  1  0.86645200  0.03026000  0.52408300  1
  C  659  1  0.84584200  0.03092300  0.52363100  1
  C  660  1  0.83490000  0.01539800  0.51558000  1
  C  661  1  0.84522300  0.99946300  0.50737400  1
  C  662  1  0.86582100  0.99894000  0.50757000  1
  C  709  1  0.00863700  0.51319100  0.28232400  1
  C  711  1  0.03279700  0.51614700  0.25701300  1
  C  712  1  0.01861200  0.51276600  0.24240100  1
  C  714  1  0.99426000  0.50950700  0.26773200  1
  C  716  1  0.97339100  0.50525600  0.27194100  1
  C  721  1  0.00453000  0.51450800  0.30219500  1
  C  723  1  0.02330500  0.51245400  0.22265000  1
  C  725  1  0.01331400  0.50964400  0.74232900  1
  C  727  1  0.99247100  0.51995100  0.76853300  1
  C  728  1  0.00715900  0.51589900  0.78245800  1
  C  730  1  0.02841000  0.50559900  0.75606400  1
  C  732  1  0.04838800  0.49813700  0.75183500  1
  C  737  1  0.01362700  0.50458900  0.72282600  1
  C  739  1  0.00368400  0.51766500  0.80241600  1
  C  741  1  0.28223800  0.00882900  0.51316900  1
  C  743  1  0.25696600  0.03302500  0.51616300  1
  C  744  1  0.24233000  0.01886200  0.51279500  1
  C  746  1  0.26762100  0.99447400  0.50950300  1
  C  748  1  0.27179500  0.97359700  0.50524800  1
  C  753  1  0.30210700  0.00470300  0.51445100  1
  C  755  1  0.22258800  0.02358900  0.51251700  1
  C  757  1  0.74223700  0.01325800  0.50967100  1
  C  759  1  0.76840000  0.99239800  0.52004800  1
  C  760  1  0.78235300  0.00705200  0.51596900  1
  C  762  1  0.75600100  0.02832100  0.50559800  1
  C  764  1  0.75181300  0.04829500  0.49810100  1
  C  769  1  0.72273400  0.01360100  0.50461100  1
  C  771  1  0.80230300  0.00355500  0.51777000  1
  C  773  1  0.51315300  0.28225200  0.00872000  1
  C  775  1  0.51610600  0.25692800  0.03286700  1
  C  776  1  0.51273500  0.24232500  0.01867200  1
  C  778  1  0.50948100  0.26766800  0.99433300  1
  C  780  1  0.50524000  0.27188700  0.97346200  1
  C  785  1  0.51445700  0.30212800  0.00463000  1
  C  787  1  0.51242500  0.22257100  0.02335300  1
  C  789  1  0.50962500  0.74225900  0.01329900  1
  C  791  1  0.51992900  0.76845700  0.99244600  1
  C  792  1  0.51587400  0.78238800  0.00712700  1
  C  794  1  0.50557700  0.75600100  0.02838800  1
  C  796  1  0.49812400  0.75178000  0.04837200  1
  C  801  1  0.50457400  0.72275500  0.01362500  1
  C  803  1  0.51763800  0.80234500  0.00364600  1
  C  805  1  0.51327600  0.00861800  0.74211100  1
  C  807  1  0.51615900  0.03277600  0.76743400  1
  C  808  1  0.51281000  0.01857900  0.78204300  1
  C  810  1  0.50962300  0.99422800  0.75669900  1
  C  812  1  0.50542400  0.97335100  0.75247600  1
  C  817  1  0.51461100  0.00452000  0.72223700  1
  C  819  1  0.51246600  0.02327400  0.80179700  1
  C  821  1  0.50958700  0.01332000  0.28210300  1
  C  823  1  0.51999200  0.99254200  0.25588900  1
  C  824  1  0.51593400  0.00724700  0.24198300  1
  C  826  1  0.50553600  0.02843100  0.26838700  1
  C  828  1  0.49801900  0.04838400  0.27263400  1
  C  833  1  0.50451300  0.01359400  0.30159800  1
  C  835  1  0.51773900  0.00381300  0.22202500  1
  C  837  1  0.01004600  0.28221100  0.51448100  1
  C  839  1  0.03420100  0.25685700  0.51188400  1
  C  840  1  0.02007300  0.24232500  0.51580200  1
  C  842  1  0.99573400  0.26770700  0.51871400  1
  C  844  1  0.97491500  0.27200700  0.52312200  1
  C  849  1  0.00589100  0.30203600  0.51269800  1
  C  851  1  0.02477700  0.22258700  0.51653300  1
  C  853  1  0.01217200  0.74218400  0.51797800  1
  C  855  1  0.99195900  0.76860000  0.50696000  1
  C  856  1  0.00624400  0.78245400  0.51244100  1
  C  858  1  0.02685900  0.75585900  0.52347800  1
  C  860  1  0.04628900  0.75151600  0.53221700  1
  C  865  1  0.01224800  0.72255900  0.52255600  1
  C  867  1  0.00279400  0.80244500  0.51107900  1
  C  869  1  0.28210600  0.50959200  0.01332500  1
  C  871  1  0.25588900  0.51999500  0.99255000  1
  C  872  1  0.24198400  0.51593700  0.00725500  1
  C  874  1  0.26839100  0.50553900  0.02843700  1
  C  876  1  0.27264100  0.49802200  0.04839000  1
  C  881  1  0.30160100  0.50451900  0.01359700  1
  C  883  1  0.22202700  0.51774100  0.00382400  1
  C  885  1  0.74211300  0.51327700  0.00862500  1
  C  887  1  0.76743200  0.51616000  0.03278500  1
  C  888  1  0.78204300  0.51281400  0.01858900  1
  C  890  1  0.75670100  0.50962700  0.99423500  1
  C  892  1  0.75248200  0.50542800  0.97335700  1
  C  897  1  0.72223900  0.51460800  0.00452500  1
  C  899  1  0.80179700  0.51247300  0.02328700  1
  C  901  1  0.11871600  0.56358300  0.60807300  1
  C  902  1  0.11856900  0.57771700  0.59364900  1
  C  903  1  0.11856500  0.59607500  0.60262100  1
  C  905  1  0.11878100  0.57292800  0.62624400  1
  C  906  1  0.11902400  0.56320200  0.64466400  1
  C  907  1  0.11919000  0.57284200  0.66308400  1
  C  909  1  0.11929100  0.59628600  0.68609300  1
  C  910  1  0.11976700  0.57816300  0.69550300  1
  C  911  1  0.11962600  0.56375600  0.68136500  1
  C  912  1  0.11929700  0.61489800  0.69538000  1
  C  913  1  0.11914200  0.63310800  0.68522800  1
  C  915  1  0.11887700  0.65628200  0.66157800  1
  C  916  1  0.11899700  0.66560500  0.67975900  1
  C  917  1  0.11900300  0.65147600  0.69417800  1
  C  918  1  0.11873500  0.66606200  0.64316300  1
  C  919  1  0.11858300  0.65639700  0.62474700  1
  C  921  1  0.11839300  0.63291100  0.60178100  1
  C  922  1  0.11804100  0.65100300  0.59232200  1
  C  923  1  0.11807200  0.66543500  0.60643700  1
  C  924  1  0.11842500  0.61429600  0.59252200  1
  C  925  1  0.11842300  0.61392700  0.57161300  1
  C  926  1  0.10071500  0.61456000  0.56102400  1
  C  927  1  0.10079000  0.61438500  0.54042200  1
  C  928  1  0.11850000  0.61354000  0.52966200  1
  C  929  1  0.13616800  0.61284800  0.54049500  1
  C  930  1  0.13616600  0.61307100  0.56109600  1
  C  931  1  0.11854200  0.61348100  0.50864000  1
  C  932  1  0.13150700  0.60142300  0.49785600  1
  C  933  1  0.13160500  0.60147400  0.47724300  1
  C  934  1  0.11861400  0.61342300  0.46657400  1
  C  935  1  0.10576900  0.62566800  0.47720200  1
  C  936  1  0.10571500  0.62563600  0.49780700  1
  C  937  1  0.11866500  0.68701100  0.64310200  1
  C  938  1  0.10134100  0.69754000  0.64704700  1
  C  939  1  0.10130500  0.71814200  0.64703900  1
  C  940  1  0.11848700  0.72897100  0.64289000  1
  C  941  1  0.13575700  0.71826300  0.63881400  1
  C  942  1  0.13589200  0.69765700  0.63901100  1
  C  943  1  0.11837200  0.74996300  0.64282800  1
  C  944  1  0.10863600  0.76068600  0.65763600  1
  C  945  1  0.10829300  0.78128700  0.65750200  1
  C  946  1  0.11769600  0.79202800  0.64251500  1
  C  947  1  0.12727400  0.78141400  0.62763400  1
  C  948  1  0.12775700  0.76079900  0.62786300  1
  C  949  1  0.11938700  0.61527200  0.71632500  1
  C  950  1  0.13668500  0.61948700  0.72680600  1
  C  951  1  0.13666300  0.62001300  0.74741000  1
  C  952  1  0.11945000  0.61612000  0.75827300  1
  C  953  1  0.10221000  0.61179000  0.74761300  1
  C  954  1  0.10212800  0.61146800  0.72701500  1
  C  955  1  0.11942200  0.61659700  0.77925800  1
  C  956  1  0.10974900  0.60199600  0.79032100  1
  C  957  1  0.10943300  0.60259000  0.81091300  1
  C  958  1  0.11879400  0.61785100  0.82129600  1
  C  959  1  0.12831900  0.63251900  0.81034600  1
  C  960  1  0.12878400  0.63182500  0.78974100  1
  C  961  1  0.11920400  0.54229000  0.64473200  1
  C  962  1  0.13702100  0.53189200  0.64552300  1
  C  963  1  0.10156300  0.53158200  0.64424900  1
  C  964  1  0.10176900  0.51098300  0.64456300  1
  C  965  1  0.11955000  0.50034300  0.64543000  1
  C  966  1  0.13715400  0.51129300  0.64588200  1
  C  967  1  0.11971000  0.47932600  0.64587200  1
  C  968  1  0.13278500  0.46884700  0.65808100  1
  C  969  1  0.13295300  0.44823900  0.65847700  1
  C  970  1  0.11991800  0.43727100  0.64685000  1
  C  971  1  0.10696400  0.44759000  0.63445500  1
  C  972  1  0.10684300  0.46819000  0.63403700  1
  C  1019  1  0.57871700  0.11971700  0.59268400  1
  C  1020  1  0.56430700  0.11944200  0.60682300  1
  C  1021  1  0.57329200  0.11882500  0.62516000  1
  C  1023  1  0.59690600  0.11911200  0.60198100  1
  C  1024  1  0.61532100  0.11926000  0.59220800  1
  C  1025  1  0.63374000  0.11925500  0.60188000  1
  C  1027  1  0.65674500  0.11923700  0.62535600  1
  C  1028  1  0.66617100  0.11946700  0.60724400  1
  C  1029  1  0.65204500  0.11932100  0.59282600  1
  C  1030  1  0.66603900  0.11913500  0.64396700  1
  C  1031  1  0.65588900  0.11885900  0.66217300  1
  C  1033  1  0.63224000  0.11855100  0.68531000  1
  C  1034  1  0.65039400  0.11795500  0.69465800  1
  C  1035  1  0.66482300  0.11804700  0.68053700  1
  C  1036  1  0.61382600  0.11854300  0.69505700  1
  C  1037  1  0.59540400  0.11855300  0.68543400  1
  C  1039  1  0.57243100  0.11845200  0.66199000  1
  C  1040  1  0.56298400  0.11837600  0.68009600  1
  C  1041  1  0.57711400  0.11842800  0.69451600  1
  C  1042  1  0.56318100  0.11856900  0.64337600  1
  C  1043  1  0.54227200  0.11862300  0.64302300  1
  C  1044  1  0.53167600  0.10091700  0.64357700  1
  C  1045  1  0.51107400  0.10100200  0.64344500  1
  C  1046  1  0.50032400  0.11872200  0.64273000  1
  C  1047  1  0.51116300  0.13639000  0.64213800  1
  C  1048  1  0.53176500  0.13637800  0.64230900  1
  C  1049  1  0.47930500  0.11876600  0.64269700  1
  C  1050  1  0.46851000  0.13178200  0.63070300  1
  C  1051  1  0.44790000  0.13186500  0.63075800  1
  C  1052  1  0.43724300  0.11880600  0.64264500  1
  C  1053  1  0.44788100  0.10591600  0.65483400  1
  C  1054  1  0.46848500  0.10588500  0.65480600  1
  C  1055  1  0.61377400  0.11851600  0.71596900  1
  C  1056  1  0.61442100  0.10079400  0.72653700  1
  C  1057  1  0.61435100  0.10085100  0.74714100  1
  C  1058  1  0.61357200  0.11855300  0.75792000  1
  C  1059  1  0.61289500  0.13623400  0.74710700  1
  C  1060  1  0.61301400  0.13625000  0.72650500  1
  C  1061  1  0.61352800  0.11857600  0.77894000  1
  C  1062  1  0.62568100  0.10573300  0.78975700  1
  C  1063  1  0.62570900  0.10575900  0.81036200  1
  C  1064  1  0.61347400  0.11859900  0.82100800  1
  C  1065  1  0.60153400  0.13161100  0.81035400  1
  C  1066  1  0.60147400  0.13153100  0.78974200  1
  C  1067  1  0.68698400  0.11916700  0.64437300  1
  C  1068  1  0.69746500  0.13640400  0.64883100  1
  C  1069  1  0.71806600  0.13636900  0.64940300  1
  C  1070  1  0.72893100  0.11919400  0.64535100  1
  C  1071  1  0.71827200  0.10200600  0.64081400  1
  C  1072  1  0.69767400  0.10193900  0.64043300  1
  C  1073  1  0.74991800  0.11916500  0.64586000  1
  C  1074  1  0.76100200  0.10964200  0.63117800  1
  C  1075  1  0.78159400  0.10935100  0.63178000  1
  C  1076  1  0.79195500  0.11857700  0.64713700  1
  C  1077  1  0.78098300  0.12794700  0.66188800  1
  C  1078  1  0.76037800  0.12838100  0.66119000  1
  C  1079  1  0.61537200  0.11942700  0.57125900  1
  C  1080  1  0.61944600  0.13675500  0.56077100  1
  C  1081  1  0.61155600  0.10216900  0.56057200  1
  C  1082  1  0.61177200  0.10227100  0.53997300  1
  C  1083  1  0.61600000  0.11953200  0.52930500  1
  C  1084  1  0.61985800  0.13675600  0.54016600  1
  C  1085  1  0.61647000  0.11950500  0.50831900  1
  C  1086  1  0.63164900  0.12894200  0.49783500  1
  C  1087  1  0.63234800  0.12847700  0.47723200  1
  C  1088  1  0.61773900  0.11886300  0.46628300  1
  C  1089  1  0.60253300  0.10941300  0.47666700  1
  C  1090  1  0.60193200  0.10973700  0.49725900  1
  C  1137  1  0.56344400  0.57873300  0.14896700  1
  C  1138  1  0.57758400  0.56432300  0.14871400  1
  C  1139  1  0.59592200  0.57330700  0.14808100  1
  C  1141  1  0.57274200  0.59692200  0.14836300  1
  C  1142  1  0.56297100  0.61533700  0.14850200  1
  C  1143  1  0.57264300  0.63375600  0.14849500  1
  C  1145  1  0.59611900  0.65676100  0.14847800  1
  C  1146  1  0.57800500  0.66618800  0.14870800  1
  C  1147  1  0.56358900  0.65206100  0.14855100  1
  C  1148  1  0.61473000  0.66605500  0.14837900  1
  C  1149  1  0.63293400  0.65590500  0.14809900  1
  C  1151  1  0.65607100  0.63225400  0.14779000  1
  C  1152  1  0.66541900  0.65040900  0.14721100  1
  C  1153  1  0.65129800  0.66483700  0.14729400  1
  C  1154  1  0.66581700  0.61384000  0.14777900  1
  C  1155  1  0.65619400  0.59541700  0.14778200  1
  C  1157  1  0.63275000  0.57244400  0.14768900  1
  C  1158  1  0.65085600  0.56299800  0.14760500  1
  C  1159  1  0.66527600  0.57712800  0.14765500  1
  C  1160  1  0.61413600  0.56319400  0.14781500  1
  C  1161  1  0.61378300  0.54228500  0.14786300  1
  C  1162  1  0.61435100  0.53169300  0.13015400  1
  C  1163  1  0.61422400  0.51109300  0.13023200  1
  C  1164  1  0.61349000  0.50033600  0.14794700  1
  C  1165  1  0.61288200  0.51116900  0.16561800  1
  C  1166  1  0.61305500  0.53177100  0.16561400  1
  C  1167  1  0.61345500  0.47931600  0.14798200  1
  C  1168  1  0.60145100  0.46851500  0.16098300  1
  C  1169  1  0.60150100  0.44790200  0.16105100  1
  C  1170  1  0.61340500  0.43725200  0.14800400  1
  C  1171  1  0.62560500  0.44789700  0.13513100  1
  C  1172  1  0.62557200  0.46850200  0.13510300  1
  C  1173  1  0.68672900  0.61378800  0.14775400  1
  C  1174  1  0.69729900  0.61443900  0.13003400  1
  C  1175  1  0.71790200  0.61437300  0.13009300  1
  C  1176  1  0.72868000  0.61358700  0.14779500  1
  C  1177  1  0.71786600  0.61290400  0.16547400  1
  C  1178  1  0.69726400  0.61302700  0.16548900  1
  C  1179  1  0.74970100  0.61354100  0.14781900  1
  C  1180  1  0.76052000  0.62569200  0.13497600  1
  C  1181  1  0.78112500  0.62571800  0.13500400  1
  C  1182  1  0.79176800  0.61348000  0.14784300  1
  C  1183  1  0.78111300  0.60154000  0.16085400  1
  C  1184  1  0.76050100  0.60148900  0.16077700  1
  C  1185  1  0.61513600  0.68700100  0.14841600  1
  C  1186  1  0.61957900  0.69747700  0.16565900  1
  C  1187  1  0.62015100  0.71807700  0.16563000  1
  C  1188  1  0.61610900  0.72895000  0.14845600  1
  C  1189  1  0.61159800  0.71829400  0.13125800  1
  C  1190  1  0.61121200  0.69769500  0.13118600  1
  C  1191  1  0.61660600  0.74993700  0.14843700  1
  C  1192  1  0.60193300  0.76101800  0.13889500  1
  C  1193  1  0.60252300  0.78161100  0.13861800  1
  C  1194  1  0.61785600  0.79197800  0.14788000  1
  C  1195  1  0.63260200  0.78100800  0.15725800  1
  C  1196  1  0.63191200  0.76040300  0.15768700  1
  C  1197  1  0.54202200  0.61538800  0.14866800  1
  C  1198  1  0.53153300  0.61946400  0.16599500  1
  C  1199  1  0.53133500  0.61157200  0.13141000  1
  C  1200  1  0.51073500  0.61178700  0.13151200  1
  C  1201  1  0.50006800  0.61601800  0.14877300  1
  C  1202  1  0.51092800  0.61987700  0.16599700  1
  C  1203  1  0.47908200  0.61648300  0.14874700  1
  C  1204  1  0.46859500  0.63166100  0.15818600  1
  C  1205  1  0.44799200  0.63236000  0.15771800  1
  C  1206  1  0.43704600  0.61774700  0.14810700  1
  C  1207  1  0.44743000  0.60254200  0.13865800  1
  C  1208  1  0.46802300  0.60194200  0.13898300  1
  C  1255  1  0.61838800  0.06360440  0.10791600  1
  C  1256  1  0.61805300  0.07772640  0.09349260  1
  C  1257  1  0.61808400  0.09609940  0.10243000  1
  C  1259  1  0.61833500  0.07292440  0.12609900  1
  C  1260  1  0.61851200  0.06314440  0.14452100  1
  C  1261  1  0.61856600  0.07285540  0.16292900  1
  C  1263  1  0.61849000  0.09635940  0.18592400  1
  C  1264  1  0.61866600  0.07825240  0.19536100  1
  C  1265  1  0.61852700  0.06382740  0.18124900  1
  C  1266  1  0.61843500  0.11497100  0.19522400  1
  C  1267  1  0.61829100  0.13317000  0.18505000  1
  C  1269  1  0.61798400  0.15632000  0.16138400  1
  C  1270  1  0.61797800  0.16565800  0.17955700  1
  C  1271  1  0.61798900  0.15154600  0.19398200  1
  C  1272  1  0.61786700  0.16609100  0.14296800  1
  C  1273  1  0.61788000  0.15640700  0.12455800  1
  C  1275  1  0.61781200  0.13292100  0.10156400  1
  C  1276  1  0.61776200  0.15103900  0.09213560  1
  C  1277  1  0.61764400  0.16545800  0.10625400  1
  C  1278  1  0.61785300  0.11430700  0.09226560  1
  C  1279  1  0.61758200  0.11395500  0.07130860  1
  C  1280  1  0.60024200  0.11815000  0.06088360  1
  C  1281  1  0.60006500  0.11819200  0.04028160  1
  C  1282  1  0.61711300  0.11379400  0.02935560  1
  C  1283  1  0.63439000  0.10943000  0.03992860  1
  C  1284  1  0.63468000  0.10964700  0.06053560  1
  C  1285  1  0.61688000  0.11378800  0.00838264  1
  C  1286  1  0.62558600  0.09844440  0.99752600  1
  C  1287  1  0.62514100  0.09832440  0.97691700  1
  C  1288  1  0.61631300  0.11370200  0.96636600  1
  C  1289  1  0.60753900  0.12904800  0.97711200  1
  C  1290  1  0.60778700  0.12904700  0.99772100  1
  C  1291  1  0.61761100  0.18704300  0.14291900  1
  C  1292  1  0.60027100  0.19742000  0.14722100  1
  C  1293  1  0.60007500  0.21802000  0.14735600  1
  C  1294  1  0.61709500  0.22897700  0.14293300  1
  C  1295  1  0.63437400  0.21844900  0.13847000  1
  C  1296  1  0.63468600  0.19784700  0.13860000  1
  C  1297  1  0.61683200  0.24994300  0.14296400  1
  C  1298  1  0.60780800  0.26056200  0.15829000  1
  C  1299  1  0.60753700  0.28116900  0.15832700  1
  C  1300  1  0.61623300  0.29194500  0.14295800  1
  C  1301  1  0.62497500  0.28143500  0.12750500  1
  C  1302  1  0.62543700  0.26082800  0.12758300  1
  C  1303  1  0.61840500  0.11539000  0.21618600  1
  C  1304  1  0.63547700  0.12032000  0.22673800  1
  C  1305  1  0.63532000  0.12103700  0.24733500  1
  C  1306  1  0.61821400  0.11653800  0.25811800  1
  C  1307  1  0.60120700  0.11146200  0.24742800  1
  C  1308  1  0.60123600  0.11104600  0.22683000  1
  C  1309  1  0.61811100  0.11705500  0.27907900  1
  C  1310  1  0.60968200  0.10169300  0.29012400  1
  C  1311  1  0.60952800  0.10217200  0.31072000  1
  C  1312  1  0.61778000  0.11807300  0.32105600  1
  C  1313  1  0.62583900  0.13361100  0.31013800  1
  C  1314  1  0.62624000  0.13299700  0.28952600  1
  C  1315  1  0.61853000  0.04217140  0.14462000  1
  C  1316  1  0.63563200  0.03157640  0.14936200  1
  C  1317  1  0.60134000  0.03154740  0.14030300  1
  C  1318  1  0.60130500  0.01094240  0.14060600  1
  C  1319  1  0.61833400  0.00021439  0.14553600  1
  C  1320  1  0.63547700  0.01097640  0.14995400  1
  C  1321  1  0.61820400  0.97924800  0.14605700  1
  C  1322  1  0.62643300  0.96879500  0.16194500  1
  C  1323  1  0.62600900  0.94818500  0.16258100  1
  C  1324  1  0.61782100  0.93726100  0.14711500  1
  C  1325  1  0.60945500  0.94759800  0.13127400  1
  C  1326  1  0.60963100  0.96819900  0.13077900  1
  C  1373  1  0.07868140  0.61840100  0.09290160  1
  C  1374  1  0.06425640  0.61806300  0.10702300  1
  C  1375  1  0.07319340  0.61808700  0.12539700  1
  C  1377  1  0.09686340  0.61834200  0.10222300  1
  C  1378  1  0.11528500  0.61851100  0.09244560  1
  C  1379  1  0.13369300  0.61855100  0.10215600  1
  C  1381  1  0.15668700  0.61847800  0.12566000  1
  C  1382  1  0.16612500  0.61864800  0.10755400  1
  C  1383  1  0.15201300  0.61851500  0.09312860  1
  C  1384  1  0.16598600  0.61843300  0.14427300  1
  C  1385  1  0.15581100  0.61829400  0.16247200  1
  C  1387  1  0.13214500  0.61798700  0.18562200  1
  C  1388  1  0.15031800  0.61798900  0.19496000  1
  C  1389  1  0.16474300  0.61799700  0.18084800  1
  C  1390  1  0.11372800  0.61786900  0.19539300  1
  C  1391  1  0.09531840  0.61788300  0.18570800  1
  C  1393  1  0.07232740  0.61780600  0.16222000  1
  C  1394  1  0.06289740  0.61775600  0.18033700  1
  C  1395  1  0.07701640  0.61763500  0.19475700  1
  C  1396  1  0.06302940  0.61785100  0.14360600  1
  C  1397  1  0.04207040  0.61758100  0.14325100  1
  C  1398  1  0.03164540  0.60024000  0.14743900  1
  C  1399  1  0.01104340  0.60006200  0.14747100  1
  C  1400  1  0.00011939  0.61711000  0.14307200  1
  C  1401  1  0.01069240  0.63438700  0.13870800  1
  C  1402  1  0.03129940  0.63468000  0.13894400  1
  C  1403  1  0.97914400  0.61687600  0.14305800  1
  C  1404  1  0.96829400  0.62558900  0.12771300  1
  C  1405  1  0.94768500  0.62514200  0.12758700  1
  C  1406  1  0.93712800  0.61631500  0.14296100  1
  C  1407  1  0.94786900  0.60752800  0.15830400  1
  C  1408  1  0.96847800  0.60778000  0.15831100  1
  C  1409  1  0.11367900  0.61761900  0.21634600  1
  C  1410  1  0.11799200  0.60028400  0.22673000  1
  C  1411  1  0.11813000  0.60009400  0.24733000  1
  C  1412  1  0.11369000  0.61711400  0.25828200  1
  C  1413  1  0.10922700  0.63438900  0.24774800  1
  C  1414  1  0.10934800  0.63469300  0.22714500  1
  C  1415  1  0.11371400  0.61685700  0.27925000  1
  C  1416  1  0.12903900  0.60784100  0.28987700  1
  C  1417  1  0.12906700  0.60757200  0.31048500  1
  C  1418  1  0.11369200  0.61626600  0.32125300  1
  C  1419  1  0.09823940  0.62500000  0.31073500  1
  C  1420  1  0.09833240  0.62546900  0.29012800  1
  C  1421  1  0.18694800  0.61840200  0.14469100  1
  C  1422  1  0.19750100  0.63547500  0.14961600  1
  C  1423  1  0.21809800  0.63532000  0.15032200  1
  C  1424  1  0.22888100  0.61821500  0.14582000  1
  C  1425  1  0.21819100  0.60120700  0.14074500  1
  C  1426  1  0.19759200  0.60123500  0.14034300  1
  C  1427  1  0.24984200  0.61811600  0.14632800  1
  C  1428  1  0.26088100  0.60968500  0.13096400  1
  C  1429  1  0.28147900  0.60953700  0.13143200  1
  C  1430  1  0.29181900  0.61778500  0.14733300  1
  C  1431  1  0.28090500  0.62584500  0.16287300  1
  C  1432  1  0.26029500  0.62624700  0.16226500  1
  C  1433  1  0.11538600  0.61853100  0.07147260  1
  C  1434  1  0.12012700  0.63563300  0.06088160  1
  C  1435  1  0.11107500  0.60134000  0.06084760  1
  C  1436  1  0.11137600  0.60130800  0.04024360  1
  C  1437  1  0.11631100  0.61833700  0.02951860  1
  C  1438  1  0.12072700  0.63547800  0.04027960  1
  C  1439  1  0.11683900  0.61820600  0.00855264  1
  C  1440  1  0.13273000  0.62643900  0.99810700  1
  C  1441  1  0.13337400  0.62601300  0.97749600  1
  C  1442  1  0.11791300  0.61782500  0.96656700  1
  C  1443  1  0.10206600  0.60946000  0.97689800  1
  C  1444  1  0.10156800  0.60962800  0.99749900  1
  C  1491  1  0.06381740  0.07845440  0.64801200  1
  C  1492  1  0.07802940  0.06411740  0.64758800  1
  C  1493  1  0.09634340  0.07316940  0.64739400  1
  C  1495  1  0.07301740  0.09669640  0.64778600  1
  C  1496  1  0.06312140  0.11505800  0.64791700  1
  C  1497  1  0.07271640  0.13352500  0.64781900  1
  C  1499  1  0.09607140  0.15665900  0.64762200  1
  C  1500  1  0.07790740  0.16598800  0.64762500  1
  C  1501  1  0.06357340  0.15178800  0.64757800  1
  C  1502  1  0.11462000  0.16607700  0.64761000  1
  C  1503  1  0.13289200  0.15604100  0.64766600  1
  C  1505  1  0.15619600  0.13253300  0.64746000  1
  C  1506  1  0.16541500  0.15076600  0.64772700  1
  C  1507  1  0.15120600  0.16510100  0.64766600  1
  C  1508  1  0.16607700  0.11417700  0.64726200  1
  C  1509  1  0.15650200  0.09571040  0.64713400  1
  C  1511  1  0.13316600  0.07256140  0.64694500  1
  C  1512  1  0.15134900  0.06325740  0.64677400  1
  C  1513  1  0.16567200  0.07747040  0.64672600  1
  C  1514  1  0.11461900  0.06312740  0.64699600  1
  C  1515  1  0.11444300  0.04215940  0.64664800  1
  C  1516  1  0.11881200  0.03181640  0.62929800  1
  C  1517  1  0.11936000  0.01121640  0.62913400  1
  C  1518  1  0.11529100  0.00020839  0.64620500  1
  C  1519  1  0.11070900  0.01068940  0.66348400  1
  C  1520  1  0.11044300  0.03129640  0.66376200  1
  C  1521  1  0.11585900  0.97924200  0.64601800  1
  C  1522  1  0.10078300  0.96802200  0.65472700  1
  C  1523  1  0.10130900  0.94742100  0.65453300  1
  C  1524  1  0.11700100  0.93726500  0.64568200  1
  C  1525  1  0.13228200  0.94835000  0.63736800  1
  C  1526  1  0.13160300  0.96896200  0.63730600  1
  C  1527  1  0.18703000  0.11424700  0.64704000  1
  C  1528  1  0.19740100  0.11872600  0.62974200  1
  C  1529  1  0.21800100  0.11883400  0.62953200  1
  C  1530  1  0.22896400  0.11420500  0.64649300  1
  C  1531  1  0.21844200  0.10959400  0.66373700  1
  C  1532  1  0.19784000  0.10974000  0.66406300  1
  C  1533  1  0.24992900  0.11416800  0.64619900  1
  C  1534  1  0.26058400  0.12954000  0.63729600  1
  C  1535  1  0.28119100  0.12951200  0.63698900  1
  C  1536  1  0.29193200  0.11403500  0.64553700  1
  C  1537  1  0.28138500  0.09853740  0.65415500  1
  C  1538  1  0.26078000  0.09867740  0.65465100  1
  C  1539  1  0.11486400  0.18703000  0.64753100  1
  C  1540  1  0.11913700  0.19764300  0.66473600  1
  C  1541  1  0.11937600  0.21824600  0.66462500  1
  C  1542  1  0.11508700  0.22896600  0.64742000  1
  C  1543  1  0.11070100  0.21820200  0.63026800  1
  C  1544  1  0.11072500  0.19759800  0.63026700  1
  C  1545  1  0.11512100  0.24993400  0.64737500  1
  C  1546  1  0.09978640  0.26068100  0.63851800  1
  C  1547  1  0.09970840  0.28129000  0.63864400  1
  C  1548  1  0.11513200  0.29193900  0.64726800  1
  C  1549  1  0.13045200  0.28130600  0.65622400  1
  C  1550  1  0.13040600  0.26069500  0.65630200  1
  C  1551  1  0.04214640  0.11505100  0.64797100  1
  C  1552  1  0.03155040  0.11999700  0.66501600  1
  C  1553  1  0.03152240  0.11058200  0.63082100  1
  C  1554  1  0.01091940  0.11091600  0.63077600  1
  C  1555  1  0.00019139  0.11605300  0.64774300  1
  C  1556  1  0.01095140  0.12063200  0.66484400  1
  C  1557  1  0.97922500  0.11661500  0.64759000  1
  C  1558  1  0.96878900  0.13259700  0.65566000  1
  C  1559  1  0.94817900  0.13326000  0.65520800  1
  C  1560  1  0.93723700  0.11773500  0.64715700  1
  C  1561  1  0.94756000  0.10180000  0.63895100  1
  C  1562  1  0.96815800  0.10127700  0.63914700  1
  C  1609  1  0.11097400  0.61552800  0.41390100  1
  C  1611  1  0.13513400  0.61848400  0.38859000  1
  C  1612  1  0.12094900  0.61510300  0.37397800  1
  C  1614  1  0.09659740  0.61184400  0.39930900  1
  C  1616  1  0.07572840  0.60759300  0.40351800  1
  C  1621  1  0.10686700  0.61684500  0.43377200  1
  C  1623  1  0.12564200  0.61479100  0.35422700  1
  C  1625  1  0.11565100  0.61198100  0.87390600  1
  C  1627  1  0.09480840  0.62228800  0.90011000  1
  C  1628  1  0.10949600  0.61823600  0.91403500  1
  C  1630  1  0.13074700  0.60793600  0.88764100  1
  C  1632  1  0.15072500  0.60047400  0.88341200  1
  C  1637  1  0.11596400  0.60692600  0.85440300  1
  C  1639  1  0.10602100  0.62000200  0.93399300  1
  C  1641  1  0.38457500  0.11116600  0.64474600  1
  C  1643  1  0.35930300  0.13536200  0.64774000  1
  C  1644  1  0.34466700  0.12119900  0.64437200  1
  C  1646  1  0.36995800  0.09681140  0.64108000  1
  C  1648  1  0.37413200  0.07593440  0.63682500  1
  C  1653  1  0.40444400  0.10704000  0.64602800  1
  C  1655  1  0.32492500  0.12592600  0.64409400  1
  C  1657  1  0.84457400  0.11559500  0.64124800  1
  C  1659  1  0.87073700  0.09473540  0.65162500  1
  C  1660  1  0.88469000  0.10938900  0.64754600  1
  C  1662  1  0.85833800  0.13065800  0.63717500  1
  C  1664  1  0.85415000  0.15063200  0.62967800  1
  C  1669  1  0.82507100  0.11593800  0.63618800  1
  C  1671  1  0.90464000  0.10589200  0.64934700  1
  C  1673  1  0.61549000  0.38458900  0.14029700  1
  C  1675  1  0.61844300  0.35926500  0.16444400  1
  C  1676  1  0.61507200  0.34466200  0.15024900  1
  C  1678  1  0.61181800  0.37000500  0.12591000  1
  C  1680  1  0.60757700  0.37422400  0.10503900  1
  C  1685  1  0.61679400  0.40446500  0.13620700  1
  C  1687  1  0.61476200  0.32490800  0.15493000  1
  C  1689  1  0.61196200  0.84459600  0.14487600  1
  C  1691  1  0.62226600  0.87079400  0.12402300  1
  C  1692  1  0.61821100  0.88472500  0.13870400  1
  C  1694  1  0.60791400  0.85833800  0.15996500  1
  C  1696  1  0.60046100  0.85411700  0.17994900  1
  C  1701  1  0.60691100  0.82509200  0.14520200  1
  C  1703  1  0.61997500  0.90468200  0.13522300  1
  C  1705  1  0.61561300  0.11095500  0.87368800  1
  C  1707  1  0.61849600  0.13511300  0.89901100  1
  C  1708  1  0.61514700  0.12091600  0.91362000  1
  C  1710  1  0.61196000  0.09656540  0.88827600  1
  C  1712  1  0.60776100  0.07568840  0.88405300  1
  C  1717  1  0.61694800  0.10685700  0.85381400  1
  C  1719  1  0.61480300  0.12561100  0.93337400  1
  C  1721  1  0.61192400  0.11565700  0.41368000  1
  C  1723  1  0.62232900  0.09487940  0.38746600  1
  C  1724  1  0.61827100  0.10958400  0.37356000  1
  C  1726  1  0.60787300  0.13076800  0.39996400  1
  C  1728  1  0.60035600  0.15072100  0.40421100  1
  C  1733  1  0.60685000  0.11593100  0.43317500  1
  C  1735  1  0.62007600  0.10615000  0.35360200  1
  C  1737  1  0.11238300  0.38454800  0.64605800  1
  C  1739  1  0.13653800  0.35919400  0.64346100  1
  C  1740  1  0.12241000  0.34466200  0.64737900  1
  C  1742  1  0.09807140  0.37004400  0.65029100  1
  C  1744  1  0.07725240  0.37434400  0.65469900  1
  C  1749  1  0.10822800  0.40437300  0.64427500  1
  C  1751  1  0.12711400  0.32492400  0.64811000  1
  C  1753  1  0.11450900  0.84452100  0.64955500  1
  C  1755  1  0.09429640  0.87093700  0.63853700  1
  C  1756  1  0.10858100  0.88479100  0.64401800  1
  C  1758  1  0.12919600  0.85819600  0.65505500  1
  C  1760  1  0.14862600  0.85385300  0.66379400  1
  C  1765  1  0.11458500  0.82489600  0.65413300  1
  C  1767  1  0.10513100  0.90478200  0.64265600  1
  C  1769  1  0.38444300  0.61192900  0.14490200  1
  C  1771  1  0.35822600  0.62233200  0.12412700  1
  C  1772  1  0.34432100  0.61827400  0.13883200  1
  C  1774  1  0.37072800  0.60787600  0.16001400  1
  C  1776  1  0.37497800  0.60035900  0.17996700  1
  C  1781  1  0.40393800  0.60685600  0.14517400  1
  C  1783  1  0.32436400  0.62007800  0.13540100  1
  C  1785  1  0.84445000  0.61561400  0.14020200  1
  C  1787  1  0.86976900  0.61849700  0.16436200  1
  C  1788  1  0.88438000  0.61515100  0.15016600  1
  C  1790  1  0.85903800  0.61196400  0.12581200  1
  C  1792  1  0.85481900  0.60776500  0.10493400  1
  C  1797  1  0.82457600  0.61694500  0.13610200  1
  C  1799  1  0.90413400  0.61481000  0.15486400  1
  N  4  1  0.01632100  0.49000600  0.49054000  1
  N  8  1  0.01666000  0.48995500  0.53514000  1
  N  14  1  0.01667500  0.53452300  0.53414700  1
  N  20  1  0.01636400  0.53460200  0.48957300  1
  N  115  1  0.01732100  0.51063300  0.31546800  1
  N  116  1  0.01867300  0.31542400  0.51617900  1
  N  117  1  0.01610900  0.51734300  0.70921300  1
  N  118  1  0.01507800  0.70922900  0.50957600  1
  N  122  1  0.49044900  0.01625300  0.48982200  1
  N  126  1  0.53502700  0.01682000  0.48976000  1
  N  132  1  0.53405000  0.01675500  0.53432400  1
  N  138  1  0.48946600  0.01620900  0.53440700  1
  N  233  1  0.31537900  0.01750800  0.51062800  1
  N  234  1  0.51723900  0.01618100  0.31521500  1
  N  235  1  0.70911200  0.01590800  0.51738800  1
  N  236  1  0.51068500  0.01729400  0.70896300  1
  N  240  1  0.48982300  0.49046300  0.01626900  1
  N  244  1  0.48976300  0.53504300  0.01682300  1
  N  250  1  0.53432500  0.53406700  0.01674400  1
  N  256  1  0.53440700  0.48948100  0.01620700  1
  N  351  1  0.51061700  0.31538600  0.01744500  1
  N  352  1  0.31521800  0.51724700  0.01618500  1
  N  353  1  0.51734900  0.70913500  0.01596800  1
  N  354  1  0.70896300  0.51068700  0.01729700  1
  N  358  1  0.51588400  0.99001200  0.99036100  1
  N  362  1  0.51615000  0.98998100  0.03496600  1
  N  368  1  0.51590200  0.03456400  0.03396600  1
  N  374  1  0.51560000  0.03460900  0.98936700  1
  N  469  1  0.51387200  0.01017900  0.81526600  1
  N  470  1  0.51497600  0.81541200  0.01696000  1
  N  471  1  0.51494700  0.01712700  0.20898800  1
  N  472  1  0.51377200  0.20912600  0.01022900  1
  N  476  1  0.99036400  0.51588300  0.99007200  1
  N  480  1  0.03496900  0.51614000  0.99004200  1
  N  486  1  0.03396700  0.51590200  0.03462600  1
  N  492  1  0.98936800  0.51560000  0.03466900  1
  N  587  1  0.81526800  0.51387700  0.01019400  1
  N  588  1  0.01699700  0.51498400  0.81547800  1
  N  589  1  0.20899200  0.51495100  0.01714200  1
  N  590  1  0.01019000  0.51379900  0.20919700  1
  N  594  1  0.99012900  0.99031700  0.51592400  1
  N  598  1  0.98981900  0.03491800  0.51621600  1
  N  604  1  0.03441300  0.03422400  0.51594700  1
  N  610  1  0.03472800  0.98962900  0.51564300  1
  N  705  1  0.01608700  0.81541800  0.51423800  1
  N  706  1  0.81539000  0.01683700  0.51504800  1
  N  707  1  0.01165600  0.20911800  0.51544700  1
  N  708  1  0.20911000  0.01049400  0.51381000  1
  N  710  1  0.02728000  0.51635500  0.27608100  1
  N  713  1  0.00001700  0.50949400  0.24865200  1
  N  726  1  0.99600300  0.51642100  0.74934200  1
  N  729  1  0.02441400  0.50897900  0.77533700  1
  N  742  1  0.27602600  0.02748000  0.51634300  1
  N  745  1  0.24855000  0.00025900  0.50951400  1
  N  758  1  0.74921600  0.99595200  0.51649700  1
  N  761  1  0.77526400  0.02430200  0.50900300  1
  N  774  1  0.51631000  0.27599900  0.02736100  1
  N  777  1  0.50947200  0.24858500  0.00007900  1
  N  790  1  0.51640300  0.74926600  0.99598500  1
  N  793  1  0.50895400  0.77527300  0.02438400  1
  N  806  1  0.51638800  0.02726700  0.74836200  1
  N  809  1  0.50958700  0.99997900  0.77578300  1
  N  822  1  0.51641800  0.99603300  0.27507800  1
  N  825  1  0.50896200  0.02447400  0.24911700  1
  N  838  1  0.02865800  0.27590900  0.51125300  1
  N  841  1  0.00151300  0.24863900  0.51914000  1
  N  854  1  0.99534300  0.74932600  0.51018400  1
  N  857  1  0.02300000  0.77520300  0.52036900  1
  N  870  1  0.27507800  0.51642200  0.99603900  1
  N  873  1  0.24912100  0.50896300  0.02448200  1
  N  886  1  0.74836100  0.51638800  0.02727400  1
  N  889  1  0.77578600  0.50959300  0.99998800  1
  N  904  1  0.11865800  0.59234300  0.62211700  1
  N  908  1  0.11899700  0.59229200  0.66666667  1
  N  914  1  0.11901200  0.63686000  0.66572400  1
  N  920  1  0.11870100  0.63693900  0.62115000  1
  N  1015  1  0.11965800  0.61297000  0.44704500  1
  N  1016  1  0.12101000  0.41776100  0.64775600  1
  N  1017  1  0.11844600  0.61968000  0.84079000  1
  N  1018  1  0.11741500  0.81156600  0.64115300  1
  N  1022  1  0.59278600  0.11859000  0.62139900  1
  N  1026  1  0.63736400  0.11915700  0.62133700  1
  N  1032  1  0.63638700  0.11909200  0.66590100  1
  N  1038  1  0.59180300  0.11854600  0.66598400  1
  N  1133  1  0.41771600  0.11984500  0.64220500  1
  N  1134  1  0.61957600  0.11851800  0.44679200  1
  N  1135  1  0.81144900  0.11824500  0.64896500  1
  N  1136  1  0.61302200  0.11963100  0.84054000  1
  N  1140  1  0.59216000  0.59280000  0.14784600  1
  N  1144  1  0.59210000  0.63738000  0.14840000  1
  N  1150  1  0.63666200  0.63640400  0.14832100  1
  N  1156  1  0.63674400  0.59181800  0.14778400  1
  N  1251  1  0.61295400  0.41772300  0.14902200  1
  N  1252  1  0.41755500  0.61958400  0.14776200  1
  N  1253  1  0.61968600  0.81147200  0.14754500  1
  N  1254  1  0.81130000  0.61302400  0.14887400  1
  N  1258  1  0.61822100  0.09234940  0.12193800  1
  N  1262  1  0.61848700  0.09231840  0.16654300  1
  N  1268  1  0.61823900  0.13690100  0.16554300  1
  N  1274  1  0.61793700  0.13694600  0.12094400  1
  N  1369  1  0.61620900  0.11251600  0.94684300  1
  N  1370  1  0.61731300  0.91774900  0.14853700  1
  N  1371  1  0.61728400  0.11946400  0.34056500  1
  N  1372  1  0.61610900  0.31146300  0.14180600  1
  N  1376  1  0.09270140  0.61822000  0.12164900  1
  N  1380  1  0.13730600  0.61847700  0.12161900  1
  N  1386  1  0.13630400  0.61823900  0.16620300  1
  N  1392  1  0.09170540  0.61793700  0.16624600  1
  N  1487  1  0.91760500  0.61621400  0.14177100  1
  N  1488  1  0.11933400  0.61732100  0.94705500  1
  N  1489  1  0.31132900  0.61728800  0.14871900  1
  N  1490  1  0.11252700  0.61613600  0.34077400  1
  N  1494  1  0.09246640  0.09265440  0.64750100  1
  N  1498  1  0.09215640  0.13725500  0.64779300  1
  N  1504  1  0.13675000  0.13656100  0.64752400  1
  N  1510  1  0.13706500  0.09196640  0.64722000  1
  N  1605  1  0.11842400  0.91775500  0.64581500  1
  N  1606  1  0.91772700  0.11917400  0.64662500  1
  N  1607  1  0.11399300  0.31145500  0.64702400  1
  N  1608  1  0.31144700  0.11283100  0.64538700  1
  N  1610  1  0.12961700  0.61869200  0.40765800  1
  N  1613  1  0.10235400  0.61183100  0.38022900  1
  N  1626  1  0.09834040  0.61875800  0.88091900  1
  N  1629  1  0.12675100  0.61131600  0.90691400  1
  N  1642  1  0.37836300  0.12981700  0.64792000  1
  N  1645  1  0.35088700  0.10259600  0.64109100  1
  N  1658  1  0.85155300  0.09828940  0.64807400  1
  N  1661  1  0.87760100  0.12663900  0.64058000  1
  N  1674  1  0.61864700  0.37833600  0.15893800  1
  N  1677  1  0.61180900  0.35092200  0.13165600  1
  N  1690  1  0.61874000  0.85160300  0.12756200  1
  N  1693  1  0.61129100  0.87761000  0.15596100  1
  N  1706  1  0.61872500  0.12960400  0.87993900  1
  N  1709  1  0.61192400  0.10231600  0.90736000  1
  N  1722  1  0.61875500  0.09837040  0.40665500  1
  N  1725  1  0.61129900  0.12681100  0.38069400  1
  N  1738  1  0.13099500  0.37824600  0.64283000  1
  N  1741  1  0.10385000  0.35097600  0.65071700  1
  N  1754  1  0.09768040  0.85166300  0.64176100  1
  N  1757  1  0.12533700  0.87754000  0.65194600  1
  N  1770  1  0.37741500  0.61875900  0.12761600  1
  N  1773  1  0.35145800  0.61130000  0.15605900  1
  N  1786  1  0.85069800  0.61872500  0.15885100  1
  N  1789  1  0.87812300  0.61193000  0.13156500  1
  O  717  1  0.97107800  0.48833800  0.28407500  1
  O  733  1  0.05299200  0.49364200  0.73190800  1
  O  749  1  0.28389800  0.97126200  0.48831400  1
  O  765  1  0.73189300  0.05293800  0.49361000  1
  O  781  1  0.48831700  0.28401100  0.97114500  1
  O  797  1  0.49364800  0.73185400  0.05299500  1
  O  813  1  0.48852500  0.97100200  0.74032500  1
  O  829  1  0.49345800  0.05293800  0.29255800  1
  O  845  1  0.97280600  0.28456900  0.53975100  1
  O  861  1  0.05073900  0.73148700  0.53640400  1
  O  877  1  0.29256500  0.49346200  0.05294100  1
  O  893  1  0.74033200  0.48852800  0.97100600  1
  O  1617  1  0.07341540  0.59067500  0.41565200  1
  O  1633  1  0.15532900  0.59597900  0.86348500  1
  O  1649  1  0.38623500  0.07359940  0.61989100  1
  O  1665  1  0.83423000  0.15527500  0.62518700  1
  O  1681  1  0.59065400  0.38634800  0.10272200  1
  O  1697  1  0.59598500  0.83419100  0.18457200  1
  O  1713  1  0.59086200  0.07333940  0.87190200  1
  O  1729  1  0.59579500  0.15527500  0.42413500  1
  O  1745  1  0.07514340  0.38690600  0.67132800  1
  O  1761  1  0.15307600  0.83382400  0.66798100  1
  O  1777  1  0.39490200  0.59579900  0.18451800  1
  O  1793  1  0.84266900  0.59086500  0.10258300  1
