# generated using pymatgen
data_H5C7N2
_symmetry_space_group_name_H-M   'P 1'
_cell_length_a   55.75050000
_cell_length_b   55.75030000
_cell_length_c   63.73270000
_cell_angle_alpha   90.00110000
_cell_angle_beta   90.00000000
_cell_angle_gamma   90.00000000
_symmetry_Int_Tables_number   1
_chemical_formula_structural   H5C7N2
_chemical_formula_sum   'H480 C672 N192'
_cell_volume   198088.05734522
_cell_formula_units_Z   96
loop_
 _symmetry_equiv_pos_site_id
 _symmetry_equiv_pos_as_xyz
  1  'x, y, z'
loop_
 _atom_site_type_symbol
 _atom_site_label
 _atom_site_symmetry_multiplicity
 _atom_site_fract_x
 _atom_site_fract_y
 _atom_site_fract_z
 _atom_site_occupancy
  H  7  1  0.17885300  0.41813400  0.89670600  1
  H  16  1  0.19068400  0.39231300  0.84462100  1
  H  19  1  0.15804200  0.35131000  0.85606600  1
  H  20  1  0.17114500  0.32807100  0.86687500  1
  H  21  1  0.10768600  0.40567900  0.88613700  1
  H  22  1  0.13120900  0.39247300  0.89638000  1
  H  23  1  0.11373900  0.43809100  0.81286200  1
  H  24  1  0.13856400  0.43373000  0.79960700  1
  H  25  1  0.22008300  0.34046700  0.93190800  1
  H  26  1  0.22172900  0.36742200  0.94207500  1
  H  31  1  0.16927100  0.40067400  0.79727000  1
  H  32  1  0.20924500  0.32020100  0.88704900  1
  H  33  1  0.22106200  0.41081000  0.93031400  1
  H  34  1  0.09717200  0.43525500  0.85959600  1
  H  41  1  0.32019300  0.53048300  0.39671000  1
  H  50  1  0.30837600  0.55626000  0.34462400  1
  H  53  1  0.34098200  0.59726100  0.35599200  1
  H  54  1  0.32789200  0.62051500  0.36678700  1
  H  55  1  0.39138500  0.54291700  0.38612700  1
  H  56  1  0.36787100  0.55614200  0.39636600  1
  H  57  1  0.38527200  0.51036300  0.31290800  1
  H  58  1  0.36044900  0.51473600  0.29965200  1
  H  59  1  0.27906100  0.60820900  0.43190200  1
  H  60  1  0.27739100  0.58126100  0.44207900  1
  H  65  1  0.32975700  0.54784400  0.29727400  1
  H  66  1  0.28985200  0.62843300  0.38707100  1
  H  67  1  0.27800300  0.53785800  0.43031900  1
  H  68  1  0.40188200  0.51330600  0.35961000  1
  H  75  1  0.80590400  0.90305900  0.14641700  1
  H  84  1  0.83373000  0.91449700  0.09475500  1
  H  87  1  0.87355700  0.88114100  0.10727100  1
  H  88  1  0.89659700  0.89437000  0.11827000  1
  H  89  1  0.81540900  0.83234700  0.13623400  1
  H  90  1  0.82893700  0.85545200  0.14696100  1
  H  91  1  0.79022100  0.83721900  0.06103300  1
  H  92  1  0.79540000  0.86200800  0.04789300  1
  H  93  1  0.88305800  0.94422600  0.18254400  1
  H  94  1  0.85588900  0.94619000  0.19223400  1
  H  99  1  0.82798400  0.89379400  0.04745600  1
  H  100  1  0.90391200  0.93323100  0.13804200  1
  H  101  1  0.81242600  0.94533800  0.17971300  1
  H  102  1  0.78467700  0.82300100  0.10231200  1
  H  109  1  0.69315500  0.04553000  0.64642500  1
  H  118  1  0.66532900  0.03409800  0.59474800  1
  H  121  1  0.62550300  0.06749100  0.60729600  1
  H  122  1  0.60246000  0.05428300  0.61831400  1
  H  123  1  0.68363900  0.11623900  0.63624500  1
  H  124  1  0.67012200  0.09312700  0.64696900  1
  H  125  1  0.70881900  0.11138900  0.56104000  1
  H  126  1  0.70364300  0.08660300  0.54789500  1
  H  127  1  0.61599300  0.00437700  0.68254900  1
  H  128  1  0.64316200  0.00240300  0.69223300  1
  H  133  1  0.67106200  0.05481400  0.54745200  1
  H  134  1  0.59516300  0.01539500  0.63801300  1
  H  135  1  0.68671900  0.00329000  0.67966200  1
  H  136  1  0.71435300  0.12560700  0.60233100  1
  H  143  1  0.33156500  0.41557700  0.59478600  1
  H  152  1  0.30591500  0.40369500  0.64691900  1
  H  155  1  0.33147200  0.35595500  0.64641400  1
  H  156  1  0.31814400  0.33250200  0.63616800  1
  H  157  1  0.39582800  0.39588100  0.61675200  1
  H  158  1  0.37251500  0.38284000  0.60601100  1
  H  159  1  0.38383000  0.44465900  0.68194200  1
  H  160  1  0.35692300  0.44635000  0.69219900  1
  H  161  1  0.28529100  0.33890400  0.56307800  1
  H  162  1  0.28968400  0.36374500  0.54985100  1
  H  167  1  0.31350100  0.44585300  0.68054500  1
  H  168  1  0.28853000  0.32205500  0.60968700  1
  H  169  1  0.32284800  0.39424500  0.54738900  1
  H  170  1  0.40384600  0.43394600  0.63698900  1
  H  177  1  0.16748300  0.53306000  0.09480300  1
  H  186  1  0.19314300  0.54492500  0.14694000  1
  H  189  1  0.16762600  0.59266400  0.14645100  1
  H  190  1  0.18094400  0.61611900  0.13620200  1
  H  191  1  0.10322900  0.55282200  0.11680600  1
  H  192  1  0.12654900  0.56583500  0.10604900  1
  H  193  1  0.11520300  0.50403900  0.18198800  1
  H  194  1  0.14210900  0.50233700  0.19224400  1
  H  195  1  0.21374000  0.60973700  0.06309000  1
  H  196  1  0.20934700  0.58489500  0.04986300  1
  H  201  1  0.18545700  0.50276800  0.18064000  1
  H  202  1  0.21051800  0.62658300  0.10969900  1
  H  203  1  0.17619200  0.55440600  0.04740300  1
  H  204  1  0.09520400  0.51472400  0.13701500  1
  H  211  1  0.69072100  0.89250600  0.34488700  1
  H  220  1  0.67760900  0.91754700  0.39718200  1
  H  223  1  0.63040900  0.89139500  0.39590700  1
  H  224  1  0.60702800  0.90477200  0.38559500  1
  H  225  1  0.67338800  0.82805400  0.36546200  1
  H  226  1  0.65974400  0.85110900  0.35483400  1
  H  227  1  0.71808700  0.83962000  0.43273900  1
  H  228  1  0.71928000  0.86648800  0.44320600  1
  H  229  1  0.61402400  0.93846700  0.31284400  1
  H  230  1  0.63906400  0.93445100  0.29982300  1
  H  235  1  0.71945200  0.90973800  0.43150100  1
  H  236  1  0.59688500  0.93495600  0.35931600  1
  H  237  1  0.66963000  0.90147100  0.29737500  1
  H  238  1  0.71421100  0.82117800  0.39323900  1
  H  245  1  0.80835000  0.05617000  0.84491200  1
  H  254  1  0.82146200  0.03106500  0.89719400  1
  H  257  1  0.86867100  0.05720200  0.89592300  1
  H  258  1  0.89203800  0.04380900  0.88560200  1
  H  259  1  0.82561100  0.12056400  0.86548000  1
  H  260  1  0.83929900  0.09753000  0.85486300  1
  H  261  1  0.78091700  0.10895600  0.93275700  1
  H  262  1  0.77973200  0.08208300  0.94321100  1
  H  263  1  0.88497200  0.01010200  0.81287000  1
  H  264  1  0.85994800  0.01416900  0.79983400  1
  H  269  1  0.77959000  0.03882800  0.93148100  1
  H  270  1  0.90215600  0.01363700  0.85931100  1
  H  271  1  0.82945500  0.04715500  0.79736000  1
  H  272  1  0.78480600  0.12742100  0.89328700  1
  H  279  1  0.82074500  0.53087200  0.10262700  1
  H  288  1  0.80922000  0.55876000  0.15431900  1
  H  291  1  0.84245600  0.59862100  0.14173900  1
  H  292  1  0.82917900  0.62161300  0.13069900  1
  H  293  1  0.89136000  0.54050200  0.11280100  1
  H  294  1  0.86823100  0.55398900  0.10207900  1
  H  295  1  0.88658100  0.51539700  0.18802600  1
  H  296  1  0.86179700  0.52055800  0.20118100  1
  H  297  1  0.77940200  0.60789100  0.06643400  1
  H  298  1  0.77754300  0.58071400  0.05674200  1
  H  303  1  0.82995000  0.55314100  0.20159700  1
  H  304  1  0.79028600  0.62873700  0.11107100  1
  H  305  1  0.77847100  0.53728500  0.06928300  1
  H  306  1  0.90067400  0.50973200  0.14668800  1
  H  313  1  0.67831400  0.41774900  0.60262200  1
  H  322  1  0.68981100  0.38990300  0.65431100  1
  H  325  1  0.65660800  0.35004300  0.64180900  1
  H  326  1  0.66987400  0.32703800  0.63078800  1
  H  327  1  0.60767400  0.40816400  0.61279200  1
  H  328  1  0.63079100  0.39465000  0.60207700  1
  H  329  1  0.61249700  0.43339100  0.68798100  1
  H  330  1  0.63727400  0.42821100  0.70114100  1
  H  331  1  0.71954900  0.34066700  0.56643500  1
  H  332  1  0.72143800  0.36783700  0.55673600  1
  H  337  1  0.66910800  0.39557800  0.70158800  1
  H  338  1  0.70870800  0.31986300  0.61104300  1
  H  339  1  0.72057900  0.41126600  0.56926000  1
  H  340  1  0.59836600  0.43895700  0.64665400  1
  H  347  1  0.19262600  0.04692600  0.85240200  1
  H  356  1  0.16535000  0.03416800  0.90422000  1
  H  359  1  0.12498700  0.06559600  0.89302700  1
  H  360  1  0.10227000  0.05165800  0.88215900  1
  H  361  1  0.18245800  0.11699300  0.86337300  1
  H  362  1  0.16883800  0.09398200  0.85259500  1
  H  363  1  0.20875900  0.11134100  0.93823000  1
  H  364  1  0.20394800  0.08635200  0.95118400  1
  H  365  1  0.11565800  0.00605400  0.81561000  1
  H  366  1  0.14281600  0.00467300  0.80574700  1
  H  371  1  0.17147300  0.05461100  0.95168900  1
  H  372  1  0.09636200  0.01015100  0.85467100  1
  H  373  1  0.18607900  0.00491000  0.81846100  1
  H  374  1  0.21396800  0.12581200  0.89700600  1
  H  381  1  0.30641200  0.90172400  0.35238400  1
  H  390  1  0.33366200  0.91447100  0.40422600  1
  H  393  1  0.37402200  0.88300700  0.39303100  1
  H  394  1  0.39675700  0.89690800  0.38215700  1
  H  395  1  0.31656200  0.83166000  0.36335400  1
  H  396  1  0.33018400  0.85467500  0.35258400  1
  H  397  1  0.29024700  0.83728800  0.43820800  1
  H  398  1  0.29505400  0.86227300  0.45116900  1
  H  399  1  0.38342600  0.94253900  0.31561700  1
  H  400  1  0.35627300  0.94394000  0.30574600  1
  H  405  1  0.32752700  0.89400900  0.45169100  1
  H  406  1  0.40270000  0.93843400  0.35471000  1
  H  407  1  0.31292500  0.94370000  0.31848500  1
  H  408  1  0.28506900  0.82281400  0.39697500  1
  H  415  1  0.66762000  0.53319000  0.40424500  1
  H  424  1  0.69271700  0.54635300  0.35194200  1
  H  427  1  0.66656900  0.59353700  0.35325800  1
  H  428  1  0.67996600  0.61689700  0.36358300  1
  H  429  1  0.60323600  0.55042400  0.38369900  1
  H  430  1  0.62626900  0.56410300  0.39432300  1
  H  431  1  0.61481500  0.50588300  0.31634200  1
  H  432  1  0.64168100  0.50472200  0.30587300  1
  H  433  1  0.71372900  0.60979000  0.43628800  1
  H  434  1  0.70965500  0.58475700  0.44931400  1
  H  439  1  0.68493800  0.50453200  0.31760500  1
  H  440  1  0.71026000  0.62686300  0.38973900  1
  H  441  1  0.67662900  0.55425900  0.45179800  1
  H  442  1  0.59640400  0.50963200  0.35583000  1
  H  449  1  0.83143500  0.41542100  0.90423100  1
  H  458  1  0.80631800  0.40227700  0.85192800  1
  H  461  1  0.83244200  0.35510200  0.85321400  1
  H  462  1  0.81905000  0.33173800  0.86353800  1
  H  463  1  0.89581500  0.39815000  0.88364700  1
  H  464  1  0.87277500  0.38450000  0.89428800  1
  H  465  1  0.88423700  0.44266000  0.81627600  1
  H  466  1  0.85736700  0.44383300  0.80581600  1
  H  467  1  0.78535100  0.33880800  0.93627000  1
  H  468  1  0.78942500  0.36383800  0.94930100  1
  H  473  1  0.81417500  0.44409100  0.81752100  1
  H  474  1  0.78879900  0.32174900  0.88971400  1
  H  475  1  0.82245100  0.39434200  0.95177800  1
  H  476  1  0.90264600  0.43895500  0.85578200  1
  H  483  1  0.30933600  0.05843100  0.65412900  1
  H  492  1  0.32212500  0.03132400  0.60224000  1
  H  495  1  0.36923500  0.05501000  0.60257500  1
  H  496  1  0.39220800  0.04132800  0.61335400  1
  H  497  1  0.32707900  0.12156100  0.63224400  1
  H  498  1  0.34092100  0.09876200  0.64307200  1
  H  499  1  0.28149200  0.10853600  0.56563400  1
  H  500  1  0.28006600  0.08142200  0.55568300  1
  H  501  1  0.38636600  0.01475800  0.68812100  1
  H  502  1  0.36136200  0.01956100  0.70105300  1
  H  507  1  0.28016600  0.03811300  0.56827700  1
  H  508  1  0.40104800  0.00982800  0.64692900  1
  H  509  1  0.32975200  0.05209500  0.70162300  1
  H  510  1  0.28553800  0.12760700  0.60486800  1
  H  517  1  0.18969200  0.89013600  0.15410600  1
  H  526  1  0.17689200  0.91730400  0.10224300  1
  H  529  1  0.12977200  0.89364500  0.10257600  1
  H  530  1  0.10681600  0.90734200  0.11337100  1
  H  531  1  0.17201200  0.82705700  0.13223400  1
  H  532  1  0.15812900  0.84983800  0.14305300  1
  H  533  1  0.21758200  0.84013200  0.06562000  1
  H  534  1  0.21900400  0.86725300  0.05568500  1
  H  535  1  0.11274000  0.93391000  0.18812900  1
  H  536  1  0.13773600  0.92905700  0.20106000  1
  H  541  1  0.21887500  0.91056200  0.06830100  1
  H  542  1  0.09800600  0.93881200  0.14695900  1
  H  543  1  0.16927800  0.89651300  0.20164200  1
  H  544  1  0.21352800  0.82103400  0.10482300  1
  H  551  1  0.22116100  0.38171800  0.79713100  1
  H  560  1  0.27775200  0.35733900  0.74603000  1
  H  561  1  0.25024400  0.35857000  0.77498400  1
  H  562  1  0.29806600  0.37821100  0.71607500  1
  H  563  1  0.28160700  0.45094300  0.70498800  1
  H  565  1  0.19263000  0.46250000  0.79592000  1
  H  566  1  0.19526500  0.46710400  0.76858000  1
  H  567  1  0.21894200  0.47569000  0.78561400  1
  H  576  1  0.27784900  0.56683600  0.29720500  1
  H  585  1  0.22127500  0.59125100  0.24610100  1
  H  586  1  0.24876400  0.59000000  0.27506800  1
  H  587  1  0.20098700  0.57040600  0.21611800  1
  H  588  1  0.21746400  0.49768700  0.20498600  1
  H  590  1  0.30639400  0.48606000  0.29594200  1
  H  591  1  0.30377000  0.48148500  0.26859800  1
  H  592  1  0.28009100  0.47287200  0.28561800  1
  H  601  1  0.84475700  0.94428900  0.04606100  1
  H  610  1  0.86892000  0.00134000  0.99524300  1
  H  611  1  0.86787100  0.97345800  0.02393400  1
  H  612  1  0.84777600  0.02220100  0.96569000  1
  H  613  1  0.77474300  0.00645600  0.95530400  1
  H  615  1  0.76361200  0.91662500  0.04546200  1
  H  616  1  0.75861800  0.91977000  0.01822000  1
  H  617  1  0.75060600  0.94327200  0.03564700  1
  H  626  1  0.65428300  0.00432500  0.54604500  1
  H  635  1  0.63011700  0.94727500  0.49522600  1
  H  636  1  0.63116800  0.97515900  0.52391500  1
  H  637  1  0.65126100  0.92641000  0.46567300  1
  H  638  1  0.72429500  0.94214000  0.45529400  1
  H  640  1  0.73543600  0.03197300  0.54545200  1
  H  641  1  0.74043200  0.02882300  0.51821000  1
  H  642  1  0.74843700  0.00532200  0.53564000  1
  H  651  1  0.77955400  0.56981700  0.20312000  1
  H  660  1  0.72252100  0.59394000  0.25396700  1
  H  661  1  0.75040800  0.59291700  0.22528000  1
  H  662  1  0.70163000  0.57276200  0.28348600  1
  H  663  1  0.71727800  0.49968800  0.29375300  1
  H  665  1  0.80710900  0.48862800  0.20358500  1
  H  666  1  0.80394300  0.48357800  0.23081600  1
  H  667  1  0.78043800  0.47564200  0.21336600  1
  H  676  1  0.71953000  0.37887300  0.70304300  1
  H  685  1  0.77654600  0.35471800  0.75389400  1
  H  686  1  0.74867700  0.35576100  0.72519300  1
  H  687  1  0.79740500  0.37587000  0.78344600  1
  H  688  1  0.78173400  0.44893000  0.79375900  1
  H  690  1  0.69195700  0.46005500  0.70355700  1
  H  691  1  0.69511000  0.46508100  0.73079400  1
  H  692  1  0.71862000  0.47304000  0.71335800  1
  H  701  1  0.15444100  0.00380400  0.95248000  1
  H  710  1  0.13010000  0.94686800  0.00331600  1
  H  711  1  0.13128600  0.97460500  0.97452500  1
  H  712  1  0.15106300  0.92623500  0.03307400  1
  H  713  1  0.22393200  0.94233000  0.04391400  1
  H  715  1  0.23543800  0.03184700  0.95350000  1
  H  716  1  0.24019900  0.02887700  0.98079000  1
  H  717  1  0.24850600  0.00533000  0.96351600  1
  H  726  1  0.34458600  0.94482400  0.45248200  1
  H  735  1  0.36894000  0.00176100  0.50331500  1
  H  736  1  0.36774800  0.97401900  0.47452600  1
  H  737  1  0.34798300  0.02239900  0.53307300  1
  H  738  1  0.27511500  0.00630800  0.54392300  1
  H  740  1  0.26358700  0.91678600  0.45351400  1
  H  741  1  0.25883600  0.91975500  0.48080700  1
  H  742  1  0.25052200  0.94330100  0.46353600  1
  H  751  1  0.72191500  0.88207100  0.29786300  1
  H  760  1  0.77818900  0.85747400  0.24658300  1
  H  761  1  0.75095700  0.85886900  0.27572800  1
  H  762  1  0.79813500  0.87813500  0.21634300  1
  H  763  1  0.78119500  0.95065800  0.20477100  1
  H  765  1  0.69292400  0.96266900  0.29621500  1
  H  766  1  0.69523700  0.96696300  0.26881300  1
  H  767  1  0.71902600  0.97592600  0.28557700  1
  H  776  1  0.77713600  0.06663400  0.79784900  1
  H  785  1  0.72085200  0.09118500  0.74656500  1
  H  786  1  0.74809100  0.08981600  0.77570500  1
  H  787  1  0.70089300  0.07049400  0.71634800  1
  H  788  1  0.71783500  0.99796200  0.70481200  1
  H  790  1  0.80614100  0.98604000  0.79624600  1
  H  791  1  0.80382800  0.98172400  0.76884700  1
  H  792  1  0.78004000  0.97277000  0.78561400  1
  H  801  1  0.34208200  0.44636500  0.54743200  1
  H  810  1  0.36645300  0.50274600  0.49614100  1
  H  811  1  0.36521300  0.47540500  0.52521700  1
  H  812  1  0.34560400  0.52284000  0.46605700  1
  H  813  1  0.27296100  0.50607800  0.45486500  1
  H  815  1  0.26138600  0.41758700  0.54613400  1
  H  816  1  0.25690000  0.42001700  0.51876500  1
  H  817  1  0.24814500  0.44377500  0.53564300  1
  H  826  1  0.15695800  0.50226600  0.04743500  1
  H  835  1  0.13260300  0.44587800  0.99614200  1
  H  836  1  0.13383500  0.47321800  0.02521900  1
  H  837  1  0.15345700  0.42579300  0.96605500  1
  H  838  1  0.22608800  0.44259500  0.95485200  1
  H  840  1  0.23763900  0.53108600  0.04612500  1
  H  841  1  0.24212200  0.52866200  0.01875500  1
  H  842  1  0.25089100  0.50490400  0.03562900  1
  H  851  1  0.27877100  0.06930200  0.70229600  1
  H  860  1  0.22195900  0.09364600  0.75324800  1
  H  861  1  0.24959100  0.09245000  0.72437900  1
  H  862  1  0.20147100  0.07270000  0.78309900  1
  H  863  1  0.21779900  0.99990200  0.79403500  1
  H  865  1  0.30700200  0.98837000  0.70341000  1
  H  866  1  0.30416300  0.98369900  0.73072200  1
  H  867  1  0.28056600  0.97526300  0.71354900  1
  H  876  1  0.22028900  0.87924200  0.20230100  1
  H  885  1  0.27710600  0.85493300  0.25325900  1
  H  886  1  0.24946900  0.85610900  0.22439500  1
  H  887  1  0.29760700  0.87590000  0.28309200  1
  H  888  1  0.28128200  0.94870700  0.29399500  1
  H  890  1  0.19205600  0.96017200  0.20337800  1
  H  891  1  0.19489300  0.96486500  0.23068800  1
  H  892  1  0.21849100  0.97328500  0.21351200  1
  H  901  1  0.65713500  0.50197200  0.45130800  1
  H  910  1  0.63259600  0.44565600  0.50257600  1
  H  911  1  0.63395400  0.47292100  0.47345400  1
  H  912  1  0.65330400  0.42565600  0.53276700  1
  H  913  1  0.72586100  0.44252800  0.54424300  1
  H  915  1  0.73776600  0.53088300  0.45285100  1
  H  916  1  0.74211400  0.52854100  0.48024500  1
  H  917  1  0.75101500  0.50475600  0.46345100  1
  H  926  1  0.84192100  0.44663900  0.95129800  1
  H  935  1  0.86645000  0.50296800  0.00256200  1
  H  936  1  0.86509800  0.47569800  0.97344100  1
  H  937  1  0.84574200  0.52295800  0.03275900  1
  H  938  1  0.77319900  0.50604000  0.04425900  1
  H  940  1  0.76130700  0.41768000  0.95287000  1
  H  941  1  0.75697300  0.42001600  0.98026600  1
  H  942  1  0.74804600  0.44379700  0.96348000  1
  H  951  1  0.15030000  0.28684400  0.90990000  1
  H  960  1  0.12451900  0.20615000  0.90645900  1
  H  961  1  0.12606200  0.24912700  0.90822300  1
  H  962  1  0.14596300  0.16665400  0.90545800  1
  H  963  1  0.22151600  0.16657700  0.90831200  1
  H  965  1  0.23489300  0.30227300  0.91724300  1
  H  966  1  0.24429600  0.27855500  0.90075300  1
  H  967  1  0.24248400  0.27441600  0.92831000  1
  H  976  1  0.34882000  0.66182500  0.40994300  1
  H  985  1  0.37455500  0.74253100  0.40652400  1
  H  986  1  0.37303700  0.69955400  0.40830200  1
  H  987  1  0.35308800  0.78201300  0.40549500  1
  H  988  1  0.27753300  0.78204500  0.40828600  1
  H  990  1  0.26422600  0.64634300  0.41721300  1
  H  991  1  0.25483600  0.67005400  0.40071000  1
  H  992  1  0.25660100  0.67419600  0.42826800  1
  H  1001  1  0.93735000  0.87447800  0.16108700  1
  H  1010  1  0.01812500  0.84909000  0.15727700  1
  H  1011  1  0.97516000  0.85043000  0.15932600  1
  H  1012  1  0.05749300  0.87071200  0.15594000  1
  H  1013  1  0.05725900  0.94627000  0.15858100  1
  H  1015  1  0.92150100  0.95897700  0.16832200  1
  H  1016  1  0.94504500  0.96845300  0.15166800  1
  H  1017  1  0.94938400  0.96681200  0.17921100  1
  H  1026  1  0.56171400  0.07413600  0.66103600  1
  H  1035  1  0.48094500  0.09954100  0.65718700  1
  H  1036  1  0.52391000  0.09819300  0.65924100  1
  H  1037  1  0.44156900  0.07792700  0.65586600  1
  H  1038  1  0.44178800  0.00237100  0.65856000  1
  H  1040  1  0.57753600  0.98963700  0.66832400  1
  H  1041  1  0.55399500  0.98015200  0.65167200  1
  H  1042  1  0.54964800  0.98182400  0.67921200  1
  H  1051  1  0.34992000  0.28590400  0.59117100  1
  H  1060  1  0.37487200  0.20493900  0.59355600  1
  H  1061  1  0.37373900  0.24796700  0.59281300  1
  H  1062  1  0.35305900  0.16562300  0.59327600  1
  H  1063  1  0.27769100  0.16631400  0.58797900  1
  H  1065  1  0.26591500  0.30224100  0.58044500  1
  H  1066  1  0.25550300  0.27890200  0.59692600  1
  H  1067  1  0.25848600  0.27431100  0.56950700  1
  H  1076  1  0.14912500  0.66273100  0.09119900  1
  H  1085  1  0.12417800  0.74369700  0.09357800  1
  H  1086  1  0.12531000  0.70067100  0.09284400  1
  H  1087  1  0.14599400  0.78301200  0.09328300  1
  H  1088  1  0.22136000  0.78231600  0.08795500  1
  H  1090  1  0.23312800  0.64638600  0.08045400  1
  H  1091  1  0.24353500  0.66973000  0.09693200  1
  H  1092  1  0.24056300  0.67431200  0.06951000  1
  H  1101  1  0.56081500  0.87372700  0.34048000  1
  H  1110  1  0.47981300  0.84894000  0.34295400  1
  H  1111  1  0.52283700  0.84998400  0.34209800  1
  H  1112  1  0.44055100  0.87083800  0.34287900  1
  H  1113  1  0.44137200  0.94622200  0.33776500  1
  H  1115  1  0.57733900  0.95772700  0.33000200  1
  H  1116  1  0.55399700  0.96812300  0.34648900  1
  H  1117  1  0.54943900  0.96526900  0.31905400  1
  H  1126  1  0.93823100  0.07487000  0.84047000  1
  H  1135  1  0.01923500  0.09965500  0.84294400  1
  H  1136  1  0.97620900  0.09861100  0.84208900  1
  H  1137  1  0.05849600  0.07775800  0.84286600  1
  H  1138  1  0.05767500  0.00237400  0.83776100  1
  H  1140  1  0.92170700  0.99087100  0.82999300  1
  H  1141  1  0.94504500  0.98046400  0.84647900  1
  H  1142  1  0.94960700  0.98333400  0.81904600  1
  H  1151  1  0.84910200  0.66226100  0.08845500  1
  H  1160  1  0.87449000  0.74301700  0.09272000  1
  H  1161  1  0.87315200  0.70006000  0.09054100  1
  H  1162  1  0.85287000  0.78240000  0.09395800  1
  H  1163  1  0.77733200  0.78218700  0.09086700  1
  H  1165  1  0.76466500  0.64650300  0.08057700  1
  H  1166  1  0.75505800  0.66990900  0.09732500  1
  H  1167  1  0.75691900  0.67447700  0.06982100  1
  H  1176  1  0.64986600  0.28631100  0.58840000  1
  H  1185  1  0.62451300  0.20554400  0.59263300  1
  H  1186  1  0.62583000  0.24850200  0.59044600  1
  H  1187  1  0.64615100  0.16617400  0.59390700  1
  H  1188  1  0.72169100  0.16642200  0.59088500  1
  H  1190  1  0.73430600  0.30211400  0.58060500  1
  H  1191  1  0.74389500  0.27871000  0.59736500  1
  H  1192  1  0.74208400  0.27414200  0.56985800  1
  H  1201  1  0.64909400  0.66317200  0.40824400  1
  H  1210  1  0.62451200  0.74421900  0.40509000  1
  H  1211  1  0.62544600  0.70119900  0.40627800  1
  H  1212  1  0.64650800  0.78344000  0.40499600  1
  H  1213  1  0.72187900  0.78245700  0.41022300  1
  H  1215  1  0.73300900  0.64657500  0.41911300  1
  H  1216  1  0.74352900  0.66966700  0.40241700  1
  H  1217  1  0.74058900  0.67459600  0.42979700  1
  H  1226  1  0.84996400  0.28543200  0.90820900  1
  H  1235  1  0.87453100  0.20437900  0.90505800  1
  H  1236  1  0.87360500  0.24740000  0.90623800  1
  H  1237  1  0.85252800  0.16516200  0.90498900  1
  H  1238  1  0.77716000  0.16616000  0.91023900  1
  H  1240  1  0.76605500  0.30204600  0.91909500  1
  H  1241  1  0.75552400  0.27894800  0.90240800  1
  H  1242  1  0.75847600  0.27402800  0.92978800  1
  H  1251  1  0.43737900  0.37499600  0.65966500  1
  H  1260  1  0.51810700  0.34934700  0.65599800  1
  H  1261  1  0.47513300  0.35081600  0.65787700  1
  H  1262  1  0.55756700  0.37085800  0.65493200  1
  H  1263  1  0.55752400  0.44640900  0.65780200  1
  H  1265  1  0.42185300  0.45956600  0.66710200  1
  H  1266  1  0.44549400  0.46901500  0.65055000  1
  H  1267  1  0.44974200  0.46718000  0.67809300  1
  H  1276  1  0.06167300  0.57368200  0.15967300  1
  H  1285  1  0.98095000  0.59933900  0.15598900  1
  H  1286  1  0.02392400  0.59786300  0.15787300  1
  H  1287  1  0.94148700  0.57783200  0.15493300  1
  H  1288  1  0.94151900  0.50228100  0.15781200  1
  H  1290  1  0.07718800  0.48911000  0.16712800  1
  H  1291  1  0.05355200  0.47966600  0.15056700  1
  H  1292  1  0.04929400  0.48149600  0.17811000  1
  H  1301  1  0.06075700  0.37386800  0.84145000  1
  H  1310  1  0.97971200  0.34923700  0.84445500  1
  H  1311  1  0.02273700  0.35019800  0.84339600  1
  H  1312  1  0.94047300  0.37121000  0.84436600  1
  H  1313  1  0.94143300  0.44656300  0.83895900  1
  H  1315  1  0.07729800  0.45777000  0.83034800  1
  H  1316  1  0.05421200  0.46831200  0.84704200  1
  H  1317  1  0.04926400  0.46530000  0.81967200  1
  H  1326  1  0.43828200  0.57468500  0.34143100  1
  H  1335  1  0.51932000  0.59933200  0.34445400  1
  H  1336  1  0.47629600  0.59836400  0.34338300  1
  H  1337  1  0.55856400  0.57736800  0.34438200  1
  H  1338  1  0.55762100  0.50201100  0.33900500  1
  H  1340  1  0.42176000  0.49077500  0.33036100  1
  H  1341  1  0.44485000  0.48023300  0.34705100  1
  H  1342  1  0.44979700  0.48325700  0.31968200  1
  C  1  1  0.17352200  0.38502900  0.88142500  1
  C  2  1  0.18244200  0.40006300  0.89734800  1
  C  3  1  0.19618900  0.39087900  0.91404700  1
  C  4  1  0.20203600  0.36601700  0.91476600  1
  C  5  1  0.19309600  0.35072800  0.89850000  1
  C  6  1  0.17846100  0.35996900  0.88189300  1
  C  9  1  0.16092700  0.39638700  0.86465700  1
  C  10  1  0.13679600  0.40455200  0.86624600  1
  C  11  1  0.12612300  0.41593400  0.84838200  1
  C  12  1  0.13921500  0.41904000  0.82922600  1
  C  13  1  0.16304500  0.40994500  0.82800700  1
  C  14  1  0.17353800  0.39899100  0.84567400  1
  C  27  1  0.17610400  0.40941100  0.80953400  1
  C  28  1  0.10222300  0.42274000  0.84938300  1
  C  29  1  0.19880600  0.32653300  0.89844900  1
  C  30  1  0.20369700  0.40705900  0.92910100  1
  C  35  1  0.32555800  0.56357900  0.38142000  1
  C  36  1  0.31662200  0.54855900  0.39734500  1
  C  37  1  0.30288700  0.55776300  0.41404500  1
  C  38  1  0.29706700  0.58263200  0.41476000  1
  C  39  1  0.30601400  0.59790400  0.39848300  1
  C  40  1  0.32062500  0.58864100  0.38187100  1
  C  43  1  0.33813900  0.55219900  0.36465600  1
  C  44  1  0.36226600  0.54402500  0.36624700  1
  C  45  1  0.37292800  0.53261700  0.34838900  1
  C  46  1  0.35983000  0.52949700  0.32923800  1
  C  47  1  0.33601000  0.53861800  0.32801200  1
  C  48  1  0.32552000  0.54957800  0.34567800  1
  C  61  1  0.32294400  0.53910000  0.30954300  1
  C  62  1  0.39682700  0.52581000  0.34938700  1
  C  63  1  0.30035300  0.62211000  0.39843400  1
  C  64  1  0.29537000  0.54159800  0.42910800  1
  C  69  1  0.83931500  0.89727800  0.13178000  1
  C  70  1  0.82398400  0.90651400  0.14734700  1
  C  71  1  0.83290100  0.92036900  0.16409200  1
  C  72  1  0.85776900  0.92612500  0.16515900  1
  C  73  1  0.87334400  0.91693900  0.14921600  1
  C  74  1  0.86439300  0.90209000  0.13263500  1
  C  77  1  0.82828900  0.88487400  0.11473100  1
  C  78  1  0.81940700  0.86098200  0.11614400  1
  C  79  1  0.80900700  0.85036200  0.09782700  1
  C  80  1  0.80740000  0.86319800  0.07842300  1
  C  81  1  0.81666800  0.88697200  0.07756600  1
  C  82  1  0.82680600  0.89743100  0.09561500  1
  C  95  1  0.81801500  0.90010500  0.05919800  1
  C  96  1  0.80155900  0.82671100  0.09851100  1
  C  97  1  0.89751900  0.92270000  0.14935600  1
  C  98  1  0.81648500  0.92801600  0.17888300  1
  C  103  1  0.65974700  0.05129900  0.63177600  1
  C  104  1  0.67507600  0.04207700  0.64735200  1
  C  105  1  0.66615200  0.02822900  0.66409700  1
  C  106  1  0.64128400  0.02247600  0.66516400  1
  C  107  1  0.62571100  0.03166400  0.64922100  1
  C  108  1  0.63466600  0.04650800  0.63263800  1
  C  111  1  0.67077100  0.06371300  0.61473200  1
  C  112  1  0.67964600  0.08760800  0.61615000  1
  C  113  1  0.69003900  0.09823300  0.59783400  1
  C  114  1  0.69164800  0.08540300  0.57842500  1
  C  115  1  0.68238500  0.06162700  0.57756400  1
  C  116  1  0.67225100  0.05116300  0.59561100  1
  C  129  1  0.68103500  0.04850000  0.55919200  1
  C  130  1  0.69747600  0.12189000  0.59851900  1
  C  131  1  0.60153800  0.02589400  0.64935700  1
  C  132  1  0.68255800  0.02059300  0.67890000  1
  C  137  1  0.32748300  0.38578000  0.61477700  1
  C  138  1  0.32484800  0.39844500  0.59582400  1
  C  139  1  0.31378600  0.38803200  0.57817300  1
  C  140  1  0.30459700  0.36423700  0.57938100  1
  C  141  1  0.30776100  0.35107900  0.59849500  1
  C  142  1  0.31925500  0.36166700  0.61634300  1
  C  145  1  0.33894600  0.39829500  0.63153600  1
  C  146  1  0.36401700  0.40318700  0.63192500  1
  C  147  1  0.37336200  0.41777200  0.64852100  1
  C  148  1  0.35816200  0.42671400  0.66485300  1
  C  149  1  0.33328300  0.42092600  0.66420700  1
  C  150  1  0.32399900  0.40723000  0.64751400  1
  C  163  1  0.31717600  0.42847600  0.67930600  1
  C  164  1  0.39755900  0.42345600  0.64837400  1
  C  165  1  0.30097300  0.32716900  0.59943000  1
  C  166  1  0.31425900  0.40112300  0.55971400  1
  C  171  1  0.17158100  0.56285000  0.11479900  1
  C  172  1  0.17421300  0.55018400  0.09584500  1
  C  173  1  0.18525900  0.56060400  0.07818800  1
  C  174  1  0.19444500  0.58439900  0.07939700  1
  C  175  1  0.19128800  0.59755600  0.09851400  1
  C  176  1  0.17980300  0.58696300  0.11636500  1
  C  179  1  0.16011600  0.55033200  0.13155500  1
  C  180  1  0.13504000  0.54546800  0.13195200  1
  C  181  1  0.12568900  0.53089100  0.14855100  1
  C  182  1  0.14088400  0.52194600  0.16488400  1
  C  183  1  0.16576700  0.52771400  0.16423400  1
  C  184  1  0.17505700  0.54140200  0.14753800  1
  C  197  1  0.18187700  0.52015900  0.17933000  1
  C  198  1  0.10148900  0.52521300  0.14840000  1
  C  199  1  0.19807200  0.62146700  0.09944600  1
  C  200  1  0.18476800  0.54751600  0.05972800  1
  C  205  1  0.66064000  0.89606500  0.36462300  1
  C  206  1  0.67353200  0.89909400  0.34583000  1
  C  207  1  0.66323600  0.91027000  0.32817800  1
  C  208  1  0.63936000  0.91926900  0.32925600  1
  C  209  1  0.62601300  0.91581000  0.34822800  1
  C  210  1  0.63645600  0.90412100  0.36604400  1
  C  213  1  0.67304600  0.88459800  0.38144900  1
  C  214  1  0.67844100  0.85962200  0.38166900  1
  C  215  1  0.69246600  0.85031700  0.39863100  1
  C  216  1  0.70077300  0.86544000  0.41525500  1
  C  217  1  0.69481000  0.89027100  0.41459300  1
  C  218  1  0.68135400  0.89950400  0.39772500  1
  C  231  1  0.70206200  0.90636600  0.42981500  1
  C  232  1  0.69835800  0.82621300  0.39886700  1
  C  233  1  0.60208500  0.92253300  0.34907000  1
  C  234  1  0.67646100  0.90993300  0.30978900  1
  C  239  1  0.83842700  0.05256700  0.86464600  1
  C  240  1  0.82553600  0.04957200  0.84584800  1
  C  241  1  0.83582600  0.03841800  0.82818400  1
  C  242  1  0.85968400  0.02937100  0.82926000  1
  C  243  1  0.87303500  0.03280200  0.84823500  1
  C  244  1  0.86260500  0.04448500  0.86606100  1
  C  247  1  0.82603300  0.06402800  0.88148200  1
  C  248  1  0.82061000  0.08899800  0.88170100  1
  C  249  1  0.80656700  0.09828800  0.89865800  1
  C  250  1  0.79825900  0.08315400  0.91527100  1
  C  251  1  0.80423400  0.05832600  0.91460400  1
  C  252  1  0.81771000  0.04910700  0.89774200  1
  C  265  1  0.79698000  0.04222200  0.92981600  1
  C  266  1  0.80066600  0.12239000  0.89890100  1
  C  267  1  0.89696000  0.02606400  0.84907000  1
  C  268  1  0.82259400  0.03876700  0.80979900  1
  C  273  1  0.82639100  0.56430300  0.11727000  1
  C  274  1  0.81723600  0.54894000  0.10168900  1
  C  275  1  0.80338200  0.55780900  0.08492400  1
  C  276  1  0.79754100  0.58265600  0.08385100  1
  C  277  1  0.80665000  0.59826100  0.09980400  1
  C  278  1  0.82151600  0.58936800  0.11639500  1
  C  281  1  0.83883100  0.55333100  0.13432600  1
  C  282  1  0.86273400  0.54447900  0.13290600  1
  C  283  1  0.87338100  0.53411400  0.15122400  1
  C  284  1  0.86056700  0.53252100  0.17064200  1
  C  285  1  0.83678200  0.54176100  0.17150700  1
  C  286  1  0.82629300  0.55185400  0.15345300  1
  C  299  1  0.82366300  0.54311200  0.18988400  1
  C  300  1  0.89701700  0.52662000  0.15050800  1
  C  301  1  0.80073100  0.62240300  0.09967500  1
  C  302  1  0.79578900  0.54136100  0.07013700  1
  C  307  1  0.67262200  0.38432600  0.61726700  1
  C  308  1  0.68180300  0.39967600  0.60168800  1
  C  309  1  0.69564800  0.39078800  0.58492400  1
  C  310  1  0.70145400  0.36593200  0.58385400  1
  C  311  1  0.69233300  0.35034200  0.59981500  1
  C  312  1  0.67748700  0.35926000  0.61640900  1
  C  315  1  0.66019700  0.39532300  0.63432000  1
  C  316  1  0.63630000  0.40419000  0.63289500  1
  C  317  1  0.62566500  0.41458300  0.65120700  1
  C  318  1  0.63848100  0.41618700  0.67062300  1
  C  319  1  0.66225500  0.40692100  0.67149400  1
  C  320  1  0.67274300  0.39681600  0.65344300  1
  C  333  1  0.67537900  0.40561000  0.68987000  1
  C  334  1  0.60202700  0.42207500  0.65049200  1
  C  335  1  0.69820100  0.32618900  0.59968400  1
  C  336  1  0.70325500  0.40722100  0.57013100  1
  C  341  1  0.15924400  0.05179400  0.86735900  1
  C  342  1  0.17459400  0.04322300  0.85150500  1
  C  343  1  0.16579800  0.02958600  0.83457000  1
  C  344  1  0.14099600  0.02359500  0.83345300  1
  C  345  1  0.12543100  0.03210200  0.84967500  1
  C  346  1  0.13427400  0.04639100  0.86666000  1
  C  349  1  0.17024200  0.06409400  0.88448900  1
  C  350  1  0.17896400  0.08806000  0.88321400  1
  C  351  1  0.18960200  0.09850100  0.90150400  1
  C  352  1  0.19152800  0.08545200  0.92077500  1
  C  353  1  0.18240400  0.06161700  0.92151100  1
  C  354  1  0.17213000  0.05129500  0.90345800  1
  C  367  1  0.18124900  0.04833000  0.93980800  1
  C  368  1  0.19710500  0.12214000  0.90089900  1
  C  369  1  0.10137400  0.02604000  0.84910300  1
  C  370  1  0.18225700  0.02225600  0.81969400  1
  C  375  1  0.33978000  0.89686000  0.36736400  1
  C  376  1  0.32444600  0.90542100  0.35149500  1
  C  377  1  0.33326200  0.91904400  0.33456100  1
  C  378  1  0.35806900  0.92501700  0.33345200  1
  C  379  1  0.37361800  0.91650600  0.34968400  1
  C  380  1  0.36475800  0.90222800  0.36666700  1
  C  383  1  0.32877400  0.88455100  0.38448700  1
  C  384  1  0.32005500  0.86058600  0.38320400  1
  C  385  1  0.30941500  0.85013800  0.40148900  1
  C  386  1  0.30748100  0.86318200  0.42076400  1
  C  387  1  0.31660200  0.88702000  0.42150700  1
  C  388  1  0.32688200  0.89734500  0.40345900  1
  C  401  1  0.31775700  0.90030000  0.43981000  1
  C  402  1  0.30192600  0.82649500  0.40088200  1
  C  403  1  0.39767900  0.92255800  0.34912200  1
  C  404  1  0.31682400  0.92636500  0.31966600  1
  C  409  1  0.67122500  0.56327200  0.38451700  1
  C  410  1  0.67421300  0.55037800  0.40331400  1
  C  411  1  0.68537400  0.56066000  0.42097900  1
  C  412  1  0.69443600  0.58451400  0.41990200  1
  C  413  1  0.69102400  0.59786300  0.40092400  1
  C  414  1  0.67931600  0.58744600  0.38310500  1
  C  417  1  0.65976300  0.55088800  0.36767500  1
  C  418  1  0.63479500  0.54546000  0.36745700  1
  C  419  1  0.62550000  0.53144600  0.35048400  1
  C  420  1  0.64062600  0.52317600  0.33385100  1
  C  421  1  0.66545300  0.52915500  0.33451400  1
  C  422  1  0.67467600  0.54260100  0.35139400  1
  C  435  1  0.68155300  0.52192000  0.31929000  1
  C  436  1  0.60140500  0.52552100  0.35025500  1
  C  437  1  0.69788500  0.62175300  0.40006200  1
  C  438  1  0.68504400  0.54742100  0.43936300  1
  C  443  1  0.82781900  0.38534900  0.88449600  1
  C  444  1  0.82482900  0.39824000  0.90329300  1
  C  445  1  0.81368500  0.38794800  0.92096400  1
  C  446  1  0.80462800  0.36409200  0.91988300  1
  C  447  1  0.80803500  0.35075000  0.90090000  1
  C  448  1  0.81973300  0.36117300  0.88307900  1
  C  451  1  0.83927600  0.39773900  0.86765500  1
  C  452  1  0.86424800  0.40314400  0.86742400  1
  C  453  1  0.87354400  0.41714500  0.85044400  1
  C  454  1  0.85841600  0.42541700  0.83381100  1
  C  455  1  0.83358400  0.41945700  0.83448800  1
  C  456  1  0.82436100  0.40602000  0.85137300  1
  C  469  1  0.81747700  0.42669400  0.81926900  1
  C  470  1  0.89764100  0.42306600  0.85021000  1
  C  471  1  0.80117700  0.32685800  0.90003400  1
  C  472  1  0.81402700  0.40118100  0.93935000  1
  C  477  1  0.33928500  0.05354400  0.63442200  1
  C  478  1  0.32644800  0.05161500  0.65336800  1
  C  479  1  0.33672000  0.04126700  0.67141200  1
  C  480  1  0.36054600  0.03211300  0.67068400  1
  C  481  1  0.37363800  0.03409400  0.65144000  1
  C  482  1  0.36324400  0.04480100  0.63316000  1
  C  485  1  0.32703200  0.06463200  0.61731000  1
  C  486  1  0.32170900  0.08962100  0.61667200  1
  C  487  1  0.30746500  0.09856500  0.59970000  1
  C  488  1  0.29894800  0.08308400  0.58341800  1
  C  489  1  0.30488400  0.05826500  0.58446300  1
  C  490  1  0.31846900  0.04936900  0.60139000  1
  C  503  1  0.29752200  0.04187800  0.56953500  1
  C  504  1  0.30140200  0.12262500  0.59922300  1
  C  505  1  0.39729900  0.02665600  0.65088100  1
  C  506  1  0.32342200  0.04240900  0.68970400  1
  C  511  1  0.15973900  0.89506300  0.13441200  1
  C  512  1  0.17258300  0.89696100  0.15335800  1
  C  513  1  0.16232200  0.90728900  0.17141300  1
  C  514  1  0.13851400  0.91649100  0.17069400  1
  C  515  1  0.12541200  0.91453500  0.15145300  1
  C  516  1  0.13578900  0.90383400  0.13316300  1
  C  519  1  0.17197400  0.88398100  0.11728700  1
  C  520  1  0.17732500  0.85899800  0.11664800  1
  C  521  1  0.19158600  0.85007200  0.09967900  1
  C  522  1  0.20010400  0.86556600  0.08340800  1
  C  523  1  0.19415800  0.89038200  0.08446200  1
  C  524  1  0.18055500  0.89926100  0.10138500  1
  C  537  1  0.20152300  0.90677900  0.06954700  1
  C  538  1  0.19765800  0.82601300  0.09919300  1
  C  539  1  0.10175300  0.92198300  0.15091000  1
  C  540  1  0.17563400  0.90614200  0.18969900  1
  C  545  1  0.21183900  0.41806900  0.79233100  1
  C  546  1  0.21651700  0.43851000  0.77976600  1
  C  548  1  0.24431000  0.41595400  0.75873000  1
  C  549  1  0.24043000  0.39510700  0.77106100  1
  C  550  1  0.22414200  0.39650300  0.78793500  1
  C  552  1  0.26049100  0.41524500  0.74171300  1
  C  553  1  0.27977700  0.43537500  0.71325600  1
  C  554  1  0.29272000  0.41450300  0.70774300  1
  C  555  1  0.28895200  0.39361000  0.71978400  1
  C  557  1  0.27290000  0.39366500  0.73691700  1
  C  558  1  0.26894700  0.37302100  0.74926700  1
  C  559  1  0.25284100  0.37374400  0.76622800  1
  C  564  1  0.20512100  0.46222100  0.78274900  1
  C  570  1  0.28717400  0.53048800  0.29238500  1
  C  571  1  0.28250400  0.51005900  0.27980300  1
  C  573  1  0.25471000  0.53262700  0.25877900  1
  C  574  1  0.25858100  0.55346400  0.27112500  1
  C  575  1  0.27486600  0.55205600  0.28800300  1
  C  577  1  0.23853800  0.53335200  0.24175500  1
  C  578  1  0.21927900  0.51324500  0.21327000  1
  C  579  1  0.20633900  0.53411900  0.20776600  1
  C  580  1  0.21009700  0.55500300  0.21982300  1
  C  582  1  0.22613300  0.55493500  0.23696600  1
  C  583  1  0.23007700  0.57556700  0.24933400  1
  C  584  1  0.24617200  0.57483200  0.26630300  1
  C  589  1  0.29390600  0.48634800  0.28276900  1
  C  595  1  0.80824300  0.93537100  0.04157600  1
  C  596  1  0.78766000  0.94047700  0.02932000  1
  C  598  1  0.81019600  0.96828500  0.00829700  1
  C  599  1  0.83118600  0.96403000  0.02033700  1
  C  600  1  0.82987700  0.94751200  0.03704900  1
  C  602  1  0.81080400  0.98466700  0.99143300  1
  C  603  1  0.79041500  0.00443400  0.96338500  1
  C  604  1  0.81131000  0.01727000  0.95774400  1
  C  605  1  0.83235400  0.01318400  0.96950400  1
  C  607  1  0.83242000  0.99693900  0.98649800  1
  C  608  1  0.85320600  0.99264000  0.99857700  1
  C  609  1  0.85259000  0.97631300  0.01538400  1
  C  614  1  0.76385000  0.92932900  0.03244900  1
  C  620  1  0.69080000  0.01323500  0.54156200  1
  C  621  1  0.71138400  0.00812500  0.52930900  1
  C  623  1  0.68884500  0.98031900  0.50828500  1
  C  624  1  0.66785300  0.98457900  0.52032200  1
  C  625  1  0.66916400  0.00109800  0.53703400  1
  C  627  1  0.68823700  0.96393500  0.49142100  1
  C  628  1  0.70862400  0.94416400  0.46337400  1
  C  629  1  0.68772900  0.93133000  0.45773200  1
  C  630  1  0.66666667  0.93541900  0.46949100  1
  C  632  1  0.66666667  0.95166700  0.48648500  1
  C  633  1  0.64583300  0.95597100  0.49856000  1
  C  634  1  0.64644900  0.97229900  0.51536700  1
  C  639  1  0.73519600  0.01926600  0.53243900  1
  C  645  1  0.78842800  0.53328100  0.20754300  1
  C  646  1  0.78328700  0.51267700  0.21976200  1
  C  648  1  0.75550200  0.53520300  0.24082000  1
  C  649  1  0.75978800  0.55621400  0.22881700  1
  C  650  1  0.77631100  0.55492100  0.21210600  1
  C  652  1  0.73911700  0.53579500  0.25768400  1
  C  653  1  0.71932300  0.51537600  0.28570100  1
  C  654  1  0.70651300  0.53627300  0.29137600  1
  C  655  1  0.71062600  0.55733500  0.27964600  1
  C  657  1  0.72687300  0.55741700  0.26265300  1
  C  658  1  0.73119900  0.57822200  0.25060800  1
  C  659  1  0.74752900  0.57762000  0.23380300  1
  C  664  1  0.79439900  0.48885600  0.21659400  1
  C  670  1  0.71064700  0.41540400  0.70748900  1
  C  671  1  0.71577700  0.43599800  0.71972500  1
  C  673  1  0.74356300  0.41346200  0.74077000  1
  C  674  1  0.73928700  0.39245900  0.72875000  1
  C  675  1  0.72277100  0.39376400  0.71203800  1
  C  677  1  0.75994000  0.41285600  0.75764100  1
  C  678  1  0.77970700  0.43325300  0.78568600  1
  C  679  1  0.79250800  0.41234900  0.79136000  1
  C  680  1  0.78841300  0.39130000  0.77960900  1
  C  682  1  0.77218200  0.39123300  0.76260200  1
  C  683  1  0.76786600  0.37043800  0.75053900  1
  C  684  1  0.75154700  0.37104900  0.73372900  1
  C  689  1  0.70466200  0.45981800  0.71657100  1
  C  695  1  0.19087700  0.01289600  0.95716300  1
  C  696  1  0.21138100  0.00794600  0.96957100  1
  C  698  1  0.18879800  0.98011100  0.99053400  1
  C  699  1  0.16789600  0.98420700  0.97833500  1
  C  700  1  0.16927000  0.00065900  0.96157900  1
  C  702  1  0.18810800  0.96381800  0.00746500  1
  C  703  1  0.20831400  0.94428300  0.03574100  1
  C  704  1  0.18741900  0.93139600  0.04128800  1
  C  705  1  0.16647700  0.93531800  0.02935000  1
  C  707  1  0.16649900  0.95147900  0.01229700  1
  C  708  1  0.14580600  0.95561700  0.00005600  1
  C  709  1  0.14650200  0.97185700  0.98318900  1
  C  714  1  0.23515300  0.01921200  0.96656500  1
  C  720  1  0.30814800  0.93573500  0.45717000  1
  C  721  1  0.28764800  0.94068800  0.46958000  1
  C  723  1  0.31023800  0.96851800  0.49054300  1
  C  724  1  0.33113800  0.96442000  0.47834000  1
  C  725  1  0.32975900  0.94797000  0.46158300  1
  C  727  1  0.31093400  0.98481200  0.50747300  1
  C  728  1  0.29073100  0.00435500  0.53574900  1
  C  729  1  0.31162600  0.01724700  0.54128900  1
  C  730  1  0.33256800  0.01331900  0.52935000  1
  C  732  1  0.33254300  0.99715100  0.51230100  1
  C  733  1  0.35323300  0.99300900  0.50005700  1
  C  734  1  0.35253300  0.97676800  0.48319200  1
  C  739  1  0.26387600  0.92942100  0.46658000  1
  C  745  1  0.71237600  0.91832700  0.29285400  1
  C  746  1  0.71681400  0.93866200  0.28009200  1
  C  748  1  0.74456300  0.91604800  0.25905500  1
  C  749  1  0.74092000  0.89531500  0.27158400  1
  C  750  1  0.72477100  0.89679100  0.28855700  1
  C  752  1  0.76057500  0.91523900  0.24192000  1
  C  753  1  0.77948600  0.93515700  0.21315300  1
  C  754  1  0.79248700  0.91429500  0.20772400  1
  C  755  1  0.78894800  0.89351800  0.21996900  1
  C  757  1  0.77305200  0.89367300  0.23720900  1
  C  758  1  0.76933400  0.87314400  0.24975900  1
  C  759  1  0.75339100  0.87396200  0.26683300  1
  C  764  1  0.70527500  0.96232300  0.28294600  1
  C  770  1  0.78668100  0.03037500  0.79286000  1
  C  771  1  0.78224700  0.01003100  0.78010700  1
  C  773  1  0.75449400  0.03262500  0.75905900  1
  C  774  1  0.75813400  0.05336900  0.77157700  1
  C  775  1  0.77428200  0.05190500  0.78855100  1
  C  777  1  0.73847600  0.03342000  0.74192500  1
  C  778  1  0.71955300  0.01347400  0.71318000  1
  C  779  1  0.70654700  0.03433000  0.70774300  1
  C  780  1  0.71008700  0.05511600  0.71997600  1
  C  782  1  0.72599200  0.05498000  0.73720900  1
  C  783  1  0.72971200  0.07551900  0.74974500  1
  C  784  1  0.74565900  0.07471500  0.76681700  1
  C  789  1  0.79378900  0.98637300  0.78297600  1
  C  795  1  0.30576600  0.43693000  0.54259100  1
  C  796  1  0.28535900  0.44145500  0.52994100  1
  C  798  1  0.30790100  0.46920000  0.50884700  1
  C  799  1  0.32871700  0.46546000  0.52125000  1
  C  800  1  0.32731400  0.44926500  0.53819600  1
  C  802  1  0.30861800  0.48528000  0.49175900  1
  C  803  1  0.28851200  0.50434000  0.46317000  1
  C  804  1  0.30935500  0.51732600  0.45765800  1
  C  805  1  0.33022700  0.51368700  0.46976000  1
  C  807  1  0.33017300  0.49772900  0.48695900  1
  C  808  1  0.35078800  0.49391000  0.49937900  1
  C  809  1  0.35006000  0.47790300  0.51641200  1
  C  814  1  0.26167900  0.42998800  0.53289800  1
  C  820  1  0.19326700  0.51172100  0.04258700  1
  C  821  1  0.21367400  0.50720900  0.02993200  1
  C  823  1  0.19113900  0.47945500  0.00883900  1
  C  824  1  0.17032600  0.48318400  0.02124700  1
  C  825  1  0.17172500  0.49937600  0.03819400  1
  C  827  1  0.19042900  0.46337600  0.99175000  1
  C  828  1  0.21053800  0.44432600  0.96316000  1
  C  829  1  0.18970100  0.43132700  0.95765100  1
  C  830  1  0.16883200  0.43495200  0.96975800  1
  C  832  1  0.16887800  0.45091300  0.98695500  1
  C  833  1  0.14826400  0.45472100  0.99937700  1
  C  834  1  0.14898700  0.47072800  0.01641100  1
  C  839  1  0.23734900  0.51868500  0.03288800  1
  C  845  1  0.28795100  0.03289600  0.70702600  1
  C  846  1  0.28310100  0.01241800  0.71949400  1
  C  848  1  0.25529700  0.03499600  0.74049000  1
  C  849  1  0.25929500  0.05587300  0.72823200  1
  C  850  1  0.27568400  0.05449000  0.71142900  1
  C  852  1  0.23906900  0.03569300  0.75746700  1
  C  853  1  0.21968800  0.01550700  0.78583400  1
  C  854  1  0.20675500  0.03637800  0.79136900  1
  C  855  1  0.21058700  0.05730400  0.77938300  1
  C  857  1  0.22669400  0.05728300  0.76229000  1
  C  858  1  0.23073500  0.07795300  0.74999500  1
  C  859  1  0.24691500  0.07725100  0.73308200  1
  C  864  1  0.29442300  0.98866600  0.71651600  1
  C  870  1  0.21110700  0.91565100  0.20701600  1
  C  871  1  0.21595200  0.93613500  0.21947900  1
  C  873  1  0.24375900  0.91357200  0.24048100  1
  C  874  1  0.23976100  0.89268600  0.22823300  1
  C  875  1  0.22337200  0.89406000  0.21143000  1
  C  877  1  0.25999100  0.91288600  0.25745700  1
  C  878  1  0.27938800  0.93309400  0.28580300  1
  C  879  1  0.29232000  0.91222600  0.29134800  1
  C  880  1  0.28848600  0.89129400  0.27937500  1
  C  882  1  0.27237100  0.89130000  0.26228600  1
  C  883  1  0.26832600  0.87062200  0.25000200  1
  C  884  1  0.25214500  0.87131200  0.23309200  1
  C  889  1  0.20463300  0.95988600  0.21648500  1
  C  895  1  0.69341100  0.51147000  0.45626500  1
  C  896  1  0.71376500  0.50700500  0.46899800  1
  C  898  1  0.69117100  0.47925200  0.49004500  1
  C  899  1  0.67041400  0.48292700  0.47755100  1
  C  900  1  0.67187300  0.49909300  0.46058900  1
  C  902  1  0.69038400  0.46321800  0.50716800  1
  C  903  1  0.71034400  0.44425900  0.53588700  1
  C  904  1  0.68948300  0.43126700  0.54133800  1
  C  905  1  0.66868700  0.43483500  0.52912600  1
  C  907  1  0.66881800  0.45075200  0.51189900  1
  C  908  1  0.64826600  0.45450400  0.49938400  1
  C  909  1  0.64906400  0.47046600  0.48232400  1
  C  914  1  0.73743400  0.51851900  0.46611200  1
  C  920  1  0.80565100  0.43712200  0.95626700  1
  C  921  1  0.78530100  0.44157300  0.96900800  1
  C  923  1  0.80789100  0.46933400  0.99005200  1
  C  924  1  0.82864300  0.46567300  0.97754800  1
  C  925  1  0.82718800  0.44950800  0.96058700  1
  C  927  1  0.80867700  0.48536700  0.00717500  1
  C  928  1  0.78871500  0.50431600  0.03589800  1
  C  929  1  0.80956800  0.51732600  0.04134000  1
  C  930  1  0.83036300  0.51377000  0.02912200  1
  C  932  1  0.83023700  0.49784900  0.01189900  1
  C  933  1  0.85078400  0.49410900  0.99937700  1
  C  934  1  0.84998900  0.47814500  0.98231700  1
  C  939  1  0.76163900  0.43004300  0.96613400  1
  C  945  1  0.18816500  0.28840400  0.91149600  1
  C  946  1  0.20920400  0.27401200  0.91251100  1
  C  948  1  0.18556400  0.23801200  0.91026700  1
  C  949  1  0.16403400  0.25156100  0.90988800  1
  C  950  1  0.16568400  0.27678800  0.91059900  1
  C  952  1  0.18470500  0.21274200  0.90912500  1
  C  953  1  0.20538500  0.17523300  0.90793900  1
  C  954  1  0.18360400  0.16239000  0.90636700  1
  C  955  1  0.16200700  0.17556500  0.90647200  1
  C  957  1  0.16222000  0.20084600  0.90770400  1
  C  958  1  0.14085900  0.21443900  0.90750700  1
  C  959  1  0.14176200  0.23961500  0.90854500  1
  C  964  1  0.23402300  0.28298900  0.91480400  1
  C  970  1  0.31095400  0.66023700  0.41151200  1
  C  971  1  0.28990600  0.67461900  0.41251000  1
  C  973  1  0.31352600  0.71063400  0.41029200  1
  C  974  1  0.33506500  0.69709800  0.40993600  1
  C  975  1  0.33343000  0.67187000  0.41065400  1
  C  977  1  0.31437100  0.73590200  0.40914200  1
  C  978  1  0.29366900  0.77339900  0.40792600  1
  C  979  1  0.31544300  0.78625500  0.40636800  1
  C  980  1  0.33704800  0.77309200  0.40649000  1
  C  982  1  0.33684900  0.74781200  0.40773400  1
  C  983  1  0.35822000  0.73423200  0.40755800  1
  C  984  1  0.35733000  0.70905700  0.40860700  1
  C  989  1  0.26508800  0.66562600  0.41477300  1
  C  995  1  0.93560100  0.91233800  0.16262100  1
  C  996  1  0.94989000  0.93345200  0.16354400  1
  C  998  1  0.98600100  0.90999600  0.16117900  1
  C  999  1  0.97255700  0.88839400  0.16093200  1
  C  1000  1  0.94732900  0.88991300  0.16176600  1
  C  1002  1  0.01126400  0.90925500  0.15985800  1
  C  1003  1  0.04866800  0.93010300  0.15831600  1
  C  1004  1  0.06159100  0.90837400  0.15670700  1
  C  1005  1  0.04852000  0.88671900  0.15697400  1
  C  1007  1  0.02325300  0.88682100  0.15839900  1
  C  1008  1  0.00976600  0.86539300  0.15834900  1
  C  1009  1  0.98459800  0.86617700  0.15955700  1
  C  1014  1  0.94077300  0.95822700  0.16578300  1
  C  1020  1  0.56345200  0.03627600  0.66258900  1
  C  1021  1  0.54915600  0.01516800  0.66351800  1
  C  1023  1  0.51305200  0.03863100  0.66112400  1
  C  1024  1  0.52650200  0.06022900  0.66086600  1
  C  1025  1  0.55173000  0.05870300  0.66170600  1
  C  1027  1  0.48779200  0.03937700  0.65979900  1
  C  1028  1  0.45038200  0.01853700  0.65827700  1
  C  1029  1  0.43746400  0.04026600  0.65664700  1
  C  1030  1  0.45054000  0.06191900  0.65690000  1
  C  1032  1  0.47580800  0.06181200  0.65832800  1
  C  1033  1  0.48930000  0.08323700  0.65826500  1
  C  1034  1  0.51446800  0.08244800  0.65947600  1
  C  1039  1  0.55826600  0.99039200  0.66577900  1
  C  1045  1  0.31214800  0.28790200  0.58849400  1
  C  1046  1  0.29104000  0.27375900  0.58645100  1
  C  1048  1  0.31426300  0.23746100  0.58866500  1
  C  1049  1  0.33587300  0.25078500  0.59006800  1
  C  1050  1  0.33446500  0.27603100  0.58988100  1
  C  1052  1  0.31489100  0.21215700  0.58914700  1
  C  1053  1  0.29387200  0.17483100  0.58890300  1
  C  1054  1  0.31545400  0.16175600  0.59104700  1
  C  1055  1  0.33716700  0.17470500  0.59173900  1
  C  1057  1  0.33721000  0.20001400  0.59098200  1
  C  1058  1  0.35865400  0.21340200  0.59219500  1
  C  1059  1  0.35798600  0.23860600  0.59177500  1
  C  1064  1  0.26645000  0.28299600  0.58318900  1
  C  1070  1  0.18689500  0.66073100  0.08850600  1
  C  1071  1  0.20800400  0.67487200  0.08644400  1
  C  1073  1  0.18478400  0.71117200  0.08866700  1
  C  1074  1  0.16317300  0.69785000  0.09008100  1
  C  1075  1  0.16458000  0.67260300  0.08989800  1
  C  1077  1  0.18415600  0.73647400  0.08914500  1
  C  1078  1  0.20517900  0.77380100  0.08888400  1
  C  1079  1  0.18359900  0.78687700  0.09103600  1
  C  1080  1  0.16188500  0.77393000  0.09174000  1
  C  1082  1  0.16184100  0.74862100  0.09098700  1
  C  1083  1  0.14039700  0.73523300  0.09221200  1
  C  1084  1  0.14106200  0.71002900  0.09179500  1
  C  1089  1  0.23259200  0.66563100  0.08319200  1
  C  1095  1  0.56289000  0.91150100  0.33788200  1
  C  1096  1  0.54879000  0.93264500  0.33588700  1
  C  1098  1  0.51244600  0.90949400  0.33808900  1
  C  1099  1  0.52572700  0.88785100  0.33941800  1
  C  1100  1  0.55097500  0.88920500  0.33921000  1
  C  1102  1  0.48714400  0.90891800  0.33864400  1
  C  1103  1  0.44986000  0.93001900  0.33860500  1
  C  1104  1  0.43675200  0.90845900  0.34075400  1
  C  1105  1  0.44965600  0.88671600  0.34133500  1
  C  1107  1  0.47495900  0.88662200  0.34047400  1
  C  1108  1  0.48830500  0.86514400  0.34159500  1
  C  1109  1  0.51350800  0.86575800  0.34110600  1
  C  1114  1  0.55808700  0.95722600  0.33271900  1
  C  1120  1  0.93615600  0.03709400  0.83788100  1
  C  1121  1  0.95025600  0.01594900  0.83589400  1
  C  1123  1  0.98660000  0.03910000  0.83808500  1
  C  1124  1  0.97331900  0.06074400  0.83941200  1
  C  1125  1  0.94807100  0.05938900  0.83921000  1
  C  1127  1  0.01190400  0.03967600  0.83863700  1
  C  1128  1  0.04918800  0.01857600  0.83859900  1
  C  1129  1  0.06229700  0.04013700  0.84074600  1
  C  1130  1  0.04939000  0.06188000  0.84133300  1
  C  1132  1  0.02408700  0.06197400  0.84046500  1
  C  1133  1  0.01074200  0.08345100  0.84158400  1
  C  1134  1  0.98553800  0.08283700  0.84109300  1
  C  1139  1  0.94095700  0.99136800  0.83271400  1
  C  1145  1  0.81125300  0.66054200  0.08666400  1
  C  1146  1  0.79015500  0.67484700  0.08569600  1
  C  1148  1  0.81360600  0.71093000  0.08837800  1
  C  1149  1  0.83519900  0.69747700  0.08870600  1
  C  1150  1  0.83367400  0.67225400  0.08775600  1
  C  1152  1  0.81434500  0.73618700  0.08978200  1
  C  1153  1  0.79349500  0.77359300  0.09124400  1
  C  1154  1  0.81521300  0.78650800  0.09298600  1
  C  1155  1  0.83686700  0.77343000  0.09285000  1
  C  1157  1  0.83677000  0.74816400  0.09139600  1
  C  1158  1  0.85819200  0.73466800  0.09153500  1
  C  1159  1  0.85740800  0.70950400  0.09025300  1
  C  1164  1  0.76539600  0.66575300  0.08324600  1
  C  1170  1  0.68771300  0.28805100  0.58663800  1
  C  1171  1  0.70882100  0.27375700  0.58568800  1
  C  1173  1  0.68538500  0.23766000  0.58834200  1
  C  1174  1  0.66378500  0.25110200  0.58864400  1
  C  1175  1  0.66529500  0.27632700  0.58768700  1
  C  1177  1  0.68465600  0.21240500  0.58975100  1
  C  1178  1  0.70552400  0.17501000  0.59124300  1
  C  1179  1  0.68381000  0.16208300  0.59296900  1
  C  1180  1  0.66214900  0.17515100  0.59280700  1
  C  1182  1  0.66223700  0.20041700  0.59134600  1
  C  1183  1  0.64080700  0.21390300  0.59146600  1
  C  1184  1  0.64157900  0.23906500  0.59017600  1
  C  1189  1  0.73357800  0.28286200  0.58327200  1
  C  1195  1  0.68685500  0.66103700  0.41095100  1
  C  1196  1  0.70802700  0.67511100  0.41286700  1
  C  1198  1  0.68497200  0.71148000  0.41029000  1
  C  1199  1  0.66329900  0.69823900  0.40903800  1
  C  1200  1  0.66459000  0.67299100  0.40947100  1
  C  1202  1  0.68446300  0.73677700  0.40952400  1
  C  1203  1  0.70566100  0.77400400  0.40936100  1
  C  1204  1  0.68413800  0.78715300  0.40711800  1
  C  1205  1  0.66236100  0.77430000  0.40657500  1
  C  1207  1  0.66220100  0.74900300  0.40757700  1
  C  1208  1  0.64069300  0.73569900  0.40652800  1
  C  1209  1  0.64124100  0.71049900  0.40721300  1
  C  1214  1  0.73257200  0.66579100  0.41619600  1
  C  1220  1  0.81220300  0.28757400  0.91092200  1
  C  1221  1  0.79103000  0.27350600  0.91284500  1
  C  1223  1  0.81407800  0.23712900  0.91026600  1
  C  1224  1  0.83575500  0.25036700  0.90900600  1
  C  1225  1  0.83446500  0.27561700  0.90943100  1
  C  1227  1  0.81458200  0.21183200  0.90950600  1
  C  1228  1  0.79338000  0.17461000  0.90936700  1
  C  1229  1  0.81489700  0.16145600  0.90711700  1
  C  1230  1  0.83667500  0.17430600  0.90655300  1
  C  1232  1  0.83684200  0.19960500  0.90755500  1
  C  1233  1  0.85835200  0.21290300  0.90649700  1
  C  1234  1  0.85780600  0.23810300  0.90717600  1
  C  1239  1  0.76648900  0.28283000  0.91618300  1
  C  1245  1  0.43576500  0.41285700  0.66127400  1
  C  1246  1  0.45012900  0.43391700  0.66226600  1
  C  1248  1  0.48615700  0.41033700  0.65989200  1
  C  1249  1  0.47264200  0.38878600  0.65954800  1
  C  1250  1  0.44741500  0.39039300  0.66034500  1
  C  1252  1  0.51142200  0.40952100  0.65867800  1
  C  1253  1  0.54889400  0.43026500  0.65742900  1
  C  1254  1  0.56176800  0.40850800  0.65582500  1
  C  1255  1  0.54863100  0.38688800  0.65594400  1
  C  1257  1  0.52335200  0.38705700  0.65722300  1
  C  1258  1  0.50979300  0.36567400  0.65705700  1
  C  1259  1  0.48462000  0.36653500  0.65816500  1
  C  1264  1  0.44112600  0.45872300  0.66460500  1
  C  1270  1  0.06328200  0.53581800  0.16129100  1
  C  1271  1  0.04891500  0.51476200  0.16228900  1
  C  1273  1  0.01289100  0.53834400  0.15989800  1
  C  1274  1  0.02641000  0.55989500  0.15955200  1
  C  1275  1  0.05163500  0.55828400  0.16035600  1
  C  1277  1  0.98762600  0.53916300  0.15867800  1
  C  1278  1  0.95015200  0.51842400  0.15742800  1
  C  1279  1  0.93727800  0.54018600  0.15584100  1
  C  1280  1  0.95042100  0.56180200  0.15594500  1
  C  1282  1  0.97570000  0.56163000  0.15722100  1
  C  1283  1  0.98926000  0.58301100  0.15705100  1
  C  1284  1  0.01443400  0.58214800  0.15816200  1
  C  1289  1  0.05791500  0.48995500  0.16462500  1
  C  1295  1  0.06287200  0.41162500  0.83866800  1
  C  1296  1  0.04878800  0.43277900  0.83666500  1
  C  1298  1  0.01242900  0.40970400  0.83923200  1
  C  1299  1  0.02568100  0.38804500  0.84056900  1
  C  1300  1  0.05093100  0.38935700  0.84018900  1
  C  1302  1  0.98712900  0.40918100  0.83991700  1
  C  1303  1  0.94989000  0.43035400  0.83988900  1
  C  1304  1  0.93674400  0.40882900  0.84213800  1
  C  1305  1  0.94961000  0.38706400  0.84278700  1
  C  1307  1  0.97491200  0.38691500  0.84187200  1
  C  1308  1  0.98822700  0.36542100  0.84301500  1
  C  1309  1  0.01343000  0.36598600  0.84240600  1
  C  1314  1  0.05808700  0.45732400  0.83328000  1
  C  1320  1  0.43617400  0.53692500  0.33866900  1
  C  1321  1  0.45026400  0.51577200  0.33668600  1
  C  1323  1  0.48661700  0.53885500  0.33924500  1
  C  1324  1  0.47336100  0.56051400  0.34056800  1
  C  1325  1  0.44811100  0.55919600  0.34018600  1
  C  1327  1  0.51191500  0.53938600  0.33993700  1
  C  1328  1  0.54915800  0.51822000  0.33992800  1
  C  1329  1  0.56230000  0.53974700  0.34217400  1
  C  1330  1  0.54943100  0.56151000  0.34281600  1
  C  1332  1  0.52412800  0.56165300  0.34188700  1
  C  1333  1  0.51080800  0.58314700  0.34301500  1
  C  1334  1  0.48560700  0.58257700  0.34239700  1
  C  1339  1  0.44097200  0.49122700  0.33329400  1
  N  8  1  0.21578500  0.35726200  0.93084200  1
  N  15  1  0.12948000  0.43071400  0.81234000  1
  N  17  1  0.16886500  0.34532900  0.86679400  1
  N  18  1  0.12428400  0.40080700  0.88445500  1
  N  42  1  0.28334100  0.59140900  0.43084200  1
  N  49  1  0.36956300  0.51780000  0.31236100  1
  N  51  1  0.33023000  0.60326300  0.36676500  1
  N  52  1  0.37478400  0.54778000  0.38444900  1
  N  76  1  0.86626000  0.94002700  0.18124100  1
  N  83  1  0.79715800  0.85319400  0.06094800  1
  N  85  1  0.87933300  0.89217600  0.11791800  1
  N  86  1  0.82135300  0.84861300  0.13462300  1
  N  110  1  0.63279300  0.00857100  0.68124400  1
  N  117  1  0.70188500  0.09541400  0.56095200  1
  N  119  1  0.61972900  0.05643100  0.61792300  1
  N  120  1  0.67769300  0.09997500  0.63462900  1
  N  144  1  0.29279200  0.35458300  0.56252600  1
  N  151  1  0.36701900  0.44040800  0.68092200  1
  N  153  1  0.32303600  0.34909600  0.63451300  1
  N  154  1  0.37857300  0.39357900  0.61677000  1
  N  178  1  0.20623900  0.59405600  0.06253900  1
  N  185  1  0.13201800  0.50826700  0.18095900  1
  N  187  1  0.17602100  0.59953600  0.13453400  1
  N  188  1  0.12049100  0.55508000  0.11679500  1
  N  212  1  0.62981700  0.93119500  0.31242200  1
  N  219  1  0.71387900  0.85647600  0.43166900  1
  N  221  1  0.62367000  0.89999900  0.38404600  1
  N  222  1  0.67007200  0.84513400  0.36592800  1
  N  246  1  0.86921100  0.01744200  0.81242000  1
  N  253  1  0.78513600  0.09210500  0.93168000  1
  N  255  1  0.87539400  0.04858200  0.88406400  1
  N  256  1  0.82898300  0.10349700  0.86597000  1
  N  280  1  0.78363500  0.59110000  0.06775300  1
  N  287  1  0.87060300  0.52232500  0.18812200  1
  N  289  1  0.83137400  0.60435000  0.13110800  1
  N  290  1  0.87508700  0.54642300  0.11441800  1
  N  314  1  0.71534100  0.35746200  0.56775300  1
  N  321  1  0.62845200  0.42641100  0.68809400  1
  N  323  1  0.66761400  0.34429600  0.63112800  1
  N  324  1  0.62394300  0.40223600  0.61441000  1
  N  348  1  0.13248200  0.01026000  0.81699700  1
  N  355  1  0.20194600  0.09531300  0.93823300  1
  N  357  1  0.11935000  0.05499900  0.88199000  1
  N  358  1  0.17665900  0.10066400  0.86488600  1
  N  382  1  0.36659800  0.93834900  0.31700100  1
  N  389  1  0.29705900  0.85331500  0.43821600  1
  N  391  1  0.37966900  0.89361000  0.38200300  1
  N  392  1  0.32237400  0.84798300  0.36487500  1
  N  416  1  0.70635800  0.59404500  0.43674600  1
  N  423  1  0.63166800  0.51008700  0.31742300  1
  N  425  1  0.67521400  0.60024600  0.36510800  1
  N  426  1  0.62030200  0.55380100  0.38320700  1
  N  450  1  0.79271800  0.35455500  0.93673000  1
  N  457  1  0.86737600  0.43848600  0.81737500  1
  N  459  1  0.82383700  0.34837600  0.86508000  1
  N  460  1  0.87874300  0.39480100  0.88317100  1
  N  484  1  0.37035600  0.02161300  0.68812600  1
  N  491  1  0.28565500  0.09169500  0.56697600  1
  N  493  1  0.37588900  0.04715600  0.61485900  1
  N  494  1  0.33033600  0.10446600  0.63205400  1
  N  518  1  0.12872500  0.92699700  0.18814400  1
  N  525  1  0.21341400  0.85697000  0.06696900  1
  N  527  1  0.12313300  0.90150300  0.11486500  1
  N  528  1  0.16869500  0.84414100  0.13201800  1
  N  547  1  0.23233400  0.43643600  0.76363200  1
  N  556  1  0.26441200  0.43502900  0.72973700  1
  N  568  1  0.19712500  0.41879800  0.80861200  1
  N  569  1  0.30802800  0.41296400  0.69186000  1
  N  572  1  0.26669000  0.51214300  0.26366800  1
  N  581  1  0.23462900  0.51357800  0.22976100  1
  N  593  1  0.30190200  0.52975700  0.30865300  1
  N  594  1  0.19105700  0.53567500  0.19186400  1
  N  597  1  0.78966200  0.95647500  0.01332300  1
  N  606  1  0.79087600  0.98888500  0.97972300  1
  N  618  1  0.80739400  0.92048300  0.05773700  1
  N  619  1  0.81272200  0.03269800  0.94193400  1
  N  622  1  0.70938100  0.99212500  0.51331100  1
  N  631  1  0.70816500  0.95971200  0.47971300  1
  N  643  1  0.69165200  0.02812100  0.55772500  1
  N  644  1  0.68631500  0.91590500  0.44191900  1
  N  647  1  0.76728500  0.51466300  0.23576000  1
  N  656  1  0.73487300  0.51584900  0.26936300  1
  N  668  1  0.80331500  0.53243900  0.19138100  1
  N  669  1  0.69108700  0.53767400  0.30718900  1
  N  672  1  0.73177500  0.43400200  0.73572400  1
  N  681  1  0.76417100  0.43279300  0.76933800  1
  N  693  1  0.69574700  0.41625000  0.69133400  1
  N  694  1  0.80791600  0.41093800  0.80718700  1
  N  697  1  0.20932000  0.99199900  0.98560600  1
  N  706  1  0.20794300  0.95974300  0.01933400  1
  N  718  1  0.19170200  0.02784400  0.94104300  1
  N  719  1  0.18593700  0.91593300  0.05706500  1
  N  722  1  0.28971400  0.95663200  0.48561700  1
  N  731  1  0.29109900  0.98889100  0.51934300  1
  N  743  1  0.30731800  0.92079300  0.44104700  1
  N  744  1  0.31311100  0.03270900  0.55706700  1
  N  747  1  0.73250700  0.93651300  0.26387100  1
  N  756  1  0.76427900  0.93491200  0.22974900  1
  N  768  1  0.69762300  0.91903200  0.30910800  1
  N  769  1  0.80777600  0.91268300  0.19183400  1
  N  772  1  0.76655300  0.01216700  0.76388600  1
  N  781  1  0.73476900  0.01373500  0.72977000  1
  N  793  1  0.80142500  0.02968800  0.80912000  1
  N  794  1  0.69123400  0.03592200  0.69186900  1
  N  797  1  0.28744000  0.45718400  0.51374400  1
  N  806  1  0.28885900  0.48906800  0.47971600  1
  N  818  1  0.30505800  0.42222900  0.55888000  1
  N  819  1  0.31088000  0.53258500  0.44173700  1
  N  822  1  0.21159600  0.49148000  0.01373300  1
  N  831  1  0.21018700  0.45959800  0.97970600  1
  N  843  1  0.19397500  0.52641100  0.05888200  1
  N  844  1  0.18818300  0.41606200  0.94173200  1
  N  847  1  0.26721400  0.01448900  0.73557200  1
  N  856  1  0.23508900  0.01587800  0.76938400  1
  N  868  1  0.30287500  0.03207000  0.69089000  1
  N  869  1  0.19131700  0.03784600  0.80716700  1
  N  872  1  0.23184000  0.93407400  0.23555600  1
  N  881  1  0.26397800  0.93271000  0.26936100  1
  N  893  1  0.19619000  0.91646300  0.19087700  1
  N  894  1  0.30777900  0.91077400  0.30713100  1
  N  897  1  0.71163400  0.49129600  0.48520800  1
  N  906  1  0.71007900  0.45948400  0.51930500  1
  N  918  1  0.69410000  0.52623900  0.44002100  1
  N  919  1  0.68789800  0.41595800  0.55721800  1
  N  922  1  0.78743200  0.45727900  0.98522100  1
  N  931  1  0.78898600  0.48908900  0.01931800  1
  N  943  1  0.80496000  0.42235800  0.94002000  1
  N  944  1  0.81114900  0.53264100  0.05721600  1
  N  947  1  0.20683100  0.24975700  0.91170500  1
  N  956  1  0.20518400  0.19950600  0.90923300  1
  N  968  1  0.18749400  0.31219800  0.91072400  1
  N  969  1  0.18193900  0.13868500  0.90538000  1
  N  972  1  0.29226500  0.69887400  0.41170900  1
  N  981  1  0.29388300  0.74912700  0.40922800  1
  N  993  1  0.31164600  0.63644600  0.41071900  1
  N  994  1  0.31709500  0.80996000  0.40537700  1
  N  997  1  0.97415200  0.93120600  0.16262900  1
  N  1006  1  0.02440800  0.92979700  0.15980300  1
  N  1018  1  0.91181300  0.91152400  0.16176200  1
  N  1019  1  0.08529100  0.90680100  0.15557400  1
  N  1022  1  0.52489400  0.01741900  0.66259100  1
  N  1031  1  0.47464200  0.01883900  0.65976200  1
  N  1043  1  0.58724000  0.03708000  0.66175500  1
  N  1044  1  0.41376300  0.04184200  0.65553200  1
  N  1047  1  0.29317600  0.24946100  0.58680900  1
  N  1056  1  0.29432000  0.19912400  0.58808900  1
  N  1068  1  0.31323500  0.31166000  0.58911200  1
  N  1069  1  0.31668600  0.13804300  0.59250000  1
  N  1072  1  0.20586900  0.69917000  0.08680400  1
  N  1081  1  0.20472800  0.74950700  0.08807600  1
  N  1093  1  0.18580700  0.63697300  0.08912800  1
  N  1094  1  0.18236800  0.81059000  0.09248900  1
  N  1097  1  0.52448900  0.93056300  0.33626900  1
  N  1106  1  0.47414900  0.92952100  0.33769000  1
  N  1118  1  0.58664500  0.91036600  0.33858600  1
  N  1119  1  0.41304800  0.90726300  0.34233000  1
  N  1122  1  0.97455700  0.01803200  0.83626900  1
  N  1131  1  0.02489900  0.01907300  0.83768600  1
  N  1143  1  0.91240200  0.03823200  0.83858800  1
  N  1144  1  0.08600000  0.04133600  0.84232600  1
  N  1147  1  0.79240300  0.69910200  0.08674200  1
  N  1156  1  0.79380700  0.74933500  0.08973000  1
  N  1168  1  0.81202900  0.63674900  0.08740000  1
  N  1169  1  0.81677900  0.81021200  0.09404300  1
  N  1172  1  0.70658400  0.24950100  0.58672900  1
  N  1181  1  0.70520100  0.19926600  0.58972200  1
  N  1193  1  0.68691600  0.31184500  0.58739900  1
  N  1194  1  0.68225300  0.13837900  0.59403300  1
  N  1197  1  0.70600500  0.69941000  0.41226700  1
  N  1206  1  0.70509700  0.74972600  0.41042700  1
  N  1218  1  0.68568200  0.63727600  0.41041700  1
  N  1219  1  0.68302200  0.81086800  0.40562700  1
  N  1222  1  0.79304800  0.24920500  0.91224800  1
  N  1231  1  0.79394700  0.19888900  0.91042100  1
  N  1243  1  0.81338200  0.31133300  0.91039000  1
  N  1244  1  0.81601100  0.13774000  0.90563600  1
  N  1247  1  0.47438400  0.43158400  0.66138300  1
  N  1256  1  0.52462400  0.43002300  0.65876700  1
  N  1268  1  0.41196800  0.41215100  0.66058900  1
  N  1269  1  0.58547700  0.40688200  0.65488400  1
  N  1272  1  0.02466200  0.51709700  0.16139400  1
  N  1281  1  0.97442100  0.51866300  0.15876800  1
  N  1293  1  0.08708000  0.53652100  0.16061300  1
  N  1294  1  0.91356900  0.54181300  0.15489200  1
  N  1297  1  0.02448900  0.43073900  0.83722600  1
  N  1306  1  0.97417300  0.42980300  0.83891600  1
  N  1318  1  0.08663300  0.41046100  0.83917000  1
  N  1319  1  0.91302400  0.40770300  0.84356500  1
  N  1322  1  0.47456300  0.51781800  0.33724600  1
  N  1331  1  0.52487600  0.51876600  0.33894700  1
  N  1343  1  0.41241500  0.53808400  0.33916800  1
  N  1344  1  0.58601900  0.54087900  0.34360400  1
