# generated using pymatgen
data_H5(C8N3)2
_symmetry_space_group_name_H-M   'P 1'
_cell_length_a   36.33010000
_cell_length_b   67.94835000
_cell_length_c   67.94840000
_cell_angle_alpha   120.00007303
_cell_angle_beta   90.00000000
_cell_angle_gamma   90.00000000
_symmetry_Int_Tables_number   1
_chemical_formula_structural   H5(C8N3)2
_chemical_formula_sum   'H240 C768 N288'
_cell_volume   145263.01546506
_cell_formula_units_Z   48
loop_
 _symmetry_equiv_pos_site_id
 _symmetry_equiv_pos_as_xyz
  1  'x, y, z'
loop_
 _atom_site_type_symbol
 _atom_site_label
 _atom_site_symmetry_multiplicity
 _atom_site_fract_x
 _atom_site_fract_y
 _atom_site_fract_z
 _atom_site_occupancy
  H  9  1  0.95230600  0.69323700  0.15974700  1
  H  17  1  0.87769700  0.68134300  0.02614300  1
  H  19  1  0.97125400  0.64685300  0.04782000  1
  H  20  1  0.98657300  0.64733200  0.08165700  1
  H  21  1  0.84197900  0.72557000  0.10365800  1
  H  22  1  0.86485000  0.73085100  0.13847900  1
  H  35  1  0.95199000  0.55742800  0.30498500  1
  H  43  1  0.87767000  0.43565800  0.31686700  1
  H  45  1  0.97112500  0.49190000  0.35137400  1
  H  46  1  0.98637000  0.52527800  0.35090100  1
  H  47  1  0.84178700  0.46895500  0.27267400  1
  H  48  1  0.86458200  0.49850600  0.26739300  1
  H  61  1  0.95169900  0.83839200  0.44063000  1
  H  69  1  0.87783800  0.97202900  0.56260900  1
  H  71  1  0.97107500  0.95029000  0.50623800  1
  H  72  1  0.98610500  0.91646500  0.47277700  1
  H  73  1  0.84185500  0.89455200  0.52929200  1
  H  74  1  0.86455400  0.85972200  0.49969100  1
  H  87  1  0.45231200  0.36616800  0.77724300  1
  H  95  1  0.37777300  0.37809900  0.91088800  1
  H  97  1  0.47131800  0.41257700  0.88917600  1
  H  98  1  0.48660800  0.41210200  0.85533700  1
  H  99  1  0.34195700  0.33390000  0.83338300  1
  H  100  1  0.36482500  0.32860200  0.79855500  1
  H  113  1  0.45213300  0.50198400  0.63203100  1
  H  121  1  0.37774300  0.62373700  0.62014700  1
  H  123  1  0.47121100  0.56751100  0.58563700  1
  H  124  1  0.48646800  0.53414000  0.58611100  1
  H  125  1  0.34194000  0.59046700  0.66437600  1
  H  126  1  0.36475900  0.56091500  0.66965500  1
  H  139  1  0.45198700  0.22090000  0.49627400  1
  H  147  1  0.37773700  0.08723000  0.37450300  1
  H  149  1  0.47113100  0.10897800  0.43078200  1
  H  150  1  0.48635200  0.14283600  0.46416100  1
  H  151  1  0.34189400  0.16472300  0.40775100  1
  H  152  1  0.36467900  0.19955800  0.43729900  1
  H  165  1  0.02312000  0.50022400  0.77742000  1
  H  173  1  0.09847900  0.61973300  0.91220800  1
  H  175  1  0.00679200  0.56287600  0.88988700  1
  H  176  1  0.99155100  0.52986300  0.85559300  1
  H  177  1  0.13079100  0.58988400  0.83450400  1
  H  178  1  0.10803600  0.56062000  0.79949300  1
  H  191  1  0.02242300  0.22075900  0.63025100  1
  H  199  1  0.09850400  0.08600800  0.61476800  1
  H  201  1  0.00643900  0.10827000  0.58039100  1
  H  202  1  0.99095800  0.14255700  0.58174300  1
  H  203  1  0.13066400  0.16373600  0.66261700  1
  H  204  1  0.10773000  0.19873800  0.66842100  1
  H  217  1  0.02258600  0.36794400  0.49783200  1
  H  225  1  0.09849200  0.38335800  0.37850900  1
  H  227  1  0.00649500  0.41776000  0.43517800  1
  H  228  1  0.99104600  0.41641300  0.46812000  1
  H  229  1  0.13068300  0.33551000  0.40837800  1
  H  230  1  0.10780700  0.32973500  0.43760600  1
  H  243  1  0.52281500  0.55911100  0.15964200  1
  H  251  1  0.59850700  0.43974700  0.02486500  1
  H  253  1  0.50660500  0.49648100  0.04717500  1
  H  254  1  0.49121600  0.52944200  0.08148000  1
  H  255  1  0.63074500  0.46958600  0.10257200  1
  H  256  1  0.60791800  0.49881700  0.13758400  1
  H  269  1  0.52307900  0.83851400  0.30690000  1
  H  277  1  0.59843000  0.97329800  0.32217500  1
  H  279  1  0.50675700  0.95098100  0.35671900  1
  H  280  1  0.49152400  0.91668700  0.35543900  1
  H  281  1  0.63069000  0.89559300  0.27428900  1
  H  282  1  0.60792600  0.86058100  0.26853900  1
  H  295  1  0.52251800  0.69145500  0.43912400  1
  H  303  1  0.59852600  0.67598500  0.55841100  1
  H  305  1  0.50647900  0.64161100  0.50176300  1
  H  306  1  0.49101500  0.64295800  0.46882200  1
  H  307  1  0.63072500  0.72382600  0.52852800  1
  H  308  1  0.60780500  0.72962800  0.49932400  1
  H  321  1  0.01689900  0.36375300  0.77754300  1
  H  329  1  0.09837100  0.37899200  0.91126400  1
  H  331  1  0.00337300  0.41280500  0.88971300  1
  H  332  1  0.98651600  0.41139100  0.85546900  1
  H  333  1  0.12951100  0.33200000  0.83330800  1
  H  334  1  0.10462500  0.32572000  0.79850700  1
  H  347  1  0.01697300  0.50461400  0.63444600  1
  H  355  1  0.09831900  0.62304600  0.61908700  1
  H  357  1  0.00331500  0.56766600  0.58532800  1
  H  358  1  0.98651600  0.53482700  0.58675500  1
  H  359  1  0.12951900  0.59213600  0.66611600  1
  H  360  1  0.10463900  0.56364800  0.67244500  1
  H  373  1  0.01711100  0.22067200  0.49359200  1
  H  381  1  0.09828100  0.08687200  0.37507800  1
  H  383  1  0.00334600  0.10851100  0.43050400  1
  H  384  1  0.98662200  0.14276700  0.46337000  1
  H  385  1  0.12954400  0.16480800  0.40600600  1
  H  386  1  0.10470200  0.19962600  0.43451200  1
  H  399  1  0.51664400  0.69554700  0.15949400  1
  H  407  1  0.59832000  0.68026500  0.02577900  1
  H  409  1  0.50317300  0.64652400  0.04732400  1
  H  410  1  0.48627200  0.64793400  0.08155900  1
  H  411  1  0.62951700  0.72718700  0.10374000  1
  H  412  1  0.60458200  0.73348500  0.13853700  1
  H  425  1  0.51701800  0.55477400  0.30263300  1
  H  433  1  0.59825400  0.43627700  0.31791400  1
  H  435  1  0.50333500  0.49170400  0.35172900  1
  H  436  1  0.48656100  0.52454800  0.35031500  1
  H  437  1  0.62943200  0.46717100  0.27087300  1
  H  438  1  0.60459300  0.49569500  0.26457700  1
  H  451  1  0.51674300  0.83873400  0.44346600  1
  H  459  1  0.59837800  0.97246600  0.56187200  1
  H  461  1  0.50315400  0.95089600  0.50663700  1
  H  462  1  0.48623900  0.91664900  0.47381700  1
  H  463  1  0.62966300  0.89451700  0.53081500  1
  H  464  1  0.60475500  0.85971400  0.50232200  1
  H  477  1  0.95672600  0.55618100  0.15945000  1
  H  485  1  0.87421200  0.44043700  0.02439900  1
  H  487  1  0.96788000  0.49620700  0.04683600  1
  H  488  1  0.98497900  0.52848800  0.08157400  1
  H  489  1  0.84603800  0.46787200  0.10230600  1
  H  490  1  0.87089600  0.49597400  0.13734000  1
  H  503  1  0.95701200  0.83875000  0.30408200  1
  H  511  1  0.87411100  0.97375800  0.32344600  1
  H  513  1  0.96792100  0.95136900  0.35674000  1
  H  514  1  0.98513000  0.91664600  0.35426700  1
  H  515  1  0.84597600  0.89583500  0.27301200  1
  H  516  1  0.87091300  0.86081100  0.26607400  1
  H  529  1  0.95687900  0.69409700  0.44198700  1
  H  537  1  0.87422700  0.67491800  0.55777600  1
  H  539  1  0.96789600  0.64152600  0.50202800  1
  H  540  1  0.98505300  0.64396700  0.46975300  1
  H  541  1  0.84614000  0.72535900  0.53029300  1
  H  542  1  0.87100700  0.73224200  0.50215900  1
  H  555  1  0.45674900  0.50319300  0.77756800  1
  H  563  1  0.37415600  0.61890600  0.91260300  1
  H  565  1  0.46786300  0.56316500  0.89018300  1
  H  566  1  0.48498100  0.53089000  0.85544600  1
  H  567  1  0.34601100  0.59147400  0.83469800  1
  H  568  1  0.37088300  0.56337400  0.79966400  1
  H  581  1  0.45696900  0.22064000  0.63298400  1
  H  589  1  0.37418900  0.08565000  0.61372000  1
  H  591  1  0.46798200  0.10802300  0.58040800  1
  H  592  1  0.48518500  0.14274400  0.58286900  1
  H  593  1  0.34601100  0.16357700  0.66411400  1
  H  594  1  0.37090300  0.19859200  0.67102400  1
  H  607  1  0.45681200  0.36521400  0.49504800  1
  H  615  1  0.37420300  0.38452000  0.37931700  1
  H  617  1  0.46790200  0.41785300  0.43507200  1
  H  618  1  0.48501700  0.41539800  0.46734700  1
  H  619  1  0.34605500  0.33405200  0.40676200  1
  H  620  1  0.37093600  0.32712400  0.43486700  1
  H  636  1  0.92641000  0.75243200  0.16266900  1
  H  638  1  0.91605300  0.80958200  0.27714900  1
  H  650  1  0.92621400  0.50112400  0.24581000  1
  H  652  1  0.91576900  0.55836200  0.18858200  1
  H  664  1  0.92622400  0.83550900  0.49698200  1
  H  666  1  0.91607600  0.72105300  0.43975400  1
  H  678  1  0.42638800  0.30700200  0.77435800  1
  H  680  1  0.41609100  0.24982200  0.65989600  1
  H  692  1  0.42633600  0.55827900  0.69122100  1
  H  694  1  0.41582400  0.50100200  0.74841600  1
  H  706  1  0.42628100  0.22377700  0.43995300  1
  H  708  1  0.41593700  0.33824800  0.49723700  1
  H  720  1  0.04654100  0.55731800  0.77538600  1
  H  722  1  0.05750200  0.50165300  0.66103100  1
  H  734  1  0.04631000  0.22282500  0.68932300  1
  H  736  1  0.05732600  0.33718400  0.74796100  1
  H  748  1  0.04637900  0.30885700  0.44082100  1
  H  750  1  0.05766100  0.25020700  0.49652800  1
  H  762  1  0.54644600  0.50206400  0.16169500  1
  H  764  1  0.55753300  0.55773100  0.27605000  1
  H  776  1  0.54645900  0.83646400  0.24774400  1
  H  778  1  0.55711400  0.72210800  0.18908700  1
  H  790  1  0.54640200  0.75053300  0.49613200  1
  H  792  1  0.55724600  0.80914500  0.44038900  1
  H  804  1  0.82883400  0.70982000  0.03495000  1
  H  806  1  0.65113800  0.70473100  0.03295100  1
  H  818  1  0.82883100  0.41595600  0.28844200  1
  H  820  1  0.65113800  0.41895200  0.29347900  1
  H  832  1  0.82887400  0.96336500  0.58224800  1
  H  834  1  0.65115700  0.96531200  0.57921200  1
  H  846  1  0.32897300  0.34959600  0.90206000  1
  H  848  1  0.15132700  0.35471500  0.90421600  1
  H  860  1  0.32887700  0.64342700  0.64861400  1
  H  862  1  0.15119300  0.64037300  0.64350400  1
  H  874  1  0.32889600  0.09593000  0.35479100  1
  H  876  1  0.15121500  0.09394300  0.35781200  1
  H  888  1  0.14542000  0.64094000  0.90365500  1
  H  890  1  0.32310200  0.63789100  0.90557400  1
  H  902  1  0.14534600  0.09472700  0.64469300  1
  H  904  1  0.32295100  0.09261500  0.63951100  1
  H  916  1  0.14541200  0.35347700  0.35729300  1
  H  918  1  0.32307200  0.35856600  0.36040000  1
  H  930  1  0.64536300  0.41848900  0.03346700  1
  H  932  1  0.82303300  0.42153800  0.03142100  1
  H  944  1  0.64537400  0.96474100  0.29241200  1
  H  946  1  0.82303500  0.96668600  0.29744300  1
  H  958  1  0.64536600  0.70590600  0.57961900  1
  H  960  1  0.82296900  0.70071000  0.57660700  1
  H  972  1  0.03141300  0.63399200  0.92694100  1
  H  974  1  0.93208800  0.62814600  0.00925700  1
  H  986  1  0.03156500  0.38384100  0.36410900  1
  H  988  1  0.93202400  0.47198900  0.37008000  1
  H  1000  1  0.03161400  0.07112100  0.61430000  1
  H  1002  1  0.93203600  0.98889500  0.52621600  1
  H  1014  1  0.53151300  0.42540700  0.01005100  1
  H  1016  1  0.43213300  0.43129800  0.92778200  1
  H  1028  1  0.53163100  0.67552300  0.57282500  1
  H  1030  1  0.43210500  0.58740800  0.56694500  1
  H  1042  1  0.53144400  0.98809900  0.32269600  1
  H  1044  1  0.43205600  0.07035800  0.41086200  1
  H  1056  1  0.94283700  0.42577600  0.01005300  1
  H  1058  1  0.04228300  0.43188500  0.92789800  1
  H  1070  1  0.94278000  0.67514900  0.57246000  1
  H  1072  1  0.04209600  0.58678300  0.56622600  1
  H  1084  1  0.94273900  0.98813500  0.32312500  1
  H  1086  1  0.04216700  0.07030800  0.41139000  1
  H  1098  1  0.44273600  0.63359100  0.92700900  1
  H  1100  1  0.54215200  0.62740000  0.00913000  1
  H  1112  1  0.44276300  0.38425200  0.36464400  1
  H  1114  1  0.54211900  0.47257400  0.37080600  1
  H  1126  1  0.44267800  0.07119700  0.61398700  1
  H  1128  1  0.54216000  0.98910200  0.52568600  1
  H  1140  1  0.00424300  0.57637000  0.15260500  1
  H  1142  1  0.02373900  0.64891900  0.11144600  1
  H  1154  1  0.00454300  0.66712700  0.42186200  1
  H  1156  1  0.02351100  0.55346000  0.34923800  1
  H  1168  1  0.00476900  0.84562200  0.33097800  1
  H  1170  1  0.02335700  0.88657900  0.44471100  1
  H  1182  1  0.50431000  0.48299700  0.78438200  1
  H  1184  1  0.52376200  0.41048700  0.82558700  1
  H  1196  1  0.50435100  0.39220800  0.51520500  1
  H  1198  1  0.52361900  0.50594300  0.58774400  1
  H  1210  1  0.50461800  0.21380400  0.60603400  1
  H  1212  1  0.52348100  0.17271300  0.49235400  1
  H  1224  1  0.96738200  0.39010800  0.78528100  1
  H  1226  1  0.95201700  0.50357100  0.82469100  1
  H  1238  1  0.96777200  0.21293600  0.51226800  1
  H  1240  1  0.95147900  0.17328300  0.58615000  1
  H  1252  1  0.96765000  0.48590400  0.60802500  1
  H  1254  1  0.95156400  0.41198200  0.49450900  1
  H  1266  1  0.46708400  0.66925500  0.15175100  1
  H  1268  1  0.45173900  0.55581900  0.11241000  1
  H  1280  1  0.46706500  0.84647400  0.42495600  1
  H  1282  1  0.45197000  0.88572800  0.35076800  1
  H  1294  1  0.46760200  0.57345000  0.32901900  1
  H  1296  1  0.45153000  0.64741100  0.44250900  1
  C  1  1  0.92336000  0.68934200  0.10351100  1
  C  2  1  0.95051600  0.67413300  0.10345500  1
  C  3  1  0.95963300  0.67493300  0.12419600  1
  C  4  1  0.94502600  0.69240200  0.14474600  1
  C  5  1  0.92092700  0.70887600  0.14531500  1
  C  6  1  0.90750400  0.70616100  0.12446000  1
  C  7  1  0.96679900  0.65838400  0.08251000  1
  C  8  1  0.87790100  0.71932700  0.12387800  1
  C  10  1  0.91125800  0.68730400  0.08255100  1
  C  11  1  0.92943800  0.67210000  0.06179800  1
  C  12  1  0.91829400  0.67109800  0.04126500  1
  C  13  1  0.88701600  0.68334100  0.04126700  1
  C  14  1  0.86706200  0.69715500  0.06136100  1
  C  15  1  0.88048600  0.70019700  0.08230700  1
  C  16  1  0.95792700  0.65824400  0.06234800  1
  C  18  1  0.86381800  0.71582300  0.10317400  1
  C  27  1  0.92312700  0.50509000  0.30890600  1
  C  28  1  0.95027400  0.52025700  0.32411100  1
  C  29  1  0.95935900  0.54019700  0.32330100  1
  C  30  1  0.94472800  0.54326500  0.30582900  1
  C  31  1  0.92063500  0.52734900  0.28936200  1
  C  32  1  0.90725100  0.50920300  0.29208100  1
  C  33  1  0.96658600  0.51507400  0.33986000  1
  C  34  1  0.87767500  0.49543000  0.27890800  1
  C  36  1  0.91106800  0.48616000  0.31094500  1
  C  37  1  0.92927200  0.48062300  0.32615000  1
  C  38  1  0.91818800  0.46107600  0.32713900  1
  C  39  1  0.88692100  0.44881400  0.31489700  1
  C  40  1  0.86694400  0.45509100  0.30108900  1
  C  41  1  0.88032200  0.47299900  0.29804200  1
  C  42  1  0.95770800  0.49506800  0.34002900  1
  C  44  1  0.86362900  0.47822500  0.28241300  1
  C  53  1  0.92301800  0.89464700  0.49304400  1
  C  54  1  0.95007100  0.89469300  0.47783300  1
  C  55  1  0.95895300  0.87394600  0.45783200  1
  C  56  1  0.94446600  0.85339500  0.45480700  1
  C  57  1  0.92048100  0.85284300  0.47076800  1
  C  58  1  0.90714800  0.87370900  0.48894000  1
  C  59  1  0.96637600  0.91562600  0.48300800  1
  C  60  1  0.87763800  0.87431100  0.50275500  1
  C  62  1  0.91104700  0.91561100  0.51201600  1
  C  63  1  0.92929600  0.93634400  0.51756200  1
  C  64  1  0.91832300  0.95686500  0.53716500  1
  C  65  1  0.88703700  0.95690800  0.54942300  1
  C  66  1  0.86703300  0.93683500  0.54314400  1
  C  67  1  0.88034300  0.91587400  0.52520800  1
  C  68  1  0.95768900  0.93577500  0.50309000  1
  C  70  1  0.86361700  0.89502200  0.51997200  1
  C  79  1  0.42333000  0.37012600  0.83350600  1
  C  80  1  0.45050300  0.38532200  0.83355300  1
  C  81  1  0.45959500  0.38449600  0.81279900  1
  C  82  1  0.44502000  0.36701800  0.79224800  1
  C  83  1  0.42090000  0.35056100  0.79169600  1
  C  84  1  0.40747300  0.35329500  0.81256000  1
  C  85  1  0.46678200  0.40108500  0.85449400  1
  C  86  1  0.37786700  0.34013700  0.81315400  1
  C  88  1  0.41123600  0.37217200  0.85447300  1
  C  89  1  0.42944100  0.38736700  0.87521800  1
  C  90  1  0.41833700  0.38835900  0.89575300  1
  C  91  1  0.38703500  0.37614100  0.89576800  1
  C  92  1  0.36707100  0.36234000  0.87568000  1
  C  93  1  0.38046200  0.35928300  0.85472100  1
  C  94  1  0.45790800  0.40123400  0.87466200  1
  C  96  1  0.36376800  0.34366700  0.83386300  1
  C  105  1  0.42327200  0.55433600  0.62813400  1
  C  106  1  0.45040700  0.53916800  0.61292000  1
  C  107  1  0.45949000  0.51922100  0.61371900  1
  C  108  1  0.44487200  0.51615200  0.63119300  1
  C  109  1  0.42079500  0.53207000  0.64767100  1
  C  110  1  0.40740100  0.55021800  0.64495600  1
  C  111  1  0.46670700  0.54435300  0.59716800  1
  C  112  1  0.37782000  0.56398400  0.65812800  1
  C  114  1  0.41120500  0.57326700  0.62609800  1
  C  115  1  0.42940500  0.57880600  0.61089200  1
  C  116  1  0.41829900  0.59834400  0.60989500  1
  C  117  1  0.38703500  0.61060400  0.62214200  1
  C  118  1  0.36706000  0.60433400  0.63595700  1
  C  119  1  0.38045100  0.58642100  0.63899600  1
  C  120  1  0.45787200  0.56438200  0.59703100  1
  C  122  1  0.36376800  0.58118900  0.65462400  1
  C  131  1  0.42317300  0.16463500  0.44392800  1
  C  132  1  0.45028800  0.16460000  0.45911200  1
  C  133  1  0.45935300  0.18535300  0.47905500  1
  C  134  1  0.44473900  0.20589100  0.48210800  1
  C  135  1  0.42068200  0.20643900  0.46617500  1
  C  136  1  0.40731300  0.18557100  0.44802500  1
  C  137  1  0.46658900  0.14366800  0.45394400  1
  C  138  1  0.37776200  0.18496800  0.43423500  1
  C  140  1  0.41112300  0.14366100  0.42499600  1
  C  141  1  0.42931400  0.12291800  0.41947700  1
  C  142  1  0.41823800  0.10237800  0.39992900  1
  C  143  1  0.38698600  0.10235700  0.38765700  1
  C  144  1  0.36701900  0.12244400  0.39392000  1
  C  145  1  0.38039600  0.14340000  0.41182200  1
  C  146  1  0.45772600  0.12348900  0.43393700  1
  C  148  1  0.36372100  0.16425400  0.41703100  1
  C  157  1  0.05154800  0.55219400  0.83410700  1
  C  158  1  0.02547300  0.53639600  0.83394000  1
  C  159  1  0.01652200  0.51665600  0.81298700  1
  C  160  1  0.03027400  0.51428300  0.79253800  1
  C  161  1  0.05348300  0.53071100  0.79225700  1
  C  162  1  0.06665900  0.54879800  0.81324000  1
  C  163  1  0.01032900  0.54064500  0.85487500  1
  C  164  1  0.09540400  0.56317300  0.81403200  1
  C  166  1  0.06348300  0.57098000  0.85521600  1
  C  167  1  0.04622200  0.57565200  0.87596300  1
  C  168  1  0.05681100  0.59510200  0.89669700  1
  C  169  1  0.08837100  0.60735000  0.89692100  1
  C  170  1  0.10734500  0.60207300  0.87675900  1
  C  171  1  0.09352400  0.58467700  0.85565000  1
  C  172  1  0.01911500  0.56041900  0.87528300  1
  C  174  1  0.10945900  0.58021500  0.83483600  1
  C  183  1  0.05116300  0.16408100  0.62545400  1
  C  184  1  0.02495300  0.16423300  0.60987800  1
  C  185  1  0.01580100  0.18518700  0.61115300  1
  C  186  1  0.02964600  0.20564100  0.62917500  1
  C  187  1  0.05300100  0.20593600  0.64583200  1
  C  188  1  0.06627400  0.18495900  0.64290700  1
  C  189  1  0.00983300  0.14328800  0.59320000  1
  C  190  1  0.09513400  0.18418500  0.65643400  1
  C  192  1  0.06321900  0.14297900  0.62309400  1
  C  193  1  0.04598200  0.12221700  0.60703100  1
  C  194  1  0.05668100  0.10148500  0.60571600  1
  C  195  1  0.08831900  0.10128800  0.61769700  1
  C  196  1  0.10726500  0.12146500  0.63256800  1
  C  197  1  0.09335400  0.14256600  0.63631000  1
  C  198  1  0.01877600  0.12287900  0.59252100  1
  C  200  1  0.10927100  0.16339000  0.65264800  1
  C  209  1  0.05121500  0.37268700  0.44591100  1
  C  210  1  0.02503000  0.38827100  0.46165200  1
  C  211  1  0.01588100  0.38702100  0.48134500  1
  C  212  1  0.02977500  0.36900800  0.48378000  1
  C  213  1  0.05310900  0.35234100  0.46741200  1
  C  214  1  0.06634800  0.35524700  0.44934500  1
  C  215  1  0.00987500  0.40493400  0.45737200  1
  C  216  1  0.09518900  0.34171100  0.43503200  1
  C  218  1  0.06324100  0.37503400  0.42715600  1
  C  219  1  0.04599900  0.39109800  0.42246100  1
  C  220  1  0.05669000  0.39240900  0.40304300  1
  C  221  1  0.08828900  0.38040100  0.39083900  1
  C  222  1  0.10726200  0.36552300  0.39612900  1
  C  223  1  0.09335600  0.36181000  0.41351200  1
  C  224  1  0.01879600  0.40560800  0.43763600  1
  C  226  1  0.10927400  0.34546900  0.41799500  1
  C  235  1  0.55134500  0.50717800  0.10296300  1
  C  236  1  0.52519900  0.52294000  0.10313000  1
  C  237  1  0.51609100  0.54263800  0.12408000  1
  C  238  1  0.52998300  0.54505700  0.14452300  1
  C  239  1  0.55326900  0.52866400  0.14481100  1
  C  240  1  0.56647600  0.51059000  0.12383100  1
  C  241  1  0.51003800  0.51867800  0.08219700  1
  C  242  1  0.59527300  0.49624700  0.12304200  1
  C  244  1  0.56334100  0.48841800  0.08185500  1
  C  245  1  0.54610100  0.48374200  0.06109900  1
  C  246  1  0.55675700  0.46431600  0.04036400  1
  C  247  1  0.58834500  0.45209600  0.04015600  1
  C  248  1  0.60731000  0.45737800  0.06032400  1
  C  249  1  0.59342300  0.47474900  0.08142500  1
  C  250  1  0.51894800  0.49895000  0.06177700  1
  C  252  1  0.60934100  0.47921000  0.10224100  1
  C  261  1  0.55146900  0.89519700  0.31159400  1
  C  262  1  0.52541900  0.89503300  0.32723900  1
  C  263  1  0.51648700  0.87408100  0.32603200  1
  C  264  1  0.53022200  0.85363100  0.30795300  1
  C  265  1  0.55340400  0.85334600  0.29123000  1
  C  266  1  0.56656900  0.87432900  0.29412000  1
  C  267  1  0.51028300  0.91596800  0.34392900  1
  C  268  1  0.59530300  0.87512100  0.28052800  1
  C  270  1  0.56340100  0.91630600  0.31391600  1
  C  271  1  0.54614800  0.93705500  0.32999700  1
  C  272  1  0.55674600  0.95779200  0.33128800  1
  C  273  1  0.58830900  0.95801200  0.31926400  1
  C  274  1  0.60727100  0.93784900  0.30437100  1
  C  275  1  0.59344000  0.91673800  0.30065000  1
  C  276  1  0.51903600  0.93637400  0.34454800  1
  C  278  1  0.60936000  0.89592400  0.28429100  1
  C  287  1  0.55122900  0.68666500  0.49101100  1
  C  288  1  0.52502300  0.67109000  0.47528200  1
  C  289  1  0.51588400  0.67236000  0.45560000  1
  C  290  1  0.52973500  0.69038000  0.45316600  1
  C  291  1  0.55308700  0.70703800  0.46953200  1
  C  292  1  0.56634900  0.70411600  0.48758700  1
  C  293  1  0.50989200  0.65441400  0.47955100  1
  C  294  1  0.59520400  0.71764200  0.50189100  1
  C  296  1  0.56327700  0.68430700  0.50975800  1
  C  297  1  0.54602700  0.66824700  0.51445800  1
  C  298  1  0.55671500  0.66693600  0.53387700  1
  C  299  1  0.58835300  0.67891300  0.54605800  1
  C  300  1  0.60731200  0.69378100  0.54075100  1
  C  301  1  0.59340900  0.69752100  0.52338800  1
  C  302  1  0.51882400  0.65373700  0.49928300  1
  C  304  1  0.60933300  0.71385800  0.51890300  1
  C  313  1  0.04968700  0.36932200  0.83382700  1
  C  314  1  0.02273700  0.38459700  0.83392300  1
  C  315  1  0.01231100  0.38336200  0.81321500  1
  C  316  1  0.02534100  0.36511400  0.79252500  1
  C  317  1  0.05017500  0.34887300  0.79197600  1
  C  318  1  0.06417700  0.35185000  0.81278800  1
  C  319  1  0.00674500  0.40062000  0.85486600  1
  C  320  1  0.09296300  0.33809200  0.81324500  1
  C  322  1  0.06248100  0.37175700  0.85481200  1
  C  323  1  0.04509100  0.38745700  0.87568000  1
  C  324  1  0.05702000  0.38883700  0.89624800  1
  C  325  1  0.08847300  0.37666100  0.89613200  1
  C  326  1  0.10760300  0.36233000  0.87584000  1
  C  327  1  0.09302900  0.35865000  0.85489900  1
  C  328  1  0.01639000  0.40122400  0.87515200  1
  C  330  1  0.10817300  0.34210900  0.83388500  1
  C  339  1  0.04968500  0.55530800  0.62882500  1
  C  340  1  0.02275700  0.54010800  0.61355100  1
  C  341  1  0.01236600  0.52063700  0.61480000  1
  C  342  1  0.02538800  0.51823200  0.63307300  1
  C  343  1  0.05019700  0.53394600  0.64931500  1
  C  344  1  0.06417700  0.55177200  0.64631700  1
  C  345  1  0.00675100  0.54500300  0.59751500  1
  C  346  1  0.09294600  0.56600500  0.66007400  1
  C  348  1  0.06246200  0.57384700  0.62636800  1
  C  349  1  0.04506300  0.57899500  0.61065700  1
  C  350  1  0.05696800  0.59818500  0.60926900  1
  C  351  1  0.08844000  0.61024200  0.62142000  1
  C  352  1  0.10759000  0.60427400  0.63574200  1
  C  353  1  0.09300900  0.58704800  0.63946600  1
  C  354  1  0.01640600  0.56466500  0.59687500  1
  C  356  1  0.10815900  0.58260700  0.65602600  1
  C  365  1  0.04979500  0.16435100  0.44288600  1
  C  366  1  0.02288900  0.16427700  0.45810000  1
  C  367  1  0.01252800  0.18500400  0.47757600  1
  C  368  1  0.02553100  0.20567900  0.47997400  1
  C  369  1  0.05030400  0.20620300  0.46424500  1
  C  370  1  0.06427800  0.18537800  0.44641400  1
  C  371  1  0.00689100  0.14334500  0.45321100  1
  C  372  1  0.09302300  0.18489900  0.43216700  1
  C  374  1  0.06253300  0.14335600  0.42433100  1
  C  375  1  0.04509300  0.12250400  0.41917000  1
  C  376  1  0.05692400  0.10193600  0.39993700  1
  C  377  1  0.08844000  0.10200700  0.38790400  1
  C  378  1  0.10760300  0.12229000  0.39387300  1
  C  379  1  0.09307300  0.14324800  0.41111800  1
  C  380  1  0.01642600  0.12305800  0.43349700  1
  C  382  1  0.10825300  0.16424800  0.41557400  1
  C  391  1  0.54960300  0.68991200  0.10320800  1
  C  392  1  0.52259800  0.67466300  0.10310500  1
  C  393  1  0.51214300  0.67592000  0.12381700  1
  C  394  1  0.52515700  0.69416200  0.14451400  1
  C  395  1  0.55004000  0.71038100  0.14506300  1
  C  396  1  0.56409500  0.70738100  0.12425000  1
  C  397  1  0.50659400  0.65865200  0.08216100  1
  C  398  1  0.59292500  0.72111300  0.12379600  1
  C  400  1  0.56242100  0.68747000  0.08222500  1
  C  401  1  0.54500300  0.67179900  0.06135600  1
  C  402  1  0.55693500  0.67042800  0.04079100  1
  C  403  1  0.58844100  0.68256300  0.04090200  1
  C  404  1  0.60757700  0.69686300  0.06120100  1
  C  405  1  0.59301000  0.70055600  0.08214500  1
  C  406  1  0.51628100  0.65804400  0.06187900  1
  C  408  1  0.60819000  0.71707000  0.10315900  1
  C  417  1  0.54968500  0.50404900  0.30821700  1
  C  418  1  0.52277400  0.51925700  0.32350300  1
  C  419  1  0.51239900  0.53873800  0.32226700  1
  C  420  1  0.52542400  0.54114900  0.30399800  1
  C  421  1  0.55021100  0.52542800  0.28774500  1
  C  422  1  0.56417700  0.50758900  0.29072700  1
  C  423  1  0.50677300  0.51436100  0.33954000  1
  C  424  1  0.59293000  0.49334700  0.27696100  1
  C  426  1  0.56243500  0.48549500  0.31065700  1
  C  427  1  0.54503600  0.48034800  0.32636800  1
  C  428  1  0.55692400  0.46115300  0.32774900  1
  C  429  1  0.58836400  0.44907200  0.31557100  1
  C  430  1  0.60751100  0.45501700  0.30123300  1
  C  431  1  0.59296100  0.47227500  0.29754200  1
  C  432  1  0.51638200  0.49467900  0.34015400  1
  C  434  1  0.60811300  0.47672400  0.28098700  1
  C  443  1  0.54963300  0.89502300  0.49413000  1
  C  444  1  0.52259200  0.89511500  0.47899600  1
  C  445  1  0.51212100  0.87440400  0.45954100  1
  C  446  1  0.52521800  0.85371500  0.45707200  1
  C  447  1  0.55015600  0.85316900  0.47272200  1
  C  448  1  0.56417700  0.87398600  0.49054100  1
  C  449  1  0.50654800  0.91605200  0.48394500  1
  C  450  1  0.59302700  0.87444800  0.50471900  1
  C  452  1  0.56244900  0.91601000  0.51266900  1
  C  453  1  0.54501700  0.93687400  0.51786600  1
  C  454  1  0.55696600  0.95744300  0.53705000  1
  C  455  1  0.58848200  0.95733600  0.54906600  1
  C  456  1  0.60765100  0.93704200  0.54305700  1
  C  457  1  0.59306000  0.91609900  0.52582100  1
  C  458  1  0.51627500  0.93634400  0.50359500  1
  C  460  1  0.60825600  0.89509100  0.52132400  1
  C  469  1  0.92421400  0.50610900  0.10262800  1
  C  470  1  0.95037900  0.52185200  0.10287100  1
  C  471  1  0.96078600  0.54103200  0.12382700  1
  C  472  1  0.94832900  0.54275300  0.14431900  1
  C  473  1  0.92407500  0.52660500  0.14448200  1
  C  474  1  0.91028800  0.50892000  0.12350400  1
  C  475  1  0.96542700  0.51786000  0.08199100  1
  C  476  1  0.88219100  0.49415100  0.12272200  1
  C  478  1  0.91152000  0.48778200  0.08146700  1
  C  479  1  0.92813500  0.48349900  0.06067900  1
  C  480  1  0.91669300  0.46446500  0.03987800  1
  C  481  1  0.88485500  0.45244700  0.03969300  1
  C  482  1  0.86658500  0.45739200  0.05997800  1
  C  483  1  0.88153400  0.47408600  0.08108400  1
  C  484  1  0.95572000  0.49852600  0.06143000  1
  C  486  1  0.86698200  0.47776800  0.10195800  1
  C  495  1  0.92425900  0.89555800  0.31088600  1
  C  496  1  0.95049600  0.89533000  0.32635900  1
  C  497  1  0.96097600  0.87437900  0.32456600  1
  C  498  1  0.94852800  0.85387500  0.30580600  1
  C  499  1  0.92419400  0.85370100  0.28952400  1
  C  500  1  0.91033500  0.87467300  0.29283400  1
  C  501  1  0.96554400  0.91621500  0.34323300  1
  C  502  1  0.88217700  0.87543900  0.27887100  1
  C  504  1  0.91151000  0.91671200  0.31372800  1
  C  505  1  0.92811800  0.93750600  0.33022000  1
  C  506  1  0.91663000  0.95830200  0.33199200  1
  C  507  1  0.88477400  0.95847200  0.32016600  1
  C  508  1  0.86651700  0.93817700  0.30483300  1
  C  509  1  0.88148900  0.91707900  0.30042800  1
  C  510  1  0.95574800  0.93677300  0.34448100  1
  C  512  1  0.86694100  0.89619500  0.28324900  1
  C  521  1  0.92432700  0.68742100  0.49209700  1
  C  522  1  0.95050700  0.67191700  0.47637400  1
  C  523  1  0.96094700  0.67366300  0.45718200  1
  C  524  1  0.94847200  0.69241400  0.45542500  1
  C  525  1  0.92418800  0.70872500  0.47154500  1
  C  526  1  0.91039400  0.70546000  0.48924900  1
  C  527  1  0.96555500  0.65505000  0.48039600  1
  C  528  1  0.88228400  0.71945300  0.50400000  1
  C  530  1  0.91161500  0.68460900  0.51043500  1
  C  531  1  0.92820000  0.66810700  0.51473000  1
  C  532  1  0.91671900  0.66634700  0.53376200  1
  C  533  1  0.88491000  0.67821700  0.54578700  1
  C  534  1  0.86665300  0.69356600  0.54084400  1
  C  535  1  0.88163200  0.69793500  0.52412500  1
  C  536  1  0.95580700  0.65382900  0.49972700  1
  C  538  1  0.86711100  0.71512300  0.52042400  1
  C  547  1  0.42423600  0.55327000  0.83438500  1
  C  548  1  0.45041000  0.53753400  0.83414300  1
  C  549  1  0.46082500  0.51834800  0.81319400  1
  C  550  1  0.44835300  0.51662300  0.79269900  1
  C  551  1  0.42407900  0.53276000  0.79253000  1
  C  552  1  0.41029700  0.55044900  0.81350800  1
  C  553  1  0.46547100  0.54153500  0.85502300  1
  C  554  1  0.38219400  0.56521100  0.81428400  1
  C  556  1  0.41153300  0.57159600  0.85554500  1
  C  557  1  0.42812500  0.57587200  0.87633400  1
  C  558  1  0.41665800  0.59489900  0.89713500  1
  C  559  1  0.38482500  0.60691900  0.89731000  1
  C  560  1  0.36655900  0.60196800  0.87701700  1
  C  561  1  0.38154400  0.58528700  0.85592300  1
  C  562  1  0.45570000  0.56084400  0.87558900  1
  C  564  1  0.36701100  0.58161200  0.83504700  1
  C  573  1  0.42430500  0.16384400  0.62624100  1
  C  574  1  0.45053900  0.16406700  0.61076600  1
  C  575  1  0.46101500  0.18501400  0.61254200  1
  C  576  1  0.44852100  0.20551800  0.63128200  1
  C  577  1  0.42418100  0.20570000  0.64756600  1
  C  578  1  0.41035700  0.18472900  0.64427700  1
  C  579  1  0.46559500  0.14317600  0.59390000  1
  C  580  1  0.38221300  0.18396700  0.65824800  1
  C  582  1  0.41157100  0.14269100  0.62341500  1
  C  583  1  0.42819100  0.12189700  0.60693400  1
  C  584  1  0.41670200  0.10110100  0.60516500  1
  C  585  1  0.38484400  0.10093500  0.61699200  1
  C  586  1  0.36658100  0.12123000  0.63231800  1
  C  587  1  0.38154900  0.14232700  0.63671500  1
  C  588  1  0.45584600  0.12262600  0.59268300  1
  C  590  1  0.36698600  0.16321300  0.65388100  1
  C  599  1  0.42424100  0.37196800  0.44498500  1
  C  600  1  0.45041800  0.38746400  0.46071700  1
  C  601  1  0.46082200  0.38569300  0.47989800  1
  C  602  1  0.44838600  0.36692200  0.48162900  1
  C  603  1  0.42412000  0.35061300  0.46548600  1
  C  604  1  0.41031600  0.35390800  0.44780400  1
  C  605  1  0.46546900  0.40434700  0.45672000  1
  C  606  1  0.38220200  0.33992700  0.43304700  1
  C  608  1  0.41153600  0.37480100  0.42665900  1
  C  609  1  0.42814400  0.39130500  0.42237300  1
  C  610  1  0.41669400  0.39307200  0.40333900  1
  C  611  1  0.38485500  0.38123600  0.39132400  1
  C  612  1  0.36659500  0.36589300  0.39627100  1
  C  613  1  0.38154700  0.36148600  0.41296700  1
  C  614  1  0.45573000  0.40558400  0.43739500  1
  C  616  1  0.36700000  0.34429700  0.41665600  1
  C  625  1  0.91087300  0.76386500  0.19574300  1
  C  627  1  0.91552500  0.77288100  0.23474800  1
  C  628  1  0.91046700  0.79635300  0.24243500  1
  C  630  1  0.90463500  0.78721100  0.20340200  1
  C  631  1  0.89952400  0.79564600  0.19011400  1
  C  632  1  0.92192800  0.76446000  0.24792100  1
  C  635  1  0.91644500  0.74748500  0.17316100  1
  C  637  1  0.91373100  0.81357000  0.26499500  1
  C  639  1  0.91064700  0.52272600  0.23434700  1
  C  641  1  0.91531400  0.55269000  0.22530100  1
  C  642  1  0.91026300  0.53689200  0.20183200  1
  C  644  1  0.90444900  0.50702000  0.21100100  1
  C  645  1  0.89933400  0.48530100  0.20258500  1
  C  646  1  0.92165700  0.57429000  0.23371000  1
  C  649  1  0.91617600  0.51654300  0.25074600  1
  C  651  1  0.91351900  0.54221900  0.18460400  1
  C  653  1  0.91063000  0.80244600  0.47539500  1
  C  655  1  0.91539600  0.76344200  0.44542800  1
  C  656  1  0.91034700  0.75576100  0.46121900  1
  C  658  1  0.90443000  0.79479800  0.49109300  1
  C  659  1  0.89927100  0.80809600  0.51280800  1
  C  660  1  0.92187600  0.75026900  0.42384300  1
  C  663  1  0.91612300  0.82503000  0.48157800  1
  C  665  1  0.91366700  0.73320800  0.45588900  1
  C  667  1  0.41081700  0.29555500  0.74128800  1
  C  669  1  0.41550200  0.28652500  0.70228300  1
  C  670  1  0.41035200  0.26305900  0.69459700  1
  C  672  1  0.40452200  0.27221800  0.73364000  1
  C  673  1  0.39941300  0.26379500  0.74693700  1
  C  674  1  0.42194800  0.29493500  0.68910400  1
  C  677  1  0.41643500  0.31194600  0.76386200  1
  C  679  1  0.41360000  0.24583200  0.67203800  1
  C  681  1  0.41075900  0.53665900  0.70267200  1
  C  683  1  0.41537800  0.50668200  0.71170500  1
  C  684  1  0.41032200  0.52247800  0.73517600  1
  C  686  1  0.40452800  0.55235800  0.72601600  1
  C  687  1  0.39943300  0.57408100  0.73444100  1
  C  688  1  0.42176400  0.48508800  0.70329500  1
  C  691  1  0.41634100  0.54285000  0.68628400  1
  C  693  1  0.41355600  0.51714500  0.75240200  1
  C  695  1  0.41072600  0.25684400  0.46156600  1
  C  697  1  0.41540600  0.29585100  0.49154500  1
  C  698  1  0.41035700  0.30353400  0.47575600  1
  C  700  1  0.40453300  0.26449700  0.44587000  1
  C  701  1  0.39941300  0.25120200  0.42414900  1
  C  702  1  0.42174200  0.30903200  0.51314600  1
  C  705  1  0.41624000  0.23425900  0.45537400  1
  C  707  1  0.41359400  0.32609500  0.48109700  1
  C  709  1  0.06264300  0.53622400  0.74231300  1
  C  711  1  0.05853900  0.50663000  0.70311900  1
  C  712  1  0.06352400  0.52270100  0.69578600  1
  C  714  1  0.06879800  0.55220600  0.73502200  1
  C  715  1  0.07365600  0.57390300  0.74859600  1
  C  716  1  0.05238500  0.48505200  0.68966700  1
  C  719  1  0.05698200  0.54205200  0.76478600  1
  C  721  1  0.06032600  0.51769900  0.67332500  1
  C  723  1  0.06240100  0.25590200  0.70126300  1
  C  725  1  0.05836600  0.29509600  0.71085400  1
  C  726  1  0.06349400  0.30243600  0.73424800  1
  C  728  1  0.06867200  0.26319400  0.72452400  1
  C  729  1  0.07349100  0.24962500  0.73265600  1
  C  730  1  0.05222800  0.30855000  0.70272900  1
  C  733  1  0.05661300  0.23343800  0.68463000  1
  C  735  1  0.06034800  0.32490300  0.75171200  1
  C  737  1  0.06249200  0.29691400  0.46195100  1
  C  739  1  0.05853700  0.28731600  0.49155200  1
  C  740  1  0.06358200  0.26391800  0.47548200  1
  C  742  1  0.06871300  0.27364900  0.44597100  1
  C  743  1  0.07351600  0.26552000  0.42427000  1
  C  744  1  0.05245400  0.29543700  0.51313600  1
  C  747  1  0.05672300  0.31354300  0.45611500  1
  C  749  1  0.06045800  0.24645200  0.48048000  1
  C  751  1  0.56254200  0.52317500  0.19476400  1
  C  753  1  0.55850400  0.55276500  0.23396400  1
  C  754  1  0.56353600  0.53669300  0.24129100  1
  C  756  1  0.56871900  0.50719000  0.20204900  1
  C  757  1  0.57355800  0.48549200  0.18847400  1
  C  758  1  0.55246300  0.57435300  0.24742900  1
  C  761  1  0.55684500  0.51734400  0.17229300  1
  C  763  1  0.56039800  0.54169000  0.26375400  1
  C  765  1  0.56252300  0.80338500  0.23577500  1
  C  767  1  0.55836400  0.76419700  0.22619000  1
  C  768  1  0.56333500  0.75685200  0.20278200  1
  C  770  1  0.56867000  0.79608200  0.21249900  1
  C  771  1  0.57355000  0.80964600  0.20436600  1
  C  772  1  0.55219800  0.75075500  0.23432700  1
  C  775  1  0.55689100  0.82586500  0.25241600  1
  C  777  1  0.56011700  0.73438600  0.18533000  1
  C  779  1  0.56246800  0.76246600  0.47498500  1
  C  781  1  0.55838300  0.77204800  0.44537700  1
  C  782  1  0.56350900  0.79544400  0.46142500  1
  C  784  1  0.56873800  0.78572900  0.49094700  1
  C  785  1  0.57357700  0.79386700  0.51264800  1
  C  786  1  0.55222300  0.76391700  0.42379900  1
  C  789  1  0.55669900  0.74583700  0.48082300  1
  C  791  1  0.56033800  0.81290600  0.45642000  1
  C  793  1  0.77747500  0.71212400  0.04933300  1
  C  795  1  0.72224200  0.70557400  0.06498600  1
  C  796  1  0.69996500  0.71013600  0.05050800  1
  C  798  1  0.75521700  0.71755500  0.03555300  1
  C  799  1  0.76792200  0.72303000  0.02102800  1
  C  800  1  0.71055200  0.69884100  0.07876900  1
  C  803  1  0.81557500  0.70956000  0.04759700  1
  C  805  1  0.66217300  0.70665700  0.04719500  1
  C  807  1  0.77745400  0.42798400  0.28608200  1
  C  809  1  0.72219200  0.45016100  0.29264000  1
  C  810  1  0.69993800  0.43111000  0.28806400  1
  C  812  1  0.75522100  0.40876700  0.28066500  1
  C  813  1  0.76795800  0.38876900  0.27517500  1
  C  814  1  0.71047200  0.47066400  0.29933000  1
  C  817  1  0.81556000  0.42881900  0.28862300  1
  C  819  1  0.66214300  0.43126800  0.29153600  1
  C  821  1  0.77752400  0.94892600  0.57023900  1
  C  823  1  0.72229100  0.93327000  0.54803900  1
  C  824  1  0.70001800  0.94779600  0.56706300  1
  C  826  1  0.75527100  0.96273500  0.58944000  1
  C  827  1  0.76798700  0.97725200  0.60943900  1
  C  828  1  0.71062000  0.91950400  0.52751100  1
  C  831  1  0.81562800  0.95065100  0.56940100  1
  C  833  1  0.66222000  0.95108400  0.56688600  1
  C  835  1  0.27755600  0.34725000  0.88770000  1
  C  837  1  0.22226600  0.35380600  0.87210400  1
  C  838  1  0.20003100  0.34914200  0.88652600  1
  C  840  1  0.25535700  0.34174900  0.90144800  1
  C  841  1  0.26812000  0.33627900  0.91596400  1
  C  842  1  0.21051500  0.36060100  0.85838100  1
  C  845  1  0.31564300  0.34988300  0.88944900  1
  C  847  1  0.16224400  0.35261600  0.88987800  1
  C  849  1  0.27750400  0.63137100  0.65093000  1
  C  851  1  0.22224900  0.60919400  0.64440600  1
  C  852  1  0.19999200  0.62823400  0.64894800  1
  C  854  1  0.25526300  0.65058400  0.65634200  1
  C  855  1  0.26798800  0.67057600  0.66179600  1
  C  856  1  0.21054000  0.58868300  0.63769000  1
  C  859  1  0.31560400  0.63052800  0.64836200  1
  C  861  1  0.16220000  0.62806600  0.64546100  1
  C  863  1  0.27753400  0.11035300  0.36680300  1
  C  865  1  0.22227700  0.12602700  0.38896700  1
  C  866  1  0.20000300  0.11155700  0.36992000  1
  C  868  1  0.25529300  0.09653500  0.34759400  1
  C  869  1  0.26802100  0.08198400  0.32760900  1
  C  870  1  0.21055900  0.13986600  0.40946400  1
  C  873  1  0.31563400  0.10863000  0.36764400  1
  C  875  1  0.16221900  0.10822300  0.37009000  1
  C  877  1  0.19676600  0.62922500  0.88904500  1
  C  879  1  0.25203400  0.60721300  0.87294500  1
  C  880  1  0.27427800  0.62605700  0.88790200  1
  C  882  1  0.21899300  0.64828900  0.90326700  1
  C  883  1  0.20625100  0.66812800  0.91819000  1
  C  884  1  0.26373000  0.58682300  0.85871000  1
  C  887  1  0.15867400  0.62828200  0.89075300  1
  C  889  1  0.31205300  0.62576400  0.89121200  1
  C  891  1  0.19674700  0.10925900  0.64746200  1
  C  893  1  0.25203700  0.12527900  0.64147400  1
  C  894  1  0.27426900  0.11043900  0.64553800  1
  C  896  1  0.21894900  0.09511200  0.65242300  1
  C  897  1  0.20618800  0.08020700  0.65735800  1
  C  898  1  0.26378200  0.13945200  0.63525100  1
  C  901  1  0.15867100  0.10752700  0.64476800  1
  C  903  1  0.31203100  0.10706700  0.64190700  1
  C  905  1  0.19676900  0.35072000  0.36908600  1
  C  907  1  0.25203700  0.35665500  0.39110400  1
  C  908  1  0.27428300  0.35269100  0.37223800  1
  C  910  1  0.21900100  0.34582800  0.35000800  1
  C  911  1  0.20626800  0.34090600  0.33016300  1
  C  912  1  0.26375700  0.36279900  0.41148700  1
  C  915  1  0.15868200  0.35336600  0.37001600  1
  C  917  1  0.31205300  0.35630600  0.37251900  1
  C  919  1  0.69673900  0.43024600  0.04801300  1
  C  921  1  0.75202600  0.45225500  0.06405000  1
  C  922  1  0.77425700  0.43338000  0.04915000  1
  C  924  1  0.71895200  0.41116500  0.03380500  1
  C  925  1  0.70620000  0.39131900  0.01890800  1
  C  926  1  0.76376700  0.47262500  0.07831200  1
  C  929  1  0.65864200  0.43117300  0.04633300  1
  C  931  1  0.81202600  0.43365200  0.04580700  1
  C  933  1  0.69671500  0.95013200  0.28953200  1
  C  935  1  0.75197500  0.93404600  0.29547100  1
  C  936  1  0.77422300  0.94900400  0.29158800  1
  C  938  1  0.71895000  0.96435200  0.28469000  1
  C  939  1  0.70621600  0.97927000  0.27976300  1
  C  940  1  0.76366600  0.91982000  0.30164000  1
  C  943  1  0.65862000  0.95183800  0.29216900  1
  C  945  1  0.81199500  0.95232300  0.29520800  1
  C  947  1  0.69678100  0.70866800  0.56787000  1
  C  949  1  0.75209600  0.70266100  0.54587700  1
  C  950  1  0.77430700  0.70674000  0.56479500  1
  C  952  1  0.71896100  0.71364000  0.58698800  1
  C  953  1  0.70617800  0.71858900  0.60682900  1
  C  954  1  0.76386600  0.69642500  0.52548200  1
  C  957  1  0.65870200  0.70597700  0.56689700  1
  C  959  1  0.81206800  0.70311500  0.56455400  1
  C  961  1  0.00667300  0.62655800  0.94972500  1
  C  963  1  0.97715200  0.61250300  0.97208600  1
  C  964  1  0.96481600  0.63469100  0.98806300  1
  C  966  1  0.99446100  0.64876600  0.96576600  1
  C  967  1  0.00073900  0.66701700  0.96457600  1
  C  968  1  0.97061700  0.59448300  0.97360900  1
  C  971  1  0.02666800  0.62153000  0.93028700  1
  C  973  1  0.94347600  0.64030100  0.00720400  1
  C  975  1  0.00672300  0.41404400  0.37158400  1
  C  977  1  0.97714100  0.45045000  0.38568200  1
  C  978  1  0.96481200  0.44426500  0.36350100  1
  C  980  1  0.99451700  0.40790300  0.34938200  1
  C  981  1  0.00082400  0.38848000  0.33111700  1
  C  982  1  0.97057500  0.46997400  0.40372000  1
  C  985  1  0.02673700  0.39962600  0.37659200  1
  C  987  1  0.94345100  0.45780500  0.35791500  1
  C  989  1  0.00674800  0.04838100  0.58411000  1
  C  991  1  0.97716500  0.02604200  0.54771200  1
  C  992  1  0.96486300  0.01005300  0.55391400  1
  C  994  1  0.99457200  0.03233000  0.59027000  1
  C  995  1  0.00089300  0.03350400  0.60969900  1
  C  996  1  0.97058500  0.02453400  0.52817900  1
  C  999  1  0.02675900  0.06781600  0.59851700  1
  C  1001  1  0.94350300  0.99092200  0.54039400  1
  C  1003  1  0.50674600  0.43285700  0.98728600  1
  C  1005  1  0.47720800  0.44692800  0.96494300  1
  C  1006  1  0.46490700  0.42473800  0.94894400  1
  C  1008  1  0.49456600  0.41064800  0.97122500  1
  C  1009  1  0.50085800  0.39239100  0.97240200  1
  C  1010  1  0.47064900  0.46495500  0.96343900  1
  C  1013  1  0.52672100  0.43788000  0.00673000  1
  C  1015  1  0.44355900  0.41913700  0.92980900  1
  C  1017  1  0.50675900  0.64533400  0.56537200  1
  C  1019  1  0.47719200  0.60892900  0.55130900  1
  C  1020  1  0.46487100  0.61513300  0.57349700  1
  C  1022  1  0.49456000  0.65149300  0.58758000  1
  C  1023  1  0.50086100  0.67092800  0.60583400  1
  C  1024  1  0.47062700  0.58939600  0.53328300  1
  C  1027  1  0.52676500  0.65974300  0.56034600  1
  C  1029  1  0.44351200  0.60160600  0.57910200  1
  C  1031  1  0.50667700  0.01085600  0.35291200  1
  C  1033  1  0.47713700  0.03319400  0.38932600  1
  C  1034  1  0.46483000  0.04919300  0.38313800  1
  C  1036  1  0.49448600  0.02691500  0.34676500  1
  C  1037  1  0.50078600  0.02574700  0.32733600  1
  C  1038  1  0.47057700  0.03469700  0.40885800  1
  C  1041  1  0.52667700  0.99142200  0.33849300  1
  C  1043  1  0.44348400  0.06833000  0.39667500  1
  C  1045  1  0.96736300  0.43317200  0.98718100  1
  C  1047  1  0.99705500  0.44734200  0.96497300  1
  C  1048  1  0.01010300  0.42525600  0.94924900  1
  C  1050  1  0.98030600  0.41106700  0.97140100  1
  C  1051  1  0.97434200  0.39283000  0.97267000  1
  C  1052  1  0.00326300  0.46535300  0.96337600  1
  C  1055  1  0.94709200  0.43814000  0.00649500  1
  C  1057  1  0.03160000  0.41971700  0.93019700  1
  C  1059  1  0.96726600  0.64486000  0.56502700  1
  C  1061  1  0.99690700  0.60846000  0.55081600  1
  C  1062  1  0.00995200  0.61479000  0.57289400  1
  C  1064  1  0.98020200  0.65115200  0.58712500  1
  C  1065  1  0.97427500  0.67065400  0.60537500  1
  C  1066  1  0.00310100  0.58886300  0.53278900  1
  C  1069  1  0.94704400  0.65923600  0.56007800  1
  C  1071  1  0.03144600  0.60125500  0.57840800  1
  C  1073  1  0.96724800  0.01101600  0.35339700  1
  C  1075  1  0.99692300  0.03323500  0.38978000  1
  C  1076  1  0.00997400  0.04895500  0.38341500  1
  C  1078  1  0.98019500  0.02679300  0.34706800  1
  C  1079  1  0.97425200  0.02551300  0.32755500  1
  C  1080  1  0.00312500  0.03483600  0.40938900  1
  C  1083  1  0.94700400  0.99169100  0.33904600  1
  C  1085  1  0.03147900  0.06800700  0.39692300  1
  C  1087  1  0.46725500  0.62617100  0.94986500  1
  C  1089  1  0.49693600  0.61197300  0.97205400  1
  C  1090  1  0.50998300  0.63405500  0.98779200  1
  C  1092  1  0.48019800  0.64827100  0.96565900  1
  C  1093  1  0.47424400  0.66651700  0.96440400  1
  C  1094  1  0.50314300  0.59395300  0.97363300  1
  C  1097  1  0.44699400  0.62121700  0.93055100  1
  C  1099  1  0.53148300  0.63957800  0.00684100  1
  C  1101  1  0.46727700  0.41452800  0.37206000  1
  C  1103  1  0.49693000  0.45092200  0.38624600  1
  C  1104  1  0.50996900  0.44457600  0.36416400  1
  C  1106  1  0.48021100  0.40822000  0.34995800  1
  C  1107  1  0.47426300  0.38871700  0.33171600  1
  C  1108  1  0.50312900  0.47052600  0.40426500  1
  C  1111  1  0.44703200  0.40016700  0.37702100  1
  C  1113  1  0.53145500  0.45810200  0.35863300  1
  C  1115  1  0.46726300  0.04836000  0.58372400  1
  C  1117  1  0.49694100  0.02617300  0.54733700  1
  C  1118  1  0.50998800  0.01043300  0.55367700  1
  C  1120  1  0.48020300  0.03256300  0.59002700  1
  C  1121  1  0.47426000  0.03382200  0.60953100  1
  C  1122  1  0.50314800  0.02459600  0.52773800  1
  C  1125  1  0.44700500  0.06767500  0.59808300  1
  C  1127  1  0.53149100  0.99138800  0.54015100  1
  C  1129  1  0.00281400  0.59330800  0.13456500  1
  C  1131  1  0.01842400  0.60605000  0.10836200  1
  C  1132  1  0.00681100  0.62838800  0.12429900  1
  C  1134  1  0.99221300  0.61578000  0.15075300  1
  C  1135  1  0.97802000  0.62179900  0.17058300  1
  C  1136  1  0.02988600  0.59989800  0.08793700  1
  C  1139  1  0.99733500  0.57504000  0.13784400  1
  C  1141  1  0.00401200  0.64611200  0.11985100  1
  C  1143  1  0.00291600  0.63218200  0.40495700  1
  C  1145  1  0.01880900  0.59324600  0.39204900  1
  C  1146  1  0.00661300  0.58684800  0.36981400  1
  C  1148  1  0.99165500  0.62590400  0.38259500  1
  C  1149  1  0.97706300  0.63972900  0.37672200  1
  C  1150  1  0.03081600  0.57898200  0.39807200  1
  C  1153  1  0.99776600  0.65373400  0.42328700  1
  C  1155  1  0.00378900  0.56468200  0.35206900  1
  C  1157  1  0.00312800  0.86362500  0.36596100  1
  C  1159  1  0.01896100  0.88962000  0.40491600  1
  C  1160  1  0.00663200  0.87379100  0.41129200  1
  C  1162  1  0.99177000  0.84753800  0.37221300  1
  C  1163  1  0.97715800  0.82785600  0.35836100  1
  C  1164  1  0.03090700  0.90991700  0.41920400  1
  C  1167  1  0.99808500  0.86042900  0.34441400  1
  C  1169  1  0.00365900  0.87822500  0.43345600  1
  C  1171  1  0.50288900  0.46607300  0.80241700  1
  C  1173  1  0.51851800  0.45331900  0.82860800  1
  C  1174  1  0.50694400  0.43097400  0.81265900  1
  C  1176  1  0.49232200  0.44360100  0.78621600  1
  C  1177  1  0.47805600  0.43759800  0.76640900  1
  C  1178  1  0.52996900  0.45946800  0.84903200  1
  C  1181  1  0.49742300  0.48435800  0.79916100  1
  C  1183  1  0.50412000  0.41324900  0.81710300  1
  C  1185  1  0.50288400  0.42719800  0.53212800  1
  C  1187  1  0.51860900  0.46613500  0.54491000  1
  C  1188  1  0.50671000  0.47255500  0.56720300  1
  C  1190  1  0.49198400  0.43349900  0.55455600  1
  C  1191  1  0.47760500  0.41969700  0.56052700  1
  C  1192  1  0.53028800  0.48039200  0.53879400  1
  C  1195  1  0.49756600  0.40564000  0.51384700  1
  C  1197  1  0.50388000  0.49473200  0.58491700  1
  C  1199  1  0.50300000  0.19571800  0.57108200  1
  C  1201  1  0.51906900  0.16975400  0.53216200  1
  C  1202  1  0.50656400  0.18551500  0.52573900  1
  C  1204  1  0.49141400  0.21173100  0.56478200  1
  C  1205  1  0.47660000  0.23135900  0.57859100  1
  C  1206  1  0.53133400  0.14952900  0.51791700  1
  C  1209  1  0.49802000  0.19894100  0.59264600  1
  C  1211  1  0.50374000  0.18108500  0.50356800  1
  C  1213  1  0.97036100  0.42499800  0.80288500  1
  C  1215  1  0.95497400  0.46412800  0.82839500  1
  C  1216  1  0.96826200  0.47016900  0.81249700  1
  C  1218  1  0.98272800  0.43092200  0.78673300  1
  C  1219  1  0.99765500  0.41680400  0.76724300  1
  C  1220  1  0.94268600  0.47867400  0.84851300  1
  C  1223  1  0.97473400  0.40351200  0.79995500  1
  C  1225  1  0.97173400  0.49220800  0.81664500  1
  C  1227  1  0.97042500  0.19531800  0.52958600  1
  C  1229  1  0.95537700  0.16957000  0.54297100  1
  C  1230  1  0.96774200  0.18563800  0.56508900  1
  C  1232  1  0.98184500  0.21163200  0.55183400  1
  C  1233  1  0.99630000  0.23129200  0.55740900  1
  C  1234  1  0.94372800  0.14928200  0.53723100  1
  C  1237  1  0.97524100  0.19832400  0.51110800  1
  C  1239  1  0.97111400  0.18148000  0.58297300  1
  C  1241  1  0.97039200  0.46859600  0.57309000  1
  C  1243  1  0.95528300  0.45517900  0.53395700  1
  C  1244  1  0.96790800  0.43310800  0.52789600  1
  C  1246  1  0.98207700  0.44638700  0.56713600  1
  C  1247  1  0.99660600  0.44083900  0.58122400  1
  C  1248  1  0.94347000  0.46089000  0.51941900  1
  C  1251  1  0.97512700  0.48707400  0.59458100  1
  C  1253  1  0.97129700  0.41523300  0.50584600  1
  C  1255  1  0.47007600  0.63435800  0.13412800  1
  C  1257  1  0.45442800  0.59524700  0.10874100  1
  C  1258  1  0.46806200  0.58919700  0.12456200  1
  C  1260  1  0.48286700  0.62842400  0.15019300  1
  C  1261  1  0.49811100  0.64253000  0.16957700  1
  C  1262  1  0.44170900  0.58071700  0.08873800  1
  C  1265  1  0.47426300  0.65584800  0.13704200  1
  C  1267  1  0.47148900  0.56716200  0.12044000  1
  C  1269  1  0.47010700  0.86406100  0.40764800  1
  C  1271  1  0.45452700  0.88943400  0.39389400  1
  C  1272  1  0.46820500  0.87360400  0.37203800  1
  C  1274  1  0.48288400  0.84797400  0.38565400  1
  C  1275  1  0.49808600  0.82858300  0.38039300  1
  C  1276  1  0.44192400  0.90946400  0.39937100  1
  C  1279  1  0.47426600  0.86117300  0.42624200  1
  C  1281  1  0.47170600  0.87772800  0.35413000  1
  C  1283  1  0.47035400  0.59076600  0.36392700  1
  C  1285  1  0.45521000  0.60423100  0.40306300  1
  C  1286  1  0.46777800  0.62630600  0.40909600  1
  C  1288  1  0.48198900  0.61297100  0.36984500  1
  C  1289  1  0.49659200  0.61848400  0.35574900  1
  C  1290  1  0.44339900  0.59854300  0.41761800  1
  C  1293  1  0.47507800  0.57225600  0.34245000  1
  C  1295  1  0.47117500  0.64420100  0.43113400  1
  N  23  1  0.91292400  0.72609300  0.16597500  1
  N  24  1  0.97434300  0.65791200  0.12576100  1
  N  25  1  0.83294000  0.70368500  0.06032700  1
  N  26  1  0.93764000  0.66122400  0.02210600  1
  N  49  1  0.91262700  0.53076800  0.27213000  1
  N  50  1  0.97407700  0.55878900  0.34030900  1
  N  51  1  0.83286900  0.44744600  0.29451300  1
  N  52  1  0.93758300  0.45179300  0.33699700  1
  N  75  1  0.91250600  0.83219200  0.46735800  1
  N  76  1  0.97386600  0.87237900  0.43929200  1
  N  77  1  0.83295700  0.93789100  0.55078900  1
  N  78  1  0.93770000  0.97601300  0.54640900  1
  N  101  1  0.41289300  0.33333333  0.77104033  1
  N  102  1  0.47442000  0.40147700  0.81120400  1
  N  103  1  0.33297000  0.35578300  0.87672400  1
  N  104  1  0.43771800  0.39821800  0.91490000  1
  N  127  1  0.41278800  0.52864100  0.66489700  1
  N  128  1  0.47419400  0.50062800  0.59670300  1
  N  129  1  0.33294800  0.61191600  0.64249000  1
  N  130  1  0.43767100  0.60762400  0.60002400  1
  N  153  1  0.41268600  0.22709000  0.46959100  1
  N  154  1  0.47403200  0.18693900  0.49765700  1
  N  155  1  0.33295100  0.12137600  0.38626500  1
  N  156  1  0.43762400  0.08323400  0.39065800  1
  N  179  1  0.06119800  0.52768800  0.77171700  1
  N  180  1  0.00202400  0.49788800  0.81113100  1
  N  181  1  0.14140700  0.60971200  0.87775700  1
  N  182  1  0.03820400  0.60141100  0.91595900  1
  N  205  1  0.06075500  0.22648100  0.66332500  1
  N  206  1  0.00132500  0.18706900  0.59424900  1
  N  207  1  0.14137400  0.12048500  0.63915600  1
  N  208  1  0.03811300  0.08220700  0.59276500  1
  N  231  1  0.06087100  0.33484900  0.47046600  1
  N  232  1  0.00150700  0.40395800  0.50014400  1
  N  233  1  0.14137400  0.35895400  0.38857700  1
  N  234  1  0.03812400  0.40537000  0.39672600  1
  N  257  1  0.56101700  0.53170400  0.16535300  1
  N  258  1  0.50175500  0.56144900  0.12594800  1
  N  259  1  0.64138300  0.44975200  0.05930500  1
  N  260  1  0.53818000  0.45800700  0.02109100  1
  N  283  1  0.56110300  0.83280400  0.27371300  1
  N  284  1  0.50201700  0.87223400  0.34295700  1
  N  285  1  0.64134200  0.93884200  0.29773900  1
  N  286  1  0.53814900  0.97705800  0.34425300  1
  N  309  1  0.56083600  0.72453100  0.46647800  1
  N  310  1  0.50141100  0.65545200  0.43681400  1
  N  311  1  0.64142200  0.70036500  0.54832200  1
  N  312  1  0.53813600  0.65398700  0.54020400  1
  N  335  1  0.05727600  0.32977100  0.77252900  1
  N  336  1  0.99645300  0.40124600  0.81359800  1
  N  337  1  0.14207100  0.35596700  0.87632200  1
  N  338  1  0.03794200  0.39880400  0.91548800  1
  N  361  1  0.05723800  0.53363300  0.66843900  1
  N  362  1  0.99663500  0.50309200  0.59689400  1
  N  363  1  0.14206000  0.61113300  0.64207000  1
  N  364  1  0.03786200  0.60745800  0.59931200  1
  N  387  1  0.05733400  0.22563400  0.46454300  1
  N  388  1  0.99677000  0.18462100  0.49510400  1
  N  389  1  0.14207600  0.12177600  0.38701700  1
  N  390  1  0.03783500  0.08270100  0.39070300  1
  N  413  1  0.55712000  0.72949500  0.16450400  1
  N  414  1  0.49611800  0.65807800  0.12343400  1
  N  415  1  0.64205200  0.70320900  0.06070700  1
  N  416  1  0.53784700  0.66048600  0.02155500  1
  N  439  1  0.55727400  0.52574800  0.26862600  1
  N  440  1  0.49663800  0.55627200  0.34016600  1
  N  441  1  0.64199700  0.44819600  0.29492100  1
  N  442  1  0.53783600  0.45189100  0.33772400  1
  N  465  1  0.55729100  0.83372200  0.47236900  1
  N  466  1  0.49612900  0.87478300  0.44207500  1
  N  467  1  0.64212100  0.93756900  0.54991400  1
  N  468  1  0.53786600  0.97667500  0.54634600  1
  N  491  1  0.91711300  0.52651100  0.16372500  1
  N  492  1  0.97653700  0.55875600  0.12382300  1
  N  493  1  0.83214200  0.45052100  0.05950000  1
  N  494  1  0.93512100  0.45821000  0.02059900  1
  N  517  1  0.91724400  0.83445700  0.27018100  1
  N  518  1  0.97696800  0.87436800  0.34222400  1
  N  519  1  0.83207700  0.93864500  0.29842700  1
  N  520  1  0.93503800  0.97758900  0.34501500  1
  N  543  1  0.91718400  0.72804100  0.47160200  1
  N  544  1  0.97680400  0.65596300  0.43949000  1
  N  545  1  0.83222400  0.69998900  0.54771500  1
  N  546  1  0.93510200  0.65330300  0.54001100  1
  N  569  1  0.41713100  0.53285000  0.77328100  1
  N  570  1  0.47660500  0.50062700  0.81318300  1
  N  571  1  0.33212800  0.60886800  0.87752600  1
  N  572  1  0.43505900  0.60114600  0.91642100  1
  N  595  1  0.41714500  0.22495600  0.66688100  1
  N  596  1  0.47698000  0.18498500  0.59485600  1
  N  597  1  0.33216100  0.12077300  0.63875900  1
  N  598  1  0.43511400  0.08181400  0.59214400  1
  N  621  1  0.41715100  0.33127600  0.46539500  1
  N  622  1  0.47667700  0.40338900  0.49760400  1
  N  623  1  0.33215500  0.35949500  0.38939800  1
  N  624  1  0.43510000  0.40610900  0.39709100  1
  N  626  1  0.91606300  0.75804600  0.21202500  1
  N  629  1  0.90512900  0.80210600  0.22609600  1
  N  633  1  0.92760900  0.75705700  0.25955800  1
  N  634  1  0.89496200  0.80304600  0.17836900  1
  N  640  1  0.91582300  0.54482300  0.24015300  1
  N  643  1  0.90494300  0.51480200  0.19609300  1
  N  647  1  0.92728500  0.59333300  0.24110400  1
  N  648  1  0.89476800  0.46615700  0.19519900  1
  N  654  1  0.91587800  0.78616300  0.45330200  1
  N  657  1  0.90497600  0.77210700  0.48330500  1
  N  661  1  0.92762600  0.73863400  0.40481200  1
  N  662  1  0.89466800  0.81985100  0.53194800  1
  N  668  1  0.41605800  0.30136400  0.72500400  1
  N  671  1  0.40499800  0.25731900  0.71094600  1
  N  675  1  0.42766800  0.30232800  0.67746400  1
  N  676  1  0.39485200  0.25640400  0.75869100  1
  N  682  1  0.41593100  0.51456100  0.69686400  1
  N  685  1  0.40500400  0.54456800  0.74091800  1
  N  689  1  0.42743100  0.46604900  0.69590200  1
  N  690  1  0.39488800  0.59322500  0.74183100  1
  N  696  1  0.41590700  0.27312900  0.48366700  1
  N  699  1  0.40503100  0.28719000  0.45366300  1
  N  703  1  0.42736500  0.32067300  0.53219000  1
  N  704  1  0.39484100  0.23945200  0.40500600  1
  N  710  1  0.05776900  0.51419100  0.72577700  1
  N  713  1  0.06853900  0.54472500  0.71239000  1
  N  717  1  0.04691500  0.46603000  0.67778400  1
  N  718  1  0.07799700  0.59302600  0.76059000  1
  N  724  1  0.05751300  0.27243600  0.69576500  1
  N  727  1  0.06849500  0.28582900  0.73966700  1
  N  731  1  0.04677500  0.32043700  0.69559200  1
  N  732  1  0.07779900  0.23763300  0.73979100  1
  N  738  1  0.05767500  0.30240800  0.48398700  1
  N  741  1  0.06854800  0.25849800  0.45345400  1
  N  745  1  0.04705300  0.30257300  0.53216400  1
  N  746  1  0.07781300  0.25838700  0.40514200  1
  N  752  1  0.55770600  0.54520900  0.21130600  1
  N  755  1  0.56852100  0.51466800  0.22468200  1
  N  759  1  0.54709500  0.59338500  0.25932400  1
  N  760  1  0.57788200  0.46636700  0.17647600  1
  N  766  1  0.55762400  0.78685900  0.24128300  1
  N  769  1  0.56838000  0.77344800  0.19735500  1
  N  773  1  0.54672600  0.73888200  0.24147700  1
  N  774  1  0.57791000  0.82163200  0.19723000  1
  N  780  1  0.55755800  0.75696300  0.45295400  1
  N  783  1  0.56853500  0.80086800  0.48345000  1
  N  787  1  0.54675700  0.75677400  0.40477600  1
  N  788  1  0.57790200  0.80100700  0.53177400  1
  N  794  1  0.75929500  0.70644000  0.06330900  1
  N  797  1  0.71806900  0.71592800  0.03658400  1
  N  801  1  0.70040000  0.69283400  0.09090500  1
  N  802  1  0.77915100  0.72792900  0.00826200  1
  N  808  1  0.75924800  0.44763400  0.29175900  1
  N  811  1  0.71806900  0.41140300  0.28228000  1
  N  815  1  0.70029300  0.48879300  0.30529800  1
  N  816  1  0.77921500  0.37110600  0.27026100  1
  N  822  1  0.75934400  0.93494300  0.55058000  1
  N  825  1  0.71812400  0.96171500  0.58677700  1
  N  829  1  0.70049100  0.90738500  0.50936100  1
  N  830  1  0.77922700  0.99001200  0.62710400  1
  N  836  1  0.25932900  0.35297900  0.87377400  1
  N  839  1  0.21820300  0.34334500  0.90042700  1
  N  843  1  0.20030900  0.36665900  0.84629800  1
  N  844  1  0.27940300  0.33138400  0.92872200  1
  N  850  1  0.25930400  0.61172300  0.64526700  1
  N  853  1  0.21811200  0.64793900  0.65471900  1
  N  857  1  0.20037500  0.57054800  0.63170100  1
  N  858  1  0.27923500  0.68823300  0.66667700  1
  N  864  1  0.25933100  0.12435700  0.38644400  1
  N  867  1  0.21814200  0.09758600  0.35023300  1
  N  871  1  0.20038900  0.15205000  0.42758700  1
  N  872  1  0.27927100  0.06919700  0.30995800  1
  N  878  1  0.21497700  0.60972500  0.87464800  1
  N  881  1  0.25614100  0.64562400  0.90222000  1
  N  885  1  0.27390100  0.56879700  0.84617500  1
  N  886  1  0.19499100  0.68565300  0.93130200  1
  N  892  1  0.21497700  0.12358200  0.64226800  1
  N  895  1  0.25610000  0.09615900  0.65082600  1
  N  899  1  0.27399700  0.15193500  0.62970300  1
  N  900  1  0.19491100  0.06711100  0.66179000  1
  N  906  1  0.21498000  0.35584600  0.38859100  1
  N  909  1  0.25614900  0.34743100  0.35266600  1
  N  913  1  0.27395000  0.36827800  0.42950600  1
  N  914  1  0.19501600  0.33648600  0.31263400  1
  N  920  1  0.71496700  0.44974700  0.06238100  1
  N  923  1  0.75610400  0.41381300  0.03484600  1
  N  927  1  0.77397700  0.49063400  0.09087300  1
  N  928  1  0.69492600  0.37378800  0.00581900  1
  N  934  1  0.71491700  0.93574300  0.29464800  1
  N  937  1  0.75609400  0.96331200  0.28632500  1
  N  941  1  0.77383200  0.90729200  0.30714000  1
  N  942  1  0.69496100  0.99237600  0.27533900  1
  N  948  1  0.71503300  0.70345800  0.54835500  1
  N  951  1  0.75611400  0.71204100  0.58435900  1
  N  955  1  0.77410700  0.69086600  0.50745500  1
  N  956  1  0.69488100  0.72303200  0.62435500  1
  N  962  1  0.99720000  0.60958200  0.95390700  1
  N  965  1  0.97439100  0.65157900  0.98380400  1
  N  969  1  0.96487200  0.57859300  0.97497800  1
  N  970  1  0.00625800  0.68309900  0.96351300  1
  N  976  1  0.99721400  0.43518600  0.38858100  1
  N  979  1  0.97442200  0.42313400  0.34659300  1
  N  983  1  0.96480300  0.48721700  0.41962500  1
  N  984  1  0.00636800  0.37135000  0.31502000  1
  N  990  1  0.99723000  0.04421700  0.56296400  1
  N  993  1  0.97448600  0.01429700  0.57504900  1
  N  997  1  0.96480100  0.02317700  0.51092900  1
  N  998  1  0.00645000  0.03455300  0.62683400  1
  N  1004  1  0.49724900  0.44984200  0.98312200  1
  N  1007  1  0.47450000  0.40784300  0.95318900  1
  N  1011  1  0.46488200  0.48085200  0.96208500  1
  N  1012  1  0.50638500  0.37630300  0.97345400  1
  N  1018  1  0.49725500  0.62418500  0.54839000  1
  N  1021  1  0.47447500  0.63627200  0.59039000  1
  N  1025  1  0.46486000  0.57214400  0.51738900  1
  N  1026  1  0.50639600  0.68806900  0.62192200  1
  N  1032  1  0.49718100  0.01501600  0.37406100  1
  N  1035  1  0.47442000  0.04495000  0.36199600  1
  N  1039  1  0.46481100  0.03604800  0.42610600  1
  N  1040  1  0.50632500  0.02470300  0.31020000  1
  N  1046  1  0.97662100  0.45016300  0.98297600  1
  N  1049  1  0.00074700  0.40835500  0.95353600  1
  N  1053  1  0.00872100  0.48123400  0.96194200  1
  N  1054  1  0.96910400  0.37675900  0.97380200  1
  N  1060  1  0.97650200  0.62366700  0.54801800  1
  N  1063  1  0.00062100  0.63597600  0.58981300  1
  N  1067  1  0.00854800  0.57155600  0.51689500  1
  N  1068  1  0.96907100  0.68785500  0.62145600  1
  N  1074  1  0.97649700  0.01522700  0.37459600  1
  N  1077  1  0.00063200  0.04465900  0.36222000  1
  N  1081  1  0.00857800  0.03627600  0.42670800  1
  N  1082  1  0.96903400  0.02437000  0.31034600  1
  N  1088  1  0.47650600  0.60916700  0.95405400  1
  N  1091  1  0.50063500  0.65096700  0.98351800  1
  N  1095  1  0.50860100  0.57806200  0.97505000  1
  N  1096  1  0.46901400  0.68259400  0.96328400  1
  N  1102  1  0.47652000  0.43572500  0.38905900  1
  N  1105  1  0.50063000  0.42338800  0.34725500  1
  N  1109  1  0.50858200  0.48783800  0.42015100  1
  N  1110  1  0.46904200  0.37151600  0.31564000  1
  N  1116  1  0.47651500  0.04417100  0.56253100  1
  N  1119  1  0.50064300  0.01470400  0.57486300  1
  N  1123  1  0.50860400  0.02317900  0.51043000  1
  N  1124  1  0.46904200  0.03494600  0.62673100  1
  N  1130  1  0.01524500  0.58959100  0.11407700  1
  N  1133  1  0.99420200  0.63196100  0.14469200  1
  N  1137  1  0.04003700  0.59452300  0.06993900  1
  N  1138  1  0.96537800  0.62702800  0.18800800  1
  N  1144  1  0.01579000  0.61541400  0.40854400  1
  N  1147  1  0.99356700  0.60367100  0.36637900  1
  N  1151  1  0.04144600  0.56636600  0.40333500  1
  N  1152  1  0.96407200  0.65194100  0.37162600  1
  N  1158  1  0.01601000  0.88396600  0.38274900  1
  N  1161  1  0.99358200  0.85354600  0.39444500  1
  N  1165  1  0.04148200  0.92780300  0.43184000  1
  N  1166  1  0.96414900  0.81056000  0.34612600  1
  N  1172  1  0.51532300  0.46978500  0.82290400  1
  N  1175  1  0.49431300  0.42741900  0.79227600  1
  N  1179  1  0.54011700  0.46483900  0.86703100  1
  N  1180  1  0.46534800  0.43238400  0.74900200  1
  N  1186  1  0.51551000  0.44395700  0.52845000  1
  N  1189  1  0.49391300  0.45574300  0.57073400  1
  N  1193  1  0.54063500  0.49300200  0.53345000  1
  N  1194  1  0.46479700  0.40750700  0.56571200  1
  N  1200  1  0.51611000  0.17542700  0.55433200  1
  N  1203  1  0.49329100  0.20571100  0.54254800  1
  N  1207  1  0.54219600  0.13170600  0.50531900  1
  N  1208  1  0.46341300  0.24860500  0.59078800  1
  N  1214  1  0.95727700  0.44201500  0.82302600  1
  N  1217  1  0.98153400  0.45309300  0.79246600  1
  N  1221  1  0.93181100  0.49154500  0.86623900  1
  N  1222  1  0.01093400  0.40432700  0.75012300  1
  N  1228  1  0.95792800  0.17499100  0.52627500  1
  N  1231  1  0.98047400  0.20584800  0.56823200  1
  N  1235  1  0.93341200  0.13140600  0.53222600  1
  N  1236  1  0.00917000  0.24856100  0.56223400  1
  N  1242  1  0.95775600  0.47187400  0.55608100  1
  N  1245  1  0.98076000  0.42998900  0.54495300  1
  N  1249  1  0.93300900  0.46586800  0.50655700  1
  N  1250  1  0.00954200  0.43603800  0.59367100  1
  N  1256  1  0.45666100  0.61735500  0.11408800  1
  N  1259  1  0.48167300  0.60626200  0.14448900  1
  N  1263  1  0.43045400  0.56786100  0.07111100  1
  N  1264  1  0.51167300  0.65499700  0.18660200  1
  N  1270  1  0.45673800  0.88410500  0.41066900  1
  N  1273  1  0.48175300  0.85367000  0.36918800  1
  N  1277  1  0.43077300  0.92711200  0.40414300  1
  N  1278  1  0.51160700  0.81155300  0.37585000  1
  N  1284  1  0.45771200  0.58751100  0.38095100  1
  N  1287  1  0.48065400  0.62938900  0.39202100  1
  N  1291  1  0.43294500  0.59358500  0.43049700  1
  N  1292  1  0.50959500  0.62325200  0.34329400  1
