# generated using pymatgen
data_H46C55N6
_symmetry_space_group_name_H-M   'P 1'
_cell_length_a   41.54170000
_cell_length_b   41.54170000
_cell_length_c   55.07450000
_cell_angle_alpha   90.00000000
_cell_angle_beta   90.00000000
_cell_angle_gamma   90.00000000
_symmetry_Int_Tables_number   1
_chemical_formula_structural   H46C55N6
_chemical_formula_sum   'H368 C440 N48'
_cell_volume   95042.77174545
_cell_formula_units_Z   8
loop_
 _symmetry_equiv_pos_site_id
 _symmetry_equiv_pos_as_xyz
  1  'x, y, z'
loop_
 _atom_site_type_symbol
 _atom_site_label
 _atom_site_symmetry_multiplicity
 _atom_site_fract_x
 _atom_site_fract_y
 _atom_site_fract_z
 _atom_site_occupancy
  H  25  1  0.07761200  0.01794600  0.08206100  1
  H  26  1  0.11987600  0.99241700  0.10432900  1
  H  27  1  0.21531400  0.99682200  0.15766000  1
  H  28  1  0.25559600  0.02587900  0.17928300  1
  H  29  1  0.21476900  0.11326400  0.15648200  1
  H  30  1  0.11629200  0.10864100  0.09862000  1
  H  31  1  0.20707200  0.06857100  0.09298200  1
  H  32  1  0.24150900  0.15691800  0.06660600  1
  H  33  1  0.20572400  0.18501400  0.09313100  1
  H  34  1  0.12586700  0.07022600  0.16386800  1
  H  35  1  0.12223200  0.18629200  0.15739600  1
  H  36  1  0.08704600  0.15923800  0.18495700  1
  H  39  1  0.15464200  0.00300400  0.14306500  1
  H  40  1  0.18099100  0.00234100  0.11774000  1
  H  42  1  0.18017900  0.17861300  0.13638800  1
  H  43  1  0.14851400  0.17697300  0.11484100  1
  H  45  1  0.26559300  0.11239100  0.17601600  1
  H  47  1  0.05948900  0.10051000  0.08530900  1
  H  49  1  0.25051500  0.06973200  0.06574900  1
  H  51  1  0.08177300  0.07193000  0.19030600  1
  H  76  1  0.73524900  0.15803700  0.57595600  1
  H  77  1  0.68959100  0.17799300  0.59770100  1
  H  78  1  0.60125100  0.16378800  0.65663100  1
  H  79  1  0.57062400  0.13153900  0.68398500  1
  H  80  1  0.62748700  0.05111200  0.66675100  1
  H  81  1  0.71728400  0.06494400  0.60213000  1
  H  82  1  0.61681100  0.08742100  0.59965500  1
  H  83  1  0.59858600  0.99177000  0.57943900  1
  H  84  1  0.64258100  0.97388200  0.60404400  1
  H  85  1  0.70453500  0.10765800  0.66535500  1
  H  86  1  0.73056900  0.99423500  0.66199600  1
  H  87  1  0.76170900  0.02924400  0.68681500  1
  H  90  1  0.66014900  0.16779400  0.63849300  1
  H  91  1  0.63250700  0.15770500  0.61516900  1
  H  93  1  0.67103200  0.98869100  0.64454700  1
  H  94  1  0.69916200  0.99543100  0.62086100  1
  H  96  1  0.58196700  0.04556300  0.69179600  1
  H  98  1  0.77208400  0.08404100  0.58695000  1
  H  100  1  0.56243700  0.06612700  0.58270200  1
  H  102  1  0.74935100  0.11584600  0.69057200  1
  H  127  1  0.24218600  0.51695500  0.67212600  1
  H  128  1  0.19658200  0.49471700  0.65169700  1
  H  129  1  0.10448400  0.50478700  0.59554100  1
  H  130  1  0.06920200  0.53607800  0.57088900  1
  H  131  1  0.12105500  0.61967100  0.58840500  1
  H  132  1  0.21664200  0.60943100  0.64842900  1
  H  133  1  0.11895000  0.58085700  0.65446300  1
  H  134  1  0.09647000  0.67474400  0.67688700  1
  H  135  1  0.13665400  0.69589300  0.65014100  1
  H  136  1  0.20323000  0.56672700  0.58599000  1
  H  137  1  0.22203200  0.68159000  0.58855700  1
  H  138  1  0.25456600  0.64841800  0.56322600  1
  H  141  1  0.16460100  0.50440400  0.61179300  1
  H  142  1  0.13751000  0.51132200  0.63611800  1
  H  144  1  0.16273000  0.68316900  0.60790900  1
  H  145  1  0.19287600  0.67862900  0.63044400  1
  H  147  1  0.07010800  0.62281500  0.56919100  1
  H  149  1  0.27391300  0.59261400  0.66003500  1
  H  151  1  0.07038800  0.59287900  0.67784900  1
  H  153  1  0.24783000  0.56095400  0.56046800  1
  H  178  1  0.57736200  0.64316800  0.17659500  1
  H  179  1  0.61541000  0.67121500  0.15199500  1
  H  180  1  0.70804000  0.67295000  0.09583600  1
  H  181  1  0.75070800  0.64684400  0.07460700  1
  H  182  1  0.72082000  0.55751900  0.10222200  1
  H  183  1  0.62453600  0.55587500  0.16216600  1
  H  184  1  0.70993200  0.60591900  0.16426600  1
  H  185  1  0.75757800  0.52416200  0.19113000  1
  H  186  1  0.72429100  0.49041800  0.16688100  1
  H  187  1  0.62594400  0.58949200  0.09552700  1
  H  188  1  0.63793200  0.47443600  0.10665600  1
  H  189  1  0.59777500  0.49482100  0.07961500  1
  H  192  1  0.64904700  0.66132800  0.11245700  1
  H  193  1  0.67629400  0.66691100  0.13687900  1
  H  195  1  0.69563100  0.49106100  0.12476700  1
  H  196  1  0.66529300  0.48973700  0.14740400  1
  H  198  1  0.77093900  0.56259600  0.08187100  1
  H  200  1  0.57077800  0.55735300  0.17891700  1
  H  202  1  0.75336600  0.61194400  0.19089400  1
  H  204  1  0.56957000  0.57151000  0.07851900  1
  H  229  1  0.83585600  0.27687600  0.42517100  1
  H  230  1  0.81877500  0.32166200  0.40171400  1
  H  231  1  0.83842700  0.40764800  0.34247800  1
  H  232  1  0.87251600  0.43647500  0.31541100  1
  H  233  1  0.94948400  0.37498000  0.33271700  1
  H  234  1  0.93015900  0.28753300  0.39897200  1
  H  235  1  0.91375400  0.38836900  0.39965700  1
  H  236  1  0.01048100  0.40186600  0.41908100  1
  H  237  1  0.02572200  0.35640600  0.39505800  1
  H  238  1  0.88851900  0.30117200  0.33450100  1
  H  239  1  0.00047200  0.26924700  0.33769400  1
  H  240  1  0.96387700  0.24021900  0.31269300  1
  H  243  1  0.83112400  0.34887300  0.36038600  1
  H  244  1  0.84211500  0.37636200  0.38360600  1
  H  246  1  0.00911700  0.32824100  0.35501900  1
  H  247  1  0.00104900  0.30073400  0.37889000  1
  H  249  1  0.95751000  0.41980700  0.30719300  1
  H  251  1  0.91391800  0.23970700  0.42165400  1
  H  253  1  0.94044300  0.44283400  0.41445500  1
  H  255  1  0.87813400  0.25600800  0.30976600  1
  H  280  1  0.00087600  0.91175600  0.91554000  1
  H  281  1  0.01898100  0.86743700  0.89166100  1
  H  282  1  0.99904700  0.77360800  0.83967200  1
  H  283  1  0.96400000  0.73813100  0.81851500  1
  H  284  1  0.88443200  0.79432900  0.83906200  1
  H  285  1  0.90476300  0.88742400  0.90092000  1
  H  286  1  0.92580200  0.79020100  0.90245600  1
  H  287  1  0.83081100  0.77423200  0.92548800  1
  H  288  1  0.81241000  0.81722700  0.90062200  1
  H  289  1  0.94280000  0.87409000  0.83300300  1
  H  290  1  0.83009400  0.90179700  0.83997300  1
  H  291  1  0.86369600  0.93113900  0.81288400  1
  H  294  1  0.00230500  0.83547400  0.85317700  1
  H  295  1  0.99960000  0.80893600  0.87833400  1
  H  297  1  0.82520400  0.84338100  0.85930500  1
  H  298  1  0.83363900  0.87270900  0.88184200  1
  H  300  1  0.87711100  0.74406400  0.81967900  1
  H  302  1  0.92508000  0.94349500  0.91662000  1
  H  304  1  0.90764400  0.73921100  0.92337100  1
  H  306  1  0.94975400  0.91793100  0.80656200  1
  H  331  1  0.33365700  0.40370000  0.82499700  1
  H  332  1  0.31323000  0.36174200  0.84978200  1
  H  333  1  0.32745200  0.27419000  0.90871500  1
  H  334  1  0.36030300  0.24087800  0.93371500  1
  H  335  1  0.44285400  0.28970200  0.90958100  1
  H  336  1  0.42830900  0.37897300  0.84416200  1
  H  337  1  0.39553000  0.28460100  0.84413100  1
  H  338  1  0.48516300  0.25263300  0.81853500  1
  H  339  1  0.51172900  0.29187300  0.84315800  1
  H  340  1  0.39368900  0.37507100  0.90864000  1
  H  341  1  0.50977400  0.38072300  0.90281400  1
  H  342  1  0.48162900  0.41796300  0.92786700  1
  H  345  1  0.32659500  0.33305600  0.89028000  1
  H  346  1  0.33047000  0.30409000  0.86679000  1
  H  348  1  0.50395900  0.32080300  0.88538600  1
  H  349  1  0.50167200  0.34993700  0.86192000  1
  H  351  1  0.44760100  0.24465100  0.93513900  1
  H  353  1  0.41570000  0.43011000  0.82366100  1
  H  355  1  0.39897500  0.23846500  0.81939200  1
  H  357  1  0.39433400  0.42384400  0.93053400  1
  H  382  1  0.50150100  0.76051500  0.33482100  1
  H  383  1  0.51981700  0.80509900  0.35836200  1
  H  384  1  0.50045100  0.89777200  0.41172100  1
  H  385  1  0.46565000  0.93255900  0.43376900  1
  H  386  1  0.38590600  0.87681000  0.41296300  1
  H  387  1  0.40557300  0.78416600  0.35068700  1
  H  388  1  0.42692000  0.88194300  0.34925200  1
  H  389  1  0.33176500  0.89957100  0.32733700  1
  H  390  1  0.31329200  0.85595200  0.35172700  1
  H  391  1  0.44413700  0.79728600  0.41794100  1
  H  392  1  0.33129800  0.76992000  0.41136500  1
  H  393  1  0.36507200  0.74026100  0.43816100  1
  H  396  1  0.50384800  0.83651100  0.39718600  1
  H  397  1  0.50024700  0.86344800  0.37233900  1
  H  399  1  0.32639700  0.82863500  0.39252500  1
  H  400  1  0.33449300  0.79968600  0.36964700  1
  H  402  1  0.37877400  0.92671000  0.43286800  1
  H  404  1  0.42620500  0.72785600  0.33576300  1
  H  406  1  0.40678400  0.93530600  0.33071900  1
  H  408  1  0.45122600  0.75306200  0.44399700  1
  H  415  1  0.94503100  0.01325400  0.00277600  1
  H  416  1  0.91447600  0.97518900  0.97978000  1
  H  423  1  0.02952800  0.04274000  0.97749100  1
  H  424  1  0.06130000  0.07892100  0.00137900  1
  H  425  1  0.02370000  0.03742700  0.06536400  1
  H  426  1  0.99988700  0.93065000  0.95666400  1
  H  427  1  0.99256900  0.00094600  0.04153700  1
  H  429  1  0.05017700  0.95027400  0.97001000  1
  H  430  1  0.05387300  0.98087000  0.98899700  1
  H  432  1  0.05994600  0.10846100  0.04524600  1
  H  433  1  0.09214700  0.08117000  0.04302400  1
  H  435  1  0.91013800  0.92727500  0.95476900  1
  H  436  1  0.94337500  0.90137900  0.95760500  1
  H  443  1  0.88529100  0.16986900  0.51120900  1
  H  444  1  0.91440400  0.21050600  0.48982200  1
  H  451  1  0.81377300  0.11889100  0.47915300  1
  H  452  1  0.77985700  0.08532600  0.50356200  1
  H  453  1  0.79507300  0.14693100  0.56346600  1
  H  454  1  0.83303500  0.22947700  0.44694400  1
  H  455  1  0.82798000  0.18075900  0.53898500  1
  H  457  1  0.78465000  0.20194200  0.45394200  1
  H  458  1  0.78028800  0.17486700  0.47563400  1
  H  460  1  0.76785200  0.06693400  0.54795200  1
  H  461  1  0.73719400  0.09493200  0.54149900  1
  H  463  1  0.91752100  0.25444800  0.46117700  1
  H  464  1  0.87977100  0.27328200  0.46096500  1
  H  471  1  0.38876400  0.50221600  0.73487000  1
  H  472  1  0.41532500  0.45944200  0.75576700  1
  H  479  1  0.32041300  0.55812600  0.76768400  1
  H  480  1  0.28674300  0.59229600  0.74357100  1
  H  481  1  0.29911600  0.52984300  0.68379000  1
  H  482  1  0.33421800  0.44702100  0.80020700  1
  H  483  1  0.33130800  0.49521800  0.70806600  1
  H  485  1  0.28792500  0.47793200  0.79415200  1
  H  486  1  0.28469200  0.50501500  0.77238700  1
  H  488  1  0.27413200  0.61021600  0.69886100  1
  H  489  1  0.24276800  0.58371900  0.70680500  1
  H  491  1  0.41557800  0.41494000  0.78408500  1
  H  492  1  0.37630100  0.39963500  0.78572700  1
  H  499  1  0.44997900  0.65183400  0.25481900  1
  H  500  1  0.41736400  0.68994300  0.27606100  1
  H  507  1  0.53896000  0.63559300  0.27988600  1
  H  508  1  0.57209000  0.59745000  0.25905600  1
  H  509  1  0.52541200  0.62022200  0.19318600  1
  H  510  1  0.49944300  0.74482500  0.29239700  1
  H  511  1  0.49292400  0.65894000  0.21387900  1
  H  513  1  0.55041600  0.72844600  0.27804300  1
  H  514  1  0.55580300  0.69603500  0.26110800  1
  H  516  1  0.56787800  0.55814800  0.21905100  1
  H  517  1  0.59932500  0.58633600  0.21773600  1
  H  519  1  0.41008200  0.74073500  0.29729900  1
  H  520  1  0.44139700  0.76869500  0.29349500  1
  H  527  1  0.28580700  0.68236000  0.49038900  1
  H  528  1  0.24575300  0.64484600  0.50310900  1
  H  535  1  0.32632700  0.72441900  0.51392000  1
  H  536  1  0.36559600  0.76178600  0.49912800  1
  H  537  1  0.41727500  0.68529900  0.46716900  1
  H  538  1  0.31576000  0.59170900  0.54085100  1
  H  539  1  0.37751500  0.64803100  0.48126300  1
  H  541  1  0.36908000  0.61112800  0.54323000  1
  H  542  1  0.38095900  0.64486300  0.53010200  1
  H  544  1  0.41541900  0.77471100  0.47862300  1
  H  545  1  0.44271900  0.74309900  0.48330700  1
  H  547  1  0.22863200  0.59653300  0.52393600  1
  H  548  1  0.25946200  0.56785100  0.52144100  1
  H  555  1  0.79068000  0.49272900  0.26326900  1
  H  556  1  0.75082600  0.53026200  0.25017000  1
  H  563  1  0.83037800  0.44956500  0.23970100  1
  H  564  1  0.86989200  0.41212300  0.25400300  1
  H  565  1  0.92301900  0.48862700  0.28454600  1
  H  566  1  0.82083500  0.58137700  0.21088700  1
  H  567  1  0.88303800  0.52598700  0.27093800  1
  H  569  1  0.87380100  0.56118300  0.20828900  1
  H  570  1  0.88551300  0.52773500  0.22190700  1
  H  572  1  0.92051300  0.39918200  0.27333200  1
  H  573  1  0.94769100  0.43074100  0.26809500  1
  H  575  1  0.73382600  0.57783400  0.22824000  1
  H  576  1  0.76482900  0.60642400  0.23006700  1
  H  583  1  0.55608700  0.17131600  0.76136200  1
  H  584  1  0.59262900  0.13167700  0.74649300  1
  H  591  1  0.51440400  0.21533900  0.74130300  1
  H  592  1  0.47836000  0.25378600  0.75893900  1
  H  593  1  0.42805200  0.17858600  0.79375000  1
  H  594  1  0.51602600  0.08163300  0.71400200  1
  H  595  1  0.46463900  0.14024300  0.77679700  1
  H  597  1  0.46369100  0.10388000  0.71471200  1
  H  598  1  0.45506800  0.13831800  0.72824600  1
  H  600  1  0.43098100  0.26784200  0.78206300  1
  H  601  1  0.40250400  0.23695500  0.77939500  1
  H  603  1  0.60472000  0.08173500  0.72592400  1
  H  604  1  0.57259600  0.05517600  0.73101700  1
  H  611  1  0.95597400  0.52141800  0.49023200  1
  H  612  1  0.92433900  0.48310500  0.46863600  1
  H  619  1  0.05401800  0.52192600  0.47659300  1
  H  620  1  0.08375400  0.56390100  0.49599500  1
  H  621  1  0.01383000  0.56839700  0.55140800  1
  H  622  1  0.00345700  0.42033200  0.46520600  1
  H  623  1  0.98506100  0.52509600  0.53283800  1
  H  625  1  0.05174900  0.43366300  0.48534300  1
  H  626  1  0.05657100  0.46730400  0.50092200  1
  H  628  1  0.05708800  0.61882100  0.52989100  1
  H  629  1  0.09442800  0.59899600  0.53044700  1
  H  631  1  0.91652000  0.42988400  0.45076400  1
  H  632  1  0.94573900  0.40060500  0.45761100  1
  H  639  1  0.88648700  0.66372800  0.00541800  1
  H  640  1  0.91569400  0.70448000  0.98412200  1
  H  647  1  0.80222300  0.63405900  0.97821000  1
  H  648  1  0.77183400  0.59456900  0.99998600  1
  H  649  1  0.80968000  0.62954100  0.06604500  1
  H  650  1  0.82879400  0.74712600  0.96228600  1
  H  651  1  0.83943400  0.66946200  0.04432700  1
  H  653  1  0.77926700  0.72510500  0.97484000  1
  H  654  1  0.77660500  0.69337800  0.99283000  1
  H  656  1  0.77629900  0.56030400  0.04213300  1
  H  657  1  0.74227600  0.58531800  0.04093700  1
  H  659  1  0.91815000  0.75522200  0.96222200  1
  H  660  1  0.88306900  0.77859600  0.96396900  1
  H  667  1  0.38537700  0.01303600  0.25176400  1
  H  668  1  0.41657200  0.97333800  0.27255600  1
  H  675  1  0.29638600  0.03072500  0.27623700  1
  H  676  1  0.26497500  0.07078900  0.25594200  1
  H  677  1  0.31229800  0.04925100  0.19011000  1
  H  678  1  0.33277400  0.92011600  0.28690100  1
  H  679  1  0.34317600  0.00869900  0.21027000  1
  H  681  1  0.28254000  0.93828800  0.27231500  1
  H  682  1  0.27835200  0.97140000  0.25596800  1
  H  684  1  0.27357800  0.11169600  0.21569700  1
  H  685  1  0.23961100  0.08657100  0.21571000  1
  H  687  1  0.42210800  0.92107700  0.29217000  1
  H  688  1  0.38951900  0.89458300  0.28861500  1
  H  695  1  0.28177000  0.18819800  0.99228300  1
  H  696  1  0.24107800  0.15342900  0.00797300  1
  H  703  1  0.32789500  0.22815800  0.01217400  1
  H  704  1  0.36825400  0.26199700  0.99447300  1
  H  705  1  0.41035100  0.18098400  0.96090600  1
  H  706  1  0.31171600  0.09682700  0.04199800  1
  H  707  1  0.36947400  0.14728200  0.97793700  1
  H  709  1  0.36613800  0.11312700  0.04092500  1
  H  710  1  0.37852300  0.14579900  0.02659200  1
  H  712  1  0.41700700  0.27036000  0.97127200  1
  H  713  1  0.44189100  0.23660400  0.97493200  1
  H  715  1  0.22360400  0.10608500  0.02980500  1
  H  716  1  0.25252900  0.07580100  0.02594100  1
  H  723  1  0.78555500  0.99369100  0.76077000  1
  H  724  1  0.74667400  0.03227600  0.74780700  1
  H  731  1  0.82501400  0.95071000  0.73733000  1
  H  732  1  0.86315200  0.91204500  0.75186900  1
  H  733  1  0.91701100  0.98657700  0.78437400  1
  H  734  1  0.81855600  0.08373800  0.71078300  1
  H  735  1  0.87836300  0.02516400  0.77053500  1
  H  737  1  0.87130800  0.06283200  0.70866200  1
  H  738  1  0.88210400  0.02872100  0.72176600  1
  H  740  1  0.91262300  0.89739500  0.77217800  1
  H  741  1  0.94073400  0.92826000  0.76743700  1
  H  743  1  0.73107000  0.08100700  0.72688600  1
  H  744  1  0.76252800  0.10897800  0.72950800  1
  H  751  1  0.48833600  0.94677400  0.51809800  1
  H  752  1  0.44613500  0.91561700  0.50068700  1
  H  759  1  0.47757500  0.04491700  0.51779300  1
  H  760  1  0.51827900  0.07418500  0.53931500  1
  H  761  1  0.58524300  0.00055800  0.52417000  1
  H  762  1  0.42465300  0.99096800  0.45246700  1
  H  763  1  0.54481600  0.97153000  0.50232000  1
  H  765  1  0.45819700  0.03700200  0.45128500  1
  H  766  1  0.48944500  0.04190300  0.46949500  1
  H  768  1  0.57865000  0.08399600  0.54488400  1
  H  769  1  0.60484000  0.05124400  0.54110200  1
  H  771  1  0.38201900  0.94461200  0.47126500  1
  H  772  1  0.40242900  0.90765900  0.47262000  1
  H  779  1  0.98914600  0.72544000  0.73655500  1
  H  780  1  0.94579200  0.75584500  0.75316900  1
  H  787  1  0.97898700  0.62820000  0.73349000  1
  H  788  1  0.02164200  0.59974400  0.71355000  1
  H  789  1  0.08744500  0.67143400  0.73550000  1
  H  790  1  0.92212400  0.67889100  0.79934300  1
  H  791  1  0.04500200  0.69962700  0.75572600  1
  H  793  1  0.95559600  0.63274700  0.80045000  1
  H  794  1  0.98770100  0.62849900  0.78299400  1
  H  796  1  0.08580100  0.59027200  0.71709200  1
  H  797  1  0.10841100  0.62568000  0.71447600  1
  H  799  1  0.88029800  0.72539600  0.78139100  1
  H  800  1  0.90031500  0.76254200  0.77973700  1
  H  807  1  0.04374700  0.19582200  0.25679000  1
  H  808  1  0.08586000  0.16069000  0.24405700  1
  H  815  1  0.99909700  0.23379900  0.23483500  1
  H  816  1  0.95830700  0.26843600  0.25099800  1
  H  817  1  0.91394200  0.18868700  0.28462700  1
  H  818  1  0.01825800  0.10029400  0.21023500  1
  H  819  1  0.95533900  0.15422400  0.26927000  1
  H  821  1  0.96362400  0.11575900  0.20858300  1
  H  822  1  0.94990300  0.14932000  0.22091500  1
  H  824  1  0.90942600  0.27808900  0.27369500  1
  H  825  1  0.88371200  0.24491500  0.27006500  1
  H  827  1  0.10544300  0.11222100  0.22480600  1
  H  828  1  0.07688100  0.08178600  0.22953100  1
  H  835  1  0.48655400  0.46000300  0.02376700  1
  H  836  1  0.44660200  0.42589000  0.00650800  1
  H  843  1  0.49597600  0.55052100  0.99949900  1
  H  844  1  0.53487500  0.58215700  0.02107300  1
  H  845  1  0.59058500  0.49880700  0.03337400  1
  H  846  1  0.45672700  0.47293200  0.93935900  1
  H  847  1  0.55192500  0.46722200  0.01173400  1
  H  849  1  0.49631600  0.51329400  0.93462100  1
  H  850  1  0.52029600  0.52488200  0.95693700  1
  H  852  1  0.58700500  0.58818000  0.04125500  1
  H  853  1  0.61436100  0.55606000  0.03868300  1
  H  855  1  0.40047700  0.43094500  0.96998400  1
  H  856  1  0.42793900  0.39900600  0.96731200  1
  C  1  1  0.14596400  0.11009100  0.14533100  1
  C  2  1  0.14478400  0.14416400  0.14365500  1
  C  3  1  0.18524900  0.14338000  0.10935700  1
  C  4  1  0.18554600  0.10921300  0.10954900  1
  C  5  1  0.20615600  0.09317100  0.09284200  1
  C  6  1  0.22681600  0.11004500  0.07684600  1
  C  7  1  0.22633300  0.14392800  0.07744400  1
  C  8  1  0.20540400  0.16036800  0.09312000  1
  C  9  1  0.12364600  0.16175400  0.15877900  1
  C  10  1  0.10306700  0.14593400  0.17507300  1
  C  11  1  0.10398700  0.11220000  0.17748400  1
  C  12  1  0.12580200  0.09479800  0.16273500  1
  C  13  1  0.14263700  0.06964800  0.11369500  1
  C  14  1  0.14328800  0.03552800  0.11527000  1
  C  15  1  0.19093500  0.03782100  0.14375200  1
  C  16  1  0.19041900  0.07198200  0.14331900  1
  C  17  1  0.21463300  0.02146100  0.15741200  1
  C  18  1  0.23828900  0.03851300  0.17021800  1
  C  19  1  0.23861600  0.07239900  0.17017600  1
  C  20  1  0.21439700  0.08865400  0.15685000  1
  C  21  1  0.11782900  0.08409800  0.09956600  1
  C  22  1  0.09368200  0.06561700  0.08803900  1
  C  23  1  0.09498600  0.03189600  0.08992900  1
  C  24  1  0.11980200  0.01700300  0.10302300  1
  C  37  1  0.16617000  0.09022900  0.12796500  1
  C  38  1  0.16750700  0.01809900  0.12998700  1
  C  41  1  0.16465600  0.16236600  0.12602300  1
  C  52  1  0.69120200  0.06345600  0.64909900  1
  C  53  1  0.69889800  0.03017000  0.64848500  1
  C  54  1  0.65565000  0.02019100  0.61718800  1
  C  55  1  0.64844500  0.05360300  0.61616400  1
  C  56  1  0.62297600  0.06362400  0.60054700  1
  C  57  1  0.60435900  0.04127300  0.58724300  1
  C  58  1  0.61191500  0.00838100  0.58877900  1
  C  59  1  0.63766300  0.99800900  0.60322100  1
  C  60  1  0.72439300  0.01807800  0.66279300  1
  C  61  1  0.74256900  0.03861600  0.67758400  1
  C  62  1  0.73498400  0.07157500  0.67937400  1
  C  63  1  0.70936900  0.08352600  0.66494300  1
  C  64  1  0.68418200  0.10000500  0.61508300  1
  C  65  1  0.67650600  0.13328100  0.61366200  1
  C  66  1  0.63284400  0.12655400  0.64515500  1
  C  67  1  0.64067900  0.09348000  0.64784600  1
  C  68  1  0.60741800  0.14009800  0.65880200  1
  C  69  1  0.58955000  0.12124400  0.67503800  1
  C  70  1  0.59714400  0.08856200  0.67864800  1
  C  71  1  0.62255000  0.07509800  0.66481600  1
  C  72  1  0.71060400  0.08859300  0.60101500  1
  C  73  1  0.72974400  0.10953400  0.58688100  1
  C  74  1  0.72148000  0.14230300  0.58575800  1
  C  75  1  0.69477200  0.15392700  0.59860200  1
  C  88  1  0.66613100  0.07763300  0.63208800  1
  C  89  1  0.65007400  0.14784800  0.62796400  1
  C  92  1  0.68156800  0.00709100  0.63274500  1
  C  103  1  0.18771700  0.61009500  0.60240200  1
  C  104  1  0.19331300  0.64379200  0.60288900  1
  C  105  1  0.15163000  0.65076800  0.63589100  1
  C  106  1  0.14671400  0.61696600  0.63694800  1
  C  107  1  0.12325700  0.60506200  0.65353300  1
  C  108  1  0.10463000  0.62580200  0.66825900  1
  C  109  1  0.10991700  0.65917600  0.66666667  1
  C  110  1  0.13341400  0.67148200  0.65092900  1
  C  111  1  0.21734900  0.65740400  0.58791800  1
  C  112  1  0.23634900  0.63794900  0.57284800  1
  C  113  1  0.23097000  0.60452300  0.57142600  1
  C  114  1  0.20645400  0.59113100  0.58618100  1
  C  115  1  0.18495700  0.57268000  0.63616000  1
  C  116  1  0.17959500  0.53893300  0.63711900  1
  C  117  1  0.13393100  0.54372300  0.60702900  1
  C  118  1  0.13912900  0.57739300  0.60502600  1
  C  119  1  0.10873000  0.52896500  0.59386500  1
  C  120  1  0.08812200  0.54727400  0.57918100  1
  C  121  1  0.09262600  0.58069100  0.57669300  1
  C  122  1  0.11828000  0.59525500  0.58957800  1
  C  123  1  0.21144700  0.58540900  0.64949100  1
  C  124  1  0.23289800  0.56533800  0.66239000  1
  C  125  1  0.22676000  0.53208500  0.66324900  1
  C  126  1  0.20001800  0.51911400  0.65119800  1
  C  139  1  0.16460300  0.59428700  0.62010400  1
  C  140  1  0.15361500  0.52304800  0.62313100  1
  C  143  1  0.17538400  0.66564900  0.61927200  1
  C  154  1  0.65234000  0.55392000  0.11490900  1
  C  155  1  0.65560900  0.52009700  0.11787600  1
  C  156  1  0.69738600  0.52815100  0.15057700  1
  C  157  1  0.69312300  0.56201800  0.14945600  1
  C  158  1  0.71223400  0.58143700  0.16512700  1
  C  159  1  0.73583400  0.56825500  0.18083400  1
  C  160  1  0.74003000  0.53460700  0.18082000  1
  C  161  1  0.72059400  0.51478400  0.16637900  1
  C  162  1  0.63606900  0.49881900  0.10431900  1
  C  163  1  0.61260100  0.51066000  0.08839300  1
  C  164  1  0.60920900  0.54395900  0.08478500  1
  C  165  1  0.62941300  0.56529000  0.09769100  1
  C  166  1  0.64579200  0.59623900  0.14486900  1
  C  167  1  0.64267500  0.63005400  0.14192500  1
  C  168  1  0.68896800  0.63071100  0.11215000  1
  C  169  1  0.69229900  0.59679800  0.11407500  1
  C  170  1  0.71015900  0.64845700  0.09718300  1
  C  171  1  0.73521100  0.63314900  0.08462800  1
  C  172  1  0.73945200  0.59960200  0.08626200  1
  C  173  1  0.71758200  0.58184200  0.10074600  1
  C  174  1  0.62327200  0.58033000  0.16022500  1
  C  175  1  0.59784700  0.59694200  0.17187800  1
  C  176  1  0.59565200  0.63047500  0.16873700  1
  C  177  1  0.61799300  0.64688200  0.15421500  1
  C  190  1  0.67087800  0.57725600  0.13084500  1
  C  191  1  0.66410600  0.64881500  0.12574800  1
  C  194  1  0.67867500  0.50569200  0.13523200  1
  C  205  1  0.93335600  0.31202400  0.35085400  1
  C  206  1  0.96620500  0.30260700  0.35138200  1
  C  207  1  0.97862900  0.34553500  0.38235300  1
  C  208  1  0.94565400  0.35455700  0.38341500  1
  C  209  1  0.93714300  0.38078400  0.39881800  1
  C  210  1  0.96061800  0.39840400  0.41177700  1
  C  211  1  0.99304500  0.38911300  0.41015700  1
  C  212  1  0.00188100  0.36254400  0.39600700  1
  C  213  1  0.97695600  0.27658500  0.33700500  1
  C  214  1  0.95551900  0.25969300  0.32208600  1
  C  215  1  0.92301700  0.26904000  0.32036600  1
  C  216  1  0.91234600  0.29499800  0.33499700  1
  C  217  1  0.89710800  0.32167700  0.38471900  1
  C  218  1  0.86432400  0.33131000  0.38574100  1
  C  219  1  0.87377500  0.37400200  0.35405000  1
  C  220  1  0.90638300  0.36429900  0.35159300  1
  C  221  1  0.86173900  0.40013000  0.34038300  1
  C  222  1  0.88168000  0.41692800  0.32428300  1
  C  223  1  0.91385000  0.40739100  0.32068600  1
  C  224  1  0.92581200  0.38127700  0.33459000  1
  C  225  1  0.90681900  0.29528200  0.39958100  1
  C  226  1  0.88483900  0.27839000  0.41455300  1
  C  227  1  0.85254800  0.28864700  0.41490000  1
  C  228  1  0.84249600  0.31499400  0.40103500  1
  C  241  1  0.92061700  0.33811300  0.36761300  1
  C  242  1  0.85133200  0.35812000  0.37106100  1
  C  245  1  0.99026500  0.31880700  0.36693800  1
  C  256  1  0.89969800  0.86221100  0.85148100  1
  C  257  1  0.86661600  0.87048700  0.85310500  1
  C  258  1  0.85822200  0.82920000  0.88600700  1
  C  259  1  0.89156700  0.82152400  0.88618200  1
  C  260  1  0.90206500  0.79671000  0.90224200  1
  C  261  1  0.88022100  0.77925300  0.91696900  1
  C  262  1  0.84734800  0.78711700  0.91584700  1
  C  263  1  0.83655200  0.81225100  0.90105100  1
  C  264  1  0.85379300  0.89530700  0.83848100  1
  C  265  1  0.87346700  0.91241800  0.82237300  1
  C  266  1  0.90617600  0.90434200  0.81962800  1
  C  267  1  0.91880000  0.87927300  0.83428800  1
  C  268  1  0.93880600  0.85661400  0.88379200  1
  C  269  1  0.97242300  0.85095000  0.88155100  1
  C  270  1  0.96247900  0.80488000  0.85276700  1
  C  271  1  0.92888100  0.81117000  0.85296700  1
  C  272  1  0.97490900  0.77861300  0.83945900  1
  C  273  1  0.95434500  0.75791500  0.82674900  1
  C  274  1  0.92098300  0.76375300  0.82592700  1
  C  275  1  0.90876100  0.79056900  0.83893600  1
  C  276  1  0.92873400  0.88234700  0.89915900  1
  C  277  1  0.95113300  0.90255100  0.91107700  1
  C  278  1  0.98418200  0.89695200  0.90773800  1
  C  279  1  0.99472800  0.87099900  0.89363900  1
  C  292  1  0.91471700  0.83777500  0.86864500  1
  C  293  1  0.98576100  0.82480700  0.86638100  1
  C  296  1  0.84439500  0.85434400  0.87013100  1
  C  307  1  0.43431800  0.35389300  0.89177600  1
  C  308  1  0.46836500  0.35587400  0.89014200  1
  C  309  1  0.46926600  0.31173500  0.85859700  1
  C  310  1  0.43515100  0.30985000  0.85910000  1
  C  311  1  0.42004500  0.28675000  0.84379400  1
  C  312  1  0.43777900  0.26570200  0.82864500  1
  C  313  1  0.47158200  0.26796400  0.82883000  1
  C  314  1  0.48710300  0.29092700  0.84336900  1
  C  315  1  0.48523800  0.37899000  0.90399700  1
  C  316  1  0.46870200  0.40086700  0.91882500  1
  C  317  1  0.43492000  0.39977200  0.92079100  1
  C  318  1  0.41825700  0.37579600  0.90751600  1
  C  319  1  0.39250000  0.35003100  0.86095400  1
  C  320  1  0.35867600  0.34538100  0.86245700  1
  C  321  1  0.36570700  0.30195900  0.89396200  1
  C  322  1  0.39954800  0.30667700  0.89384800  1
  C  323  1  0.35178900  0.27809600  0.90892500  1
  C  324  1  0.37103900  0.25865100  0.92378000  1
  C  325  1  0.40459800  0.26318400  0.92472400  1
  C  326  1  0.41838200  0.28706100  0.90956800  1
  C  327  1  0.40410500  0.37475100  0.84526800  1
  C  328  1  0.38302000  0.39490200  0.83196400  1
  C  329  1  0.34968700  0.38946400  0.83397600  1
  C  330  1  0.33765800  0.36478300  0.84865600  1
  C  343  1  0.41537500  0.33021500  0.87642800  1
  C  344  1  0.34379700  0.32085600  0.87836100  1
  C  347  1  0.48740200  0.33463700  0.87399800  1
  C  358  1  0.40089800  0.80941600  0.39974600  1
  C  359  1  0.36777300  0.80127900  0.39823300  1
  C  360  1  0.35920800  0.84317900  0.36577700  1
  C  361  1  0.39261700  0.85056900  0.36542700  1
  C  362  1  0.40314200  0.87557800  0.34956700  1
  C  363  1  0.38121000  0.89365900  0.33540000  1
  C  364  1  0.34826400  0.88620300  0.33668200  1
  C  365  1  0.33746600  0.86074000  0.35117500  1
  C  366  1  0.35502900  0.77632600  0.41277200  1
  C  367  1  0.37480200  0.75904000  0.42871000  1
  C  368  1  0.40754500  0.76704100  0.43135800  1
  C  369  1  0.42012000  0.79214100  0.41672600  1
  C  370  1  0.43976500  0.81531800  0.36727700  1
  C  371  1  0.47338200  0.82120600  0.36912200  1
  C  372  1  0.46377200  0.86672200  0.39850600  1
  C  373  1  0.43019700  0.86033500  0.39854000  1
  C  374  1  0.47633800  0.89267200  0.41210200  1
  C  375  1  0.45592500  0.91296700  0.42531800  1
  C  376  1  0.42258000  0.90708400  0.42628800  1
  C  377  1  0.41023400  0.88059000  0.41297500  1
  C  378  1  0.42953500  0.78949800  0.35205200  1
  C  379  1  0.45180900  0.76938800  0.33991400  1
  C  380  1  0.48488400  0.77530800  0.34274700  1
  C  381  1  0.49554800  0.80137300  0.35668400  1
  C  394  1  0.41585700  0.83399600  0.38269600  1
  C  395  1  0.48686500  0.84725000  0.38433200  1
  C  398  1  0.34543800  0.81779500  0.38148000  1
  C  409  1  0.95449100  0.94966500  0.96563000  1
  C  410  1  0.98849100  0.94858600  0.96600400  1
  C  411  1  0.00723300  0.97080800  0.97947300  1
  C  412  1  0.99113600  0.99513700  0.99312400  1
  C  413  1  0.95708400  0.99605700  0.99304200  1
  C  414  1  0.93905400  0.97374000  0.97946100  1
  C  417  1  0.00813500  0.01829500  0.00724400  1
  C  418  1  0.02799300  0.04156400  0.99602400  1
  C  419  1  0.04669900  0.06279000  0.01009900  1
  C  420  1  0.04620600  0.06150000  0.03577800  1
  C  421  1  0.02530900  0.03893500  0.04689400  1
  C  422  1  0.00663400  0.01760200  0.03286600  1
  C  431  1  0.06744900  0.08390300  0.04968500  1
  C  434  1  0.93603000  0.92531600  0.95141500  1
  C  437  1  0.87652600  0.22354900  0.46597100  1
  C  438  1  0.84421700  0.21628700  0.46009900  1
  C  439  1  0.82614800  0.19267900  0.47270900  1
  C  440  1  0.84138100  0.17515100  0.49179000  1
  C  441  1  0.87398900  0.18179400  0.49734500  1
  C  442  1  0.89128500  0.20554500  0.48463300  1
  C  445  1  0.82426100  0.15297600  0.50674600  1
  C  446  1  0.81044600  0.12466300  0.49704900  1
  C  447  1  0.79042000  0.10500600  0.51140700  1
  C  448  1  0.78412800  0.11254100  0.53601800  1
  C  449  1  0.79911000  0.14024400  0.54587900  1
  C  450  1  0.81872900  0.16019700  0.53147300  1
  C  459  1  0.76089300  0.09221000  0.54992600  1
  C  462  1  0.89274600  0.25190800  0.45468800  1
  C  465  1  0.37737300  0.44945200  0.78037800  1
  C  466  1  0.34600900  0.45933600  0.78689400  1
  C  467  1  0.32935100  0.48417400  0.77455800  1
  C  468  1  0.34524800  0.50044400  0.75515400  1
  C  469  1  0.37707200  0.49129400  0.74902400  1
  C  470  1  0.39289400  0.46627100  0.76144100  1
  C  473  1  0.32913900  0.52338500  0.74020700  1
  C  474  1  0.31652300  0.55228100  0.74986600  1
  C  475  1  0.29664600  0.57230400  0.73568400  1
  C  476  1  0.28936500  0.56456000  0.71126800  1
  C  477  1  0.30362500  0.53655000  0.70130100  1
  C  478  1  0.32294800  0.51616300  0.71556900  1
  C  487  1  0.26609400  0.58517800  0.69764100  1
  C  490  1  0.39154600  0.41980900  0.79135000  1
  C  493  1  0.45557100  0.72074800  0.28659900  1
  C  494  1  0.48924800  0.72485700  0.28474900  1
  C  495  1  0.50916800  0.70276100  0.27213900  1
  C  496  1  0.49469600  0.67529700  0.26106500  1
  C  497  1  0.46090100  0.67141000  0.26254800  1
  C  498  1  0.44165500  0.69376300  0.27510900  1
  C  501  1  0.51308200  0.65128300  0.24881800  1
  C  502  1  0.53594100  0.63260000  0.26157300  1
  C  503  1  0.55545600  0.61020400  0.24928800  1
  C  504  1  0.55282000  0.60567100  0.22389900  1
  C  505  1  0.52885400  0.62337400  0.21139700  1
  C  506  1  0.50939200  0.64594100  0.22362400  1
  C  515  1  0.57451400  0.58181500  0.21189500  1
  C  518  1  0.43583200  0.74458200  0.30031900  1
  C  521  1  0.27717900  0.61472200  0.52319900  1
  C  522  1  0.30966700  0.61101500  0.53023600  1
  C  523  1  0.33379700  0.63347400  0.52355500  1
  C  524  1  0.32521100  0.66003800  0.50842200  1
  C  525  1  0.29261700  0.66371100  0.50141700  1
  C  526  1  0.26897300  0.64155000  0.50877300  1
  C  529  1  0.34826200  0.68251700  0.49927500  1
  C  530  1  0.34515000  0.71590200  0.50379200  1
  C  531  1  0.36828500  0.73788700  0.49513300  1
  C  532  1  0.39523400  0.72717300  0.48167700  1
  C  533  1  0.39805100  0.69387100  0.47682100  1
  C  534  1  0.37472000  0.67195400  0.48519700  1
  C  543  1  0.42083500  0.74983900  0.47346600  1
  C  546  1  0.25272000  0.59031500  0.53050100  1
  C  549  1  0.78227200  0.55938700  0.22927700  1
  C  550  1  0.81470400  0.56252600  0.22194500  1
  C  551  1  0.83868500  0.54001600  0.22883200  1
  C  552  1  0.83004800  0.51404500  0.24452300  1
  C  553  1  0.79752600  0.51097600  0.25188100  1
  C  554  1  0.77401300  0.53316300  0.24431300  1
  C  557  1  0.85299300  0.49148200  0.25371100  1
  C  558  1  0.84950500  0.45806300  0.24950400  1
  C  559  1  0.87281400  0.43603700  0.25784500  1
  C  560  1  0.90029800  0.44673900  0.27068100  1
  C  561  1  0.90341300  0.48006200  0.27533600  1
  C  562  1  0.87993700  0.50203000  0.26726300  1
  C  571  1  0.92615800  0.42404100  0.27838500  1
  C  574  1  0.75792000  0.58366900  0.22150200  1
  C  577  1  0.55757500  0.10290100  0.72884400  1
  C  578  1  0.52428000  0.10082100  0.72387800  1
  C  579  1  0.50215800  0.12457200  0.73184500  1
  C  580  1  0.51371700  0.15078000  0.74618400  1
  C  581  1  0.54715100  0.15299400  0.75090500  1
  C  582  1  0.56874400  0.12958900  0.74225300  1
  C  585  1  0.49282500  0.17398600  0.75708400  1
  C  586  1  0.49662600  0.20732200  0.75266200  1
  C  587  1  0.47541900  0.22995100  0.76303700  1
  C  588  1  0.44979900  0.21994400  0.77817900  1
  C  589  1  0.44644300  0.18668700  0.78300300  1
  C  590  1  0.46785800  0.16412300  0.77289700  1
  C  599  1  0.42560100  0.24316500  0.78775500  1
  C  602  1  0.57972100  0.07670400  0.72088900  1
  C  605  1  0.96112300  0.44811600  0.46491900  1
  C  606  1  0.99365400  0.44176600  0.47065200  1
  C  607  1  0.01280800  0.46372400  0.48407500  1
  C  608  1  0.99909200  0.49375700  0.49132500  1
  C  609  1  0.96639800  0.49993100  0.48561700  1
  C  610  1  0.94766200  0.47745000  0.47280500  1
  C  613  1  0.01714600  0.51852700  0.50320400  1
  C  614  1  0.04579400  0.53076800  0.49279300  1
  C  615  1  0.06335200  0.55547800  0.50423500  1
  C  616  1  0.05251500  0.56931500  0.52622400  1
  C  617  1  0.02303200  0.55822500  0.53598100  1
  C  618  1  0.00597200  0.53286000  0.52494000  1
  C  627  1  0.06955400  0.59755400  0.53691600  1
  C  630  1  0.94234500  0.42475900  0.45009600  1
  C  633  1  0.87485600  0.72931800  0.97064500  1
  C  634  1  0.84084200  0.72900700  0.97088500  1
  C  635  1  0.82286700  0.70533200  0.98352100  1
  C  636  1  0.83976100  0.68072100  0.99631800  1
  C  637  1  0.87383300  0.68111600  0.99633200  1
  C  638  1  0.89108300  0.70500700  0.98371300  1
  C  641  1  0.82352700  0.65575100  0.00919400  1
  C  642  1  0.80404300  0.63327400  0.99674100  1
  C  643  1  0.78613000  0.61009100  0.00958100  1
  C  644  1  0.78705000  0.60853500  0.03524300  1
  C  645  1  0.80771400  0.63019100  0.04755800  1
  C  646  1  0.82555400  0.65353400  0.03476000  1
  C  655  1  0.76697600  0.58378000  0.04781300  1
  C  658  1  0.89251000  0.75546500  0.95765900  1
  C  661  1  0.37738000  0.94320400  0.28208200  1
  C  662  1  0.34364000  0.94008200  0.27981000  1
  C  663  1  0.32455100  0.96310200  0.26741400  1
  C  664  1  0.33994500  0.99055200  0.25704800  1
  C  665  1  0.37379500  0.99348800  0.25897500  1
  C  666  1  0.39220800  0.97019900  0.27127400  1
  C  669  1  0.32243300  0.01548700  0.24511900  1
  C  670  1  0.29985300  0.03432200  0.25803200  1
  C  671  1  0.28134400  0.05785000  0.24606300  1
  C  672  1  0.28463900  0.06327700  0.22081900  1
  C  673  1  0.30838400  0.04543000  0.20820200  1
  C  674  1  0.32685200  0.02175700  0.22011300  1
  C  683  1  0.26440200  0.08860300  0.20908800  1
  C  686  1  0.39627600  0.91836600  0.29547600  1
  C  689  1  0.27273800  0.12184800  0.02652200  1
  C  690  1  0.30560900  0.11635000  0.03161600  1
  C  691  1  0.33021300  0.13716400  0.02314300  1
  C  692  1  0.32160200  0.16384500  0.00814100  1
  C  693  1  0.28862300  0.16944500  0.00319100  1
  C  694  1  0.26458700  0.14892100  0.01233300  1
  C  697  1  0.34494300  0.18435800  0.99701000  1
  C  698  1  0.34482200  0.21798900  0.00106100  1
  C  699  1  0.36859800  0.23789500  0.99068200  1
  C  700  1  0.39319000  0.22477900  0.97592700  1
  C  701  1  0.39285800  0.19127600  0.97143700  1
  C  702  1  0.36887700  0.17145100  0.98154200  1
  C  711  1  0.41980500  0.24504800  0.96614600  1
  C  714  1  0.24787100  0.09866900  0.03517800  1
  C  717  1  0.77915400  0.06169800  0.72808300  1
  C  718  1  0.81183200  0.06459000  0.72134300  1
  C  719  1  0.83527400  0.04146500  0.72815900  1
  C  720  1  0.82580400  0.01505500  0.74315000  1
  C  721  1  0.79302200  0.01223000  0.74988300  1
  C  722  1  0.77006700  0.03504100  0.74239500  1
  C  725  1  0.84810700  0.99178900  0.75228500  1
  C  726  1  0.84401700  0.95855000  0.74757700  1
  C  727  1  0.86650800  0.93579200  0.75607800  1
  C  728  1  0.89376700  0.94553200  0.76960300  1
  C  729  1  0.89752500  0.97867900  0.77469600  1
  C  730  1  0.87485100  0.00138000  0.76645600  1
  C  739  1  0.91883600  0.92203500  0.77745400  1
  C  742  1  0.75537100  0.08663200  0.72046600  1
  C  745  1  0.43151100  0.95044700  0.47480400  1
  C  746  1  0.43841000  0.98177200  0.46624300  1
  C  747  1  0.46423200  0.00035400  0.47563900  1
  C  748  1  0.48281400  0.98771300  0.49525600  1
  C  749  1  0.47574400  0.95635700  0.50383800  1
  C  750  1  0.45079000  0.93793000  0.49365000  1
  C  753  1  0.50736500  0.00568400  0.50743500  1
  C  754  1  0.50034800  0.03557900  0.51859000  1
  C  755  1  0.52423500  0.05276900  0.53131500  1
  C  756  1  0.55589400  0.04058300  0.53333200  1
  C  757  1  0.56277900  0.01043700  0.52259200  1
  C  758  1  0.53891400  0.99326700  0.50986900  1
  C  767  1  0.58085000  0.05801100  0.54760200  1
  C  770  1  0.40358200  0.93196900  0.46498800  1
  C  773  1  0.92990900  0.72007900  0.77788500  1
  C  774  1  0.93650200  0.68853000  0.78611300  1
  C  775  1  0.96281300  0.67030000  0.77710600  1
  C  776  1  0.98241000  0.68373000  0.75838200  1
  C  777  1  0.97569900  0.71530800  0.75014200  1
  C  778  1  0.95006500  0.73325600  0.75983100  1
  C  781  1  0.00792500  0.66643600  0.74687400  1
  C  782  1  0.00182100  0.63739300  0.73426200  1
  C  783  1  0.02684900  0.62074700  0.72241800  1
  C  784  1  0.05870500  0.63274200  0.72263900  1
  C  785  1  0.06473400  0.66193700  0.73505400  1
  C  786  1  0.03972800  0.67859000  0.74689000  1
  C  795  1  0.08503400  0.61493100  0.71012700  1
  C  798  1  0.90174700  0.73833800  0.78753700  1
  C  801  1  0.05586200  0.12717800  0.22587200  1
  C  802  1  0.02342500  0.12070600  0.21991100  1
  C  803  1  0.99801900  0.14172800  0.22654800  1
  C  804  1  0.00527300  0.16967200  0.24062300  1
  C  805  1  0.03783500  0.17619300  0.24645900  1
  C  806  1  0.06272300  0.15545300  0.23907100  1
  C  809  1  0.98099200  0.19052400  0.25017800  1
  C  810  1  0.98146200  0.22402000  0.24551500  1
  C  811  1  0.95741900  0.24439800  0.25496600  1
  C  812  1  0.93213600  0.23190600  0.26935300  1
  C  813  1  0.93183200  0.19849500  0.27421400  1
  C  814  1  0.95614300  0.17822700  0.26510600  1
  C  823  1  0.90592800  0.25289300  0.27889700  1
  C  826  1  0.08160000  0.10380400  0.21919900  1
  C  829  1  0.44842900  0.44560500  0.97102700  1
  C  830  1  0.46333200  0.47006300  0.95710900  1
  C  831  1  0.48769800  0.49028800  0.96678300  1
  C  832  1  0.49659000  0.48661900  0.99164200  1
  C  833  1  0.48094800  0.46287700  0.00578300  1
  C  834  1  0.45728700  0.44282000  0.99566800  1
  C  837  1  0.52044800  0.50592000  0.00323400  1
  C  838  1  0.51617000  0.53948000  0.00613500  1
  C  839  1  0.53903700  0.55807800  0.01879900  1
  C  840  1  0.56665700  0.54358600  0.02908700  1
  C  841  1  0.57093200  0.51005600  0.02608400  1
  C  842  1  0.54818900  0.49148700  0.01336800  1
  C  851  1  0.58979300  0.56226400  0.04413700  1
  C  854  1  0.42303300  0.42366600  0.96129100  1
  N  44  1  0.26435400  0.08897100  0.18195000  1
  N  46  1  0.06660000  0.07984000  0.07657500  1
  N  48  1  0.24986900  0.09395900  0.06200400  1
  N  50  1  0.08109300  0.09645900  0.19268300  1
  N  95  1  0.57750900  0.06965900  0.69437400  1
  N  97  1  0.75919400  0.09972900  0.57629600  1
  N  99  1  0.57678200  0.04994000  0.57367200  1
  N  101  1  0.75497900  0.09211200  0.69367000  1
  N  146  1  0.06912400  0.59908000  0.56395800  1
  N  148  1  0.26263200  0.57672900  0.67153200  1
  N  150  1  0.07929500  0.61473400  0.68342300  1
  N  152  1  0.25209600  0.58495200  0.55729100  1
  N  197  1  0.76677600  0.58518300  0.07493700  1
  N  199  1  0.57301200  0.58071500  0.18482200  1
  N  201  1  0.75724400  0.58801100  0.19459100  1
  N  203  1  0.58350800  0.55448400  0.07000600  1
  N  248  1  0.93372200  0.42586800  0.30483800  1
  N  250  1  0.89283800  0.24989800  0.42763900  1
  N  252  1  0.95378800  0.42699000  0.42464300  1
  N  254  1  0.90164800  0.25046900  0.30573300  1
  N  299  1  0.90064400  0.74057100  0.81455300  1
  N  301  1  0.94232800  0.92975000  0.92504900  1
  N  303  1  0.88886800  0.75182800  0.93090300  1
  N  305  1  0.92586500  0.92341200  0.80401600  1
  N  350  1  0.42361000  0.24212800  0.93929300  1
  N  352  1  0.39340900  0.42210400  0.81832800  1
  N  354  1  0.42279700  0.24098900  0.81472400  1
  N  356  1  0.41854300  0.42402200  0.93438200  1
  N  401  1  0.40233800  0.93007700  0.43796100  1
  N  403  1  0.44286800  0.74159700  0.32668300  1
  N  405  1  0.39000600  0.92135100  0.32194900  1
  N  407  1  0.42732200  0.74791300  0.44685300  1
  N  428  1  0.03983800  0.96731000  0.97926800  1
  N  456  1  0.79452400  0.18907600  0.46671000  1
  N  484  1  0.29823800  0.48996500  0.78110400  1
  N  512  1  0.54125600  0.70924600  0.27068600  1
  N  540  1  0.36404100  0.62907900  0.53251100  1
  N  568  1  0.86882300  0.54377400  0.21950800  1
  N  596  1  0.47081600  0.12162000  0.72492900  1
  N  624  1  0.04332700  0.45464400  0.48998700  1
  N  652  1  0.79016300  0.70780400  0.98344800  1
  N  680  1  0.29234500  0.95750300  0.26545500  1
  N  708  1  0.36102300  0.13110000  0.03025900  1
  N  736  1  0.86573700  0.04509600  0.71942600  1
  N  764  1  0.47069800  0.02925100  0.46503200  1
  N  792  1  0.96872800  0.64097000  0.78721000  1
  N  820  1  0.96779100  0.13461000  0.21861100  1
  N  848  1  0.50223700  0.51178200  0.95167500  1
