# generated using pymatgen
data_Mn2SiH16(C7N4)4
_symmetry_space_group_name_H-M   'P 1'
_cell_length_a   31.78754905
_cell_length_b   31.78754905
_cell_length_c   31.78754905
_cell_angle_alpha   109.47122063
_cell_angle_beta   109.47122063
_cell_angle_gamma   109.47122063
_symmetry_Int_Tables_number   1
_chemical_formula_structural   Mn2SiH16(C7N4)4
_chemical_formula_sum   'Mn24 Si12 H192 C336 N192'
_cell_volume   24725.73664042
_cell_formula_units_Z   12
loop_
 _symmetry_equiv_pos_site_id
 _symmetry_equiv_pos_as_xyz
  1  'x, y, z'
loop_
 _atom_site_type_symbol
 _atom_site_label
 _atom_site_symmetry_multiplicity
 _atom_site_fract_x
 _atom_site_fract_y
 _atom_site_fract_z
 _atom_site_occupancy
  C  C1  1  0.08130000  0.09630000  0.95460000  1.0
  C  C2  1  0.09230000  0.13560000  0.93570000  1.0
  C  C3  1  0.13150000  0.14480000  0.91830000  1.0
  C  C4  1  0.07040000  0.16440000  0.93920000  1.0
  C  C5  1  0.13650000  0.17910000  0.90080000  1.0
  C  C6  1  0.07810000  0.19650000  0.92200000  1.0
  C  C7  1  0.10910000  0.20510000  0.90040000  1.0
  C  C15  1  0.41870000  0.87330000  0.51500000  1.0
  C  C16  1  0.40770000  0.84340000  0.54330000  1.0
  C  C17  1  0.36850000  0.78680000  0.51330000  1.0
  C  C18  1  0.42960000  0.86880000  0.59400000  1.0
  C  C19  1  0.36350000  0.76430000  0.54260000  1.0
  C  C20  1  0.42190000  0.84390000  0.61840000  1.0
  C  C21  1  0.39090000  0.79130000  0.59600000  1.0
  C  C29  1  0.35830000  0.40370000  0.98500000  1.0
  C  C30  1  0.30010000  0.36440000  0.95670000  1.0
  C  C31  1  0.27350000  0.35520000  0.98670000  1.0
  C  C32  1  0.27480000  0.33560000  0.90600000  1.0
  C  C33  1  0.22170000  0.32090000  0.95740000  1.0
  C  C34  1  0.22550000  0.30350000  0.88160000  1.0
  C  C35  1  0.19530000  0.29490000  0.90400000  1.0
  C  C43  1  0.14170000  0.62670000  0.54540000  1.0
  C  C44  1  0.19990000  0.65660000  0.56430000  1.0
  C  C45  1  0.22650000  0.71320000  0.58170000  1.0
  C  C46  1  0.22520000  0.63120000  0.56080000  1.0
  C  C47  1  0.27830000  0.73570000  0.59920000  1.0
  C  C48  1  0.27450000  0.65610000  0.57800000  1.0
  C  C49  1  0.30470000  0.70870000  0.59960000  1.0
  C  C57  1  0.12670000  0.04540000  0.14170000  1.0
  C  C58  1  0.15660000  0.06430000  0.19990000  1.0
  C  C59  1  0.21320000  0.08170000  0.22650000  1.0
  C  C60  1  0.13120000  0.06080000  0.22520000  1.0
  C  C61  1  0.23570000  0.09920000  0.27830000  1.0
  C  C62  1  0.15610000  0.07800000  0.27450000  1.0
  C  C63  1  0.20870000  0.09960000  0.30470000  1.0
  C  C71  1  0.90370000  0.48500000  0.35830000  1.0
  C  C72  1  0.86440000  0.45670000  0.30010000  1.0
  C  C73  1  0.85520000  0.48670000  0.27350000  1.0
  C  C74  1  0.83560000  0.40600000  0.27480000  1.0
  C  C75  1  0.82090000  0.45740000  0.22170000  1.0
  C  C76  1  0.80350000  0.38160000  0.22550000  1.0
  C  C77  1  0.79490000  0.40400000  0.19530000  1.0
  C  C85  1  0.37330000  0.01500000  0.41870000  1.0
  C  C86  1  0.34340000  0.04330000  0.40770000  1.0
  C  C87  1  0.28680000  0.01330000  0.36850000  1.0
  C  C88  1  0.36880000  0.09400000  0.42960000  1.0
  C  C89  1  0.26430000  0.04260000  0.36350000  1.0
  C  C90  1  0.34390000  0.11840000  0.42190000  1.0
  C  C91  1  0.29130000  0.09600000  0.39090000  1.0
  C  C99  1  0.59630000  0.45460000  0.08130000  1.0
  C  C100  1  0.63560000  0.43570000  0.09230000  1.0
  C  C101  1  0.64480000  0.41830000  0.13150000  1.0
  C  C102  1  0.66440000  0.43920000  0.07040000  1.0
  C  C103  1  0.67910000  0.40080000  0.13650000  1.0
  C  C104  1  0.69650000  0.42200000  0.07810000  1.0
  C  C105  1  0.70510000  0.40040000  0.10910000  1.0
  C  C113  1  0.98500000  0.85830000  0.90370000  1.0
  C  C114  1  0.95670000  0.80010000  0.86440000  1.0
  C  C115  1  0.98670000  0.77350000  0.85520000  1.0
  C  C116  1  0.90600000  0.77480000  0.83560000  1.0
  C  C117  1  0.95740000  0.72170000  0.82090000  1.0
  C  C118  1  0.88160000  0.72550000  0.80350000  1.0
  C  C119  1  0.90400000  0.69530000  0.79490000  1.0
  C  C127  1  0.54540000  0.64170000  0.12670000  1.0
  C  C128  1  0.56430000  0.69990000  0.15660000  1.0
  C  C129  1  0.58170000  0.72650000  0.21320000  1.0
  C  C130  1  0.56080000  0.72520000  0.13120000  1.0
  C  C131  1  0.59920000  0.77830000  0.23570000  1.0
  C  C132  1  0.57800000  0.77450000  0.15610000  1.0
  C  C133  1  0.59960000  0.80470000  0.20870000  1.0
  C  C141  1  0.95460000  0.58130000  0.59630000  1.0
  C  C142  1  0.93570000  0.59230000  0.63560000  1.0
  C  C143  1  0.91830000  0.63150000  0.64480000  1.0
  C  C144  1  0.93920000  0.57040000  0.66440000  1.0
  C  C145  1  0.90080000  0.63650000  0.67910000  1.0
  C  C146  1  0.92200000  0.57810000  0.69650000  1.0
  C  C147  1  0.90040000  0.60910000  0.70510000  1.0
  C  C155  1  0.51500000  0.91870000  0.37330000  1.0
  C  C156  1  0.54330000  0.90770000  0.34340000  1.0
  C  C157  1  0.51330000  0.86850000  0.28680000  1.0
  C  C158  1  0.59400000  0.92960000  0.36880000  1.0
  C  C159  1  0.54260000  0.86350000  0.26430000  1.0
  C  C160  1  0.61840000  0.92190000  0.34390000  1.0
  C  C161  1  0.59600000  0.89090000  0.29130000  1.0
  C  C169  1  0.08130000  0.48500000  0.12670000  1.0
  C  C170  1  0.09230000  0.45670000  0.15660000  1.0
  C  C171  1  0.13150000  0.48670000  0.21320000  1.0
  C  C172  1  0.07040000  0.40600000  0.13120000  1.0
  C  C173  1  0.13650000  0.45740000  0.23570000  1.0
  C  C174  1  0.07810000  0.38160000  0.15610000  1.0
  C  C175  1  0.10910000  0.40400000  0.20870000  1.0
  C  C183  1  0.41870000  0.04540000  0.90370000  1.0
  C  C184  1  0.40770000  0.06430000  0.86440000  1.0
  C  C185  1  0.36850000  0.08170000  0.85520000  1.0
  C  C186  1  0.42960000  0.06080000  0.83560000  1.0
  C  C187  1  0.36350000  0.09920000  0.82090000  1.0
  C  C188  1  0.42190000  0.07800000  0.80350000  1.0
  C  C189  1  0.39090000  0.09960000  0.79490000  1.0
  C  C197  1  0.35830000  0.45460000  0.37330000  1.0
  C  C198  1  0.30010000  0.43570000  0.34340000  1.0
  C  C199  1  0.27350000  0.41830000  0.28680000  1.0
  C  C200  1  0.27480000  0.43920000  0.36880000  1.0
  C  C201  1  0.22170000  0.40080000  0.26430000  1.0
  C  C202  1  0.22550000  0.42200000  0.34390000  1.0
  C  C203  1  0.19530000  0.40040000  0.29130000  1.0
  C  C211  1  0.14170000  0.01500000  0.59630000  1.0
  C  C212  1  0.19990000  0.04330000  0.63560000  1.0
  C  C213  1  0.22650000  0.01330000  0.64480000  1.0
  C  C214  1  0.22520000  0.09400000  0.66440000  1.0
  C  C215  1  0.27830000  0.04260000  0.67910000  1.0
  C  C216  1  0.27450000  0.11840000  0.69650000  1.0
  C  C217  1  0.30470000  0.09600000  0.70510000  1.0
  C  C225  1  0.12670000  0.58130000  0.98500000  1.0
  C  C226  1  0.15660000  0.59230000  0.95670000  1.0
  C  C227  1  0.21320000  0.63150000  0.98670000  1.0
  C  C228  1  0.13120000  0.57040000  0.90600000  1.0
  C  C229  1  0.23570000  0.63650000  0.95740000  1.0
  C  C230  1  0.15610000  0.57810000  0.88160000  1.0
  C  C231  1  0.20870000  0.60910000  0.90400000  1.0
  C  C239  1  0.90370000  0.91870000  0.54540000  1.0
  C  C240  1  0.86440000  0.90770000  0.56430000  1.0
  C  C241  1  0.85520000  0.86850000  0.58170000  1.0
  C  C242  1  0.83560000  0.92960000  0.56080000  1.0
  C  C243  1  0.82090000  0.86350000  0.59920000  1.0
  C  C244  1  0.80350000  0.92190000  0.57800000  1.0
  C  C245  1  0.79490000  0.89090000  0.59960000  1.0
  C  C253  1  0.37330000  0.85830000  0.95460000  1.0
  C  C254  1  0.34340000  0.80010000  0.93570000  1.0
  C  C255  1  0.28680000  0.77350000  0.91830000  1.0
  C  C256  1  0.36880000  0.77480000  0.93920000  1.0
  C  C257  1  0.26430000  0.72170000  0.90080000  1.0
  C  C258  1  0.34390000  0.72550000  0.92200000  1.0
  C  C259  1  0.29130000  0.69530000  0.90040000  1.0
  C  C267  1  0.59630000  0.64170000  0.51500000  1.0
  C  C268  1  0.63560000  0.69990000  0.54330000  1.0
  C  C269  1  0.64480000  0.72650000  0.51330000  1.0
  C  C270  1  0.66440000  0.72520000  0.59400000  1.0
  C  C271  1  0.67910000  0.77830000  0.54260000  1.0
  C  C272  1  0.69650000  0.77450000  0.61840000  1.0
  C  C273  1  0.70510000  0.80470000  0.59600000  1.0
  C  C281  1  0.98500000  0.62670000  0.08130000  1.0
  C  C282  1  0.95670000  0.65660000  0.09230000  1.0
  C  C283  1  0.98670000  0.71320000  0.13150000  1.0
  C  C284  1  0.90600000  0.63120000  0.07040000  1.0
  C  C285  1  0.95740000  0.73570000  0.13650000  1.0
  C  C286  1  0.88160000  0.65610000  0.07810000  1.0
  C  C287  1  0.90400000  0.70870000  0.10910000  1.0
  C  C295  1  0.54540000  0.40370000  0.41870000  1.0
  C  C296  1  0.56430000  0.36440000  0.40770000  1.0
  C  C297  1  0.58170000  0.35520000  0.36850000  1.0
  C  C298  1  0.56080000  0.33560000  0.42960000  1.0
  C  C299  1  0.59920000  0.32090000  0.36350000  1.0
  C  C300  1  0.57800000  0.30350000  0.42190000  1.0
  C  C301  1  0.59960000  0.29490000  0.39090000  1.0
  C  C309  1  0.95460000  0.87330000  0.35830000  1.0
  C  C310  1  0.93570000  0.84340000  0.30010000  1.0
  C  C311  1  0.91830000  0.78680000  0.27350000  1.0
  C  C312  1  0.93920000  0.86880000  0.27480000  1.0
  C  C313  1  0.90080000  0.76430000  0.22170000  1.0
  C  C314  1  0.92200000  0.84390000  0.22550000  1.0
  C  C315  1  0.90040000  0.79130000  0.19530000  1.0
  C  C323  1  0.51500000  0.09630000  0.14170000  1.0
  C  C324  1  0.54330000  0.13560000  0.19990000  1.0
  C  C325  1  0.51330000  0.14480000  0.22650000  1.0
  C  C326  1  0.59400000  0.16440000  0.22520000  1.0
  C  C327  1  0.54260000  0.17910000  0.27830000  1.0
  C  C328  1  0.61840000  0.19650000  0.27450000  1.0
  C  C329  1  0.59600000  0.20510000  0.30470000  1.0
  C  C337  1  0.91870000  0.90370000  0.04540000  1.0
  C  C338  1  0.90770000  0.86440000  0.06430000  1.0
  C  C339  1  0.86850000  0.85520000  0.08170000  1.0
  C  C340  1  0.92960000  0.83560000  0.06080000  1.0
  C  C341  1  0.86350000  0.82090000  0.09920000  1.0
  C  C342  1  0.92190000  0.80350000  0.07800000  1.0
  C  C343  1  0.89090000  0.79490000  0.09960000  1.0
  C  C351  1  0.58130000  0.12670000  0.48500000  1.0
  C  C352  1  0.59230000  0.15660000  0.45670000  1.0
  C  C353  1  0.63150000  0.21320000  0.48670000  1.0
  C  C354  1  0.57040000  0.13120000  0.40600000  1.0
  C  C355  1  0.63650000  0.23570000  0.45740000  1.0
  C  C356  1  0.57810000  0.15610000  0.38160000  1.0
  C  C357  1  0.60910000  0.20870000  0.40400000  1.0
  C  C365  1  0.64170000  0.59630000  0.01500000  1.0
  C  C366  1  0.69990000  0.63560000  0.04330000  1.0
  C  C367  1  0.72650000  0.64480000  0.01330000  1.0
  C  C368  1  0.72520000  0.66440000  0.09400000  1.0
  C  C369  1  0.77830000  0.67910000  0.04260000  1.0
  C  C370  1  0.77450000  0.69650000  0.11840000  1.0
  C  C371  1  0.80470000  0.70510000  0.09600000  1.0
  C  C379  1  0.85830000  0.37330000  0.45460000  1.0
  C  C380  1  0.80010000  0.34340000  0.43570000  1.0
  C  C381  1  0.77350000  0.28680000  0.41830000  1.0
  C  C382  1  0.77480000  0.36880000  0.43920000  1.0
  C  C383  1  0.72170000  0.26430000  0.40080000  1.0
  C  C384  1  0.72550000  0.34390000  0.42200000  1.0
  C  C385  1  0.69530000  0.29130000  0.40040000  1.0
  C  C393  1  0.87330000  0.95460000  0.85830000  1.0
  C  C394  1  0.84340000  0.93570000  0.80010000  1.0
  C  C395  1  0.78680000  0.91830000  0.77350000  1.0
  C  C396  1  0.86880000  0.93920000  0.77480000  1.0
  C  C397  1  0.76430000  0.90080000  0.72170000  1.0
  C  C398  1  0.84390000  0.92200000  0.72550000  1.0
  C  C399  1  0.79130000  0.90040000  0.69530000  1.0
  C  C407  1  0.09630000  0.51500000  0.64170000  1.0
  C  C408  1  0.13560000  0.54330000  0.69990000  1.0
  C  C409  1  0.14480000  0.51330000  0.72650000  1.0
  C  C410  1  0.16440000  0.59400000  0.72520000  1.0
  C  C411  1  0.17910000  0.54260000  0.77830000  1.0
  C  C412  1  0.19650000  0.61840000  0.77450000  1.0
  C  C413  1  0.20510000  0.59600000  0.80470000  1.0
  C  C421  1  0.62670000  0.98500000  0.58130000  1.0
  C  C422  1  0.65660000  0.95670000  0.59230000  1.0
  C  C423  1  0.71320000  0.98670000  0.63150000  1.0
  C  C424  1  0.63120000  0.90600000  0.57040000  1.0
  C  C425  1  0.73570000  0.95740000  0.63650000  1.0
  C  C426  1  0.65610000  0.88160000  0.57810000  1.0
  C  C427  1  0.70870000  0.90400000  0.60910000  1.0
  C  C435  1  0.40370000  0.54540000  0.91870000  1.0
  C  C436  1  0.36440000  0.56430000  0.90770000  1.0
  C  C437  1  0.35520000  0.58170000  0.86850000  1.0
  C  C438  1  0.33560000  0.56080000  0.92960000  1.0
  C  C439  1  0.32090000  0.59920000  0.86350000  1.0
  C  C440  1  0.30350000  0.57800000  0.92190000  1.0
  C  C441  1  0.29490000  0.59960000  0.89090000  1.0
  C  C449  1  0.01500000  0.14170000  0.09630000  1.0
  C  C450  1  0.04330000  0.19990000  0.13560000  1.0
  C  C451  1  0.01330000  0.22650000  0.14480000  1.0
  C  C452  1  0.09400000  0.22520000  0.16440000  1.0
  C  C453  1  0.04260000  0.27830000  0.17910000  1.0
  C  C454  1  0.11840000  0.27450000  0.19650000  1.0
  C  C455  1  0.09600000  0.30470000  0.20510000  1.0
  C  C463  1  0.45460000  0.35830000  0.87330000  1.0
  C  C464  1  0.43570000  0.30010000  0.84340000  1.0
  C  C465  1  0.41830000  0.27350000  0.78680000  1.0
  C  C466  1  0.43920000  0.27480000  0.86880000  1.0
  C  C467  1  0.40080000  0.22170000  0.76430000  1.0
  C  C468  1  0.42200000  0.22550000  0.84390000  1.0
  C  C469  1  0.40040000  0.19530000  0.79130000  1.0
  C  C477  1  0.04540000  0.41870000  0.40370000  1.0
  C  C478  1  0.06430000  0.40770000  0.36440000  1.0
  C  C479  1  0.08170000  0.36850000  0.35520000  1.0
  C  C480  1  0.06080000  0.42960000  0.33560000  1.0
  C  C481  1  0.09920000  0.36350000  0.32090000  1.0
  C  C482  1  0.07800000  0.42190000  0.30350000  1.0
  C  C483  1  0.09960000  0.39090000  0.29490000  1.0
  C  C491  1  0.48500000  0.08130000  0.62670000  1.0
  C  C492  1  0.45670000  0.09230000  0.65660000  1.0
  C  C493  1  0.48670000  0.13150000  0.71320000  1.0
  C  C494  1  0.40600000  0.07040000  0.63120000  1.0
  C  C495  1  0.45740000  0.13650000  0.73570000  1.0
  C  C496  1  0.38160000  0.07810000  0.65610000  1.0
  C  C497  1  0.40400000  0.10910000  0.70870000  1.0
  C  C505  1  0.91870000  0.51500000  0.87330000  1.0
  C  C506  1  0.90770000  0.54330000  0.84340000  1.0
  C  C507  1  0.86850000  0.51330000  0.78680000  1.0
  C  C508  1  0.92960000  0.59400000  0.86880000  1.0
  C  C509  1  0.86350000  0.54260000  0.76430000  1.0
  C  C510  1  0.92190000  0.61840000  0.84390000  1.0
  C  C511  1  0.89090000  0.59600000  0.79130000  1.0
  C  C519  1  0.58130000  0.95460000  0.09630000  1.0
  C  C520  1  0.59230000  0.93570000  0.13560000  1.0
  C  C521  1  0.63150000  0.91830000  0.14480000  1.0
  C  C522  1  0.57040000  0.93920000  0.16440000  1.0
  C  C523  1  0.63650000  0.90080000  0.17910000  1.0
  C  C524  1  0.57810000  0.92200000  0.19650000  1.0
  C  C525  1  0.60910000  0.90040000  0.20510000  1.0
  C  C533  1  0.64170000  0.54540000  0.62670000  1.0
  C  C534  1  0.69990000  0.56430000  0.65660000  1.0
  C  C535  1  0.72650000  0.58170000  0.71320000  1.0
  C  C536  1  0.72520000  0.56080000  0.63120000  1.0
  C  C537  1  0.77830000  0.59920000  0.73570000  1.0
  C  C538  1  0.77450000  0.57800000  0.65610000  1.0
  C  C539  1  0.80470000  0.59960000  0.70870000  1.0
  C  C547  1  0.85830000  0.98500000  0.40370000  1.0
  C  C548  1  0.80010000  0.95670000  0.36440000  1.0
  C  C549  1  0.77350000  0.98670000  0.35520000  1.0
  C  C550  1  0.77480000  0.90600000  0.33560000  1.0
  C  C551  1  0.72170000  0.95740000  0.32090000  1.0
  C  C552  1  0.72550000  0.88160000  0.30350000  1.0
  C  C553  1  0.69530000  0.90400000  0.29490000  1.0
  C  C561  1  0.87330000  0.41870000  0.01500000  1.0
  C  C562  1  0.84340000  0.40770000  0.04330000  1.0
  C  C563  1  0.78680000  0.36850000  0.01330000  1.0
  C  C564  1  0.86880000  0.42960000  0.09400000  1.0
  C  C565  1  0.76430000  0.36350000  0.04260000  1.0
  C  C566  1  0.84390000  0.42190000  0.11840000  1.0
  C  C567  1  0.79130000  0.39090000  0.09600000  1.0
  C  C575  1  0.09630000  0.08130000  0.45460000  1.0
  C  C576  1  0.13560000  0.09230000  0.43570000  1.0
  C  C577  1  0.14480000  0.13150000  0.41830000  1.0
  C  C578  1  0.16440000  0.07040000  0.43920000  1.0
  C  C579  1  0.17910000  0.13650000  0.40080000  1.0
  C  C580  1  0.19650000  0.07810000  0.42200000  1.0
  C  C581  1  0.20510000  0.10910000  0.40040000  1.0
  C  C589  1  0.62670000  0.14170000  0.04540000  1.0
  C  C590  1  0.65660000  0.19990000  0.06430000  1.0
  C  C591  1  0.71320000  0.22650000  0.08170000  1.0
  C  C592  1  0.63120000  0.22520000  0.06080000  1.0
  C  C593  1  0.73570000  0.27830000  0.09920000  1.0
  C  C594  1  0.65610000  0.27450000  0.07800000  1.0
  C  C595  1  0.70870000  0.30470000  0.09960000  1.0
  C  C603  1  0.40370000  0.35830000  0.48500000  1.0
  C  C604  1  0.36440000  0.30010000  0.45670000  1.0
  C  C605  1  0.35520000  0.27350000  0.48670000  1.0
  C  C606  1  0.33560000  0.27480000  0.40600000  1.0
  C  C607  1  0.32090000  0.22170000  0.45740000  1.0
  C  C608  1  0.30350000  0.22550000  0.38160000  1.0
  C  C609  1  0.29490000  0.19530000  0.40400000  1.0
  C  C617  1  0.01500000  0.37330000  0.91870000  1.0
  C  C618  1  0.04330000  0.34340000  0.90770000  1.0
  C  C619  1  0.01330000  0.28680000  0.86850000  1.0
  C  C620  1  0.09400000  0.36880000  0.92960000  1.0
  C  C621  1  0.04260000  0.26430000  0.86350000  1.0
  C  C622  1  0.11840000  0.34390000  0.92190000  1.0
  C  C623  1  0.09600000  0.29130000  0.89090000  1.0
  C  C631  1  0.45460000  0.59630000  0.58130000  1.0
  C  C632  1  0.43570000  0.63560000  0.59230000  1.0
  C  C633  1  0.41830000  0.64480000  0.63150000  1.0
  C  C634  1  0.43920000  0.66440000  0.57040000  1.0
  C  C635  1  0.40080000  0.67910000  0.63650000  1.0
  C  C636  1  0.42200000  0.69650000  0.57810000  1.0
  C  C637  1  0.40040000  0.70510000  0.60910000  1.0
  C  C645  1  0.04540000  0.12670000  0.64170000  1.0
  C  C646  1  0.06430000  0.15660000  0.69990000  1.0
  C  C647  1  0.08170000  0.21320000  0.72650000  1.0
  C  C648  1  0.06080000  0.13120000  0.72520000  1.0
  C  C649  1  0.09920000  0.23570000  0.77830000  1.0
  C  C650  1  0.07800000  0.15610000  0.77450000  1.0
  C  C651  1  0.09960000  0.20870000  0.80470000  1.0
  C  C659  1  0.48500000  0.90370000  0.85830000  1.0
  C  C660  1  0.45670000  0.86440000  0.80010000  1.0
  C  C661  1  0.48670000  0.85520000  0.77350000  1.0
  C  C662  1  0.40600000  0.83560000  0.77480000  1.0
  C  C663  1  0.45740000  0.82090000  0.72170000  1.0
  C  C664  1  0.38160000  0.80350000  0.72550000  1.0
  C  C665  1  0.40400000  0.79490000  0.69530000  1.0
  H  H1  1  0.15120000  0.12800000  0.91940000  1.0
  H  H2  1  0.04910000  0.16170000  0.95420000  1.0
  H  H3  1  0.15970000  0.18530000  0.88820000  1.0
  H  H4  1  0.06090000  0.21580000  0.92450000  1.0
  H  H9  1  0.34880000  0.76820000  0.47680000  1.0
  H  H10  1  0.45090000  0.90510000  0.61260000  1.0
  H  H11  1  0.34030000  0.72850000  0.52560000  1.0
  H  H12  1  0.43910000  0.86360000  0.65490000  1.0
  H  H17  1  0.29140000  0.37200000  0.02320000  1.0
  H  H18  1  0.29250000  0.33830000  0.88740000  1.0
  H  H19  1  0.20290000  0.31470000  0.97440000  1.0
  H  H20  1  0.20870000  0.28420000  0.84510000  1.0
  H  H25  1  0.20860000  0.73180000  0.58060000  1.0
  H  H26  1  0.20750000  0.59490000  0.54580000  1.0
  H  H27  1  0.29710000  0.77150000  0.61180000  1.0
  H  H28  1  0.29130000  0.63640000  0.57550000  1.0
  H  H33  1  0.23180000  0.08060000  0.20860000  1.0
  H  H34  1  0.09490000  0.04580000  0.20750000  1.0
  H  H35  1  0.27150000  0.11180000  0.29710000  1.0
  H  H36  1  0.13640000  0.07550000  0.29130000  1.0
  H  H41  1  0.87200000  0.52320000  0.29140000  1.0
  H  H42  1  0.83830000  0.38740000  0.29250000  1.0
  H  H43  1  0.81470000  0.47440000  0.20290000  1.0
  H  H44  1  0.78420000  0.34510000  0.20870000  1.0
  H  H49  1  0.26820000  0.97680000  0.34880000  1.0
  H  H50  1  0.40510000  0.11260000  0.45090000  1.0
  H  H51  1  0.22850000  0.02560000  0.34030000  1.0
  H  H52  1  0.36360000  0.15490000  0.43910000  1.0
  H  H57  1  0.62800000  0.41940000  0.15120000  1.0
  H  H58  1  0.66170000  0.45420000  0.04910000  1.0
  H  H59  1  0.68530000  0.38820000  0.15970000  1.0
  H  H60  1  0.71580000  0.42450000  0.06090000  1.0
  H  H65  1  0.02320000  0.79140000  0.87200000  1.0
  H  H66  1  0.88740000  0.79250000  0.83830000  1.0
  H  H67  1  0.97440000  0.70290000  0.81470000  1.0
  H  H68  1  0.84510000  0.70870000  0.78420000  1.0
  H  H73  1  0.58060000  0.70860000  0.23180000  1.0
  H  H74  1  0.54580000  0.70750000  0.09490000  1.0
  H  H75  1  0.61180000  0.79710000  0.27150000  1.0
  H  H76  1  0.57550000  0.79130000  0.13640000  1.0
  H  H81  1  0.91940000  0.65120000  0.62800000  1.0
  H  H82  1  0.95420000  0.54910000  0.66170000  1.0
  H  H83  1  0.88820000  0.65970000  0.68530000  1.0
  H  H84  1  0.92450000  0.56090000  0.71580000  1.0
  H  H89  1  0.47680000  0.84880000  0.26820000  1.0
  H  H90  1  0.61260000  0.95090000  0.40510000  1.0
  H  H91  1  0.52560000  0.84030000  0.22850000  1.0
  H  H92  1  0.65490000  0.93910000  0.36360000  1.0
  H  H97  1  0.15120000  0.52320000  0.23180000  1.0
  H  H98  1  0.04910000  0.38740000  0.09490000  1.0
  H  H99  1  0.15970000  0.47440000  0.27150000  1.0
  H  H100  1  0.06090000  0.34510000  0.13640000  1.0
  H  H105  1  0.34880000  0.08060000  0.87200000  1.0
  H  H106  1  0.45090000  0.04580000  0.83830000  1.0
  H  H107  1  0.34030000  0.11180000  0.81470000  1.0
  H  H108  1  0.43910000  0.07550000  0.78420000  1.0
  H  H113  1  0.29140000  0.41940000  0.26820000  1.0
  H  H114  1  0.29250000  0.45420000  0.40510000  1.0
  H  H115  1  0.20290000  0.38820000  0.22850000  1.0
  H  H116  1  0.20870000  0.42450000  0.36360000  1.0
  H  H121  1  0.20860000  0.97680000  0.62800000  1.0
  H  H122  1  0.20750000  0.11260000  0.66170000  1.0
  H  H123  1  0.29710000  0.02560000  0.68530000  1.0
  H  H124  1  0.29130000  0.15490000  0.71580000  1.0
  H  H129  1  0.23180000  0.65120000  0.02320000  1.0
  H  H130  1  0.09490000  0.54910000  0.88740000  1.0
  H  H131  1  0.27150000  0.65970000  0.97440000  1.0
  H  H132  1  0.13640000  0.56090000  0.84510000  1.0
  H  H137  1  0.87200000  0.84880000  0.58060000  1.0
  H  H138  1  0.83830000  0.95090000  0.54580000  1.0
  H  H139  1  0.81470000  0.84030000  0.61180000  1.0
  H  H140  1  0.78420000  0.93910000  0.57550000  1.0
  H  H145  1  0.26820000  0.79140000  0.91940000  1.0
  H  H146  1  0.40510000  0.79250000  0.95420000  1.0
  H  H147  1  0.22850000  0.70290000  0.88820000  1.0
  H  H148  1  0.36360000  0.70870000  0.92450000  1.0
  H  H153  1  0.62800000  0.70860000  0.47680000  1.0
  H  H154  1  0.66170000  0.70750000  0.61260000  1.0
  H  H155  1  0.68530000  0.79710000  0.52560000  1.0
  H  H156  1  0.71580000  0.79130000  0.65490000  1.0
  H  H161  1  0.02320000  0.73180000  0.15120000  1.0
  H  H162  1  0.88740000  0.59490000  0.04910000  1.0
  H  H163  1  0.97440000  0.77150000  0.15970000  1.0
  H  H164  1  0.84510000  0.63640000  0.06090000  1.0
  H  H169  1  0.58060000  0.37200000  0.34880000  1.0
  H  H170  1  0.54580000  0.33830000  0.45090000  1.0
  H  H171  1  0.61180000  0.31470000  0.34030000  1.0
  H  H172  1  0.57550000  0.28420000  0.43910000  1.0
  H  H177  1  0.91940000  0.76820000  0.29140000  1.0
  H  H178  1  0.95420000  0.90510000  0.29250000  1.0
  H  H179  1  0.88820000  0.72850000  0.20290000  1.0
  H  H180  1  0.92450000  0.86360000  0.20870000  1.0
  H  H185  1  0.47680000  0.12800000  0.20860000  1.0
  H  H186  1  0.61260000  0.16170000  0.20750000  1.0
  H  H187  1  0.52560000  0.18530000  0.29710000  1.0
  H  H188  1  0.65490000  0.21580000  0.29130000  1.0
  H  H193  1  0.84880000  0.87200000  0.08060000  1.0
  H  H194  1  0.95090000  0.83830000  0.04580000  1.0
  H  H195  1  0.84030000  0.81470000  0.11180000  1.0
  H  H196  1  0.93910000  0.78420000  0.07550000  1.0
  H  H201  1  0.65120000  0.23180000  0.52320000  1.0
  H  H202  1  0.54910000  0.09490000  0.38740000  1.0
  H  H203  1  0.65970000  0.27150000  0.47440000  1.0
  H  H204  1  0.56090000  0.13640000  0.34510000  1.0
  H  H209  1  0.70860000  0.62800000  0.97680000  1.0
  H  H210  1  0.70750000  0.66170000  0.11260000  1.0
  H  H211  1  0.79710000  0.68530000  0.02560000  1.0
  H  H212  1  0.79130000  0.71580000  0.15490000  1.0
  H  H217  1  0.79140000  0.26820000  0.41940000  1.0
  H  H218  1  0.79250000  0.40510000  0.45420000  1.0
  H  H219  1  0.70290000  0.22850000  0.38820000  1.0
  H  H220  1  0.70870000  0.36360000  0.42450000  1.0
  H  H225  1  0.76820000  0.91940000  0.79140000  1.0
  H  H226  1  0.90510000  0.95420000  0.79250000  1.0
  H  H227  1  0.72850000  0.88820000  0.70290000  1.0
  H  H228  1  0.86360000  0.92450000  0.70870000  1.0
  H  H233  1  0.12800000  0.47680000  0.70860000  1.0
  H  H234  1  0.16170000  0.61260000  0.70750000  1.0
  H  H235  1  0.18530000  0.52560000  0.79710000  1.0
  H  H236  1  0.21580000  0.65490000  0.79130000  1.0
  H  H241  1  0.73180000  0.02320000  0.65120000  1.0
  H  H242  1  0.59490000  0.88740000  0.54910000  1.0
  H  H243  1  0.77150000  0.97440000  0.65970000  1.0
  H  H244  1  0.63640000  0.84510000  0.56090000  1.0
  H  H249  1  0.37200000  0.58060000  0.84880000  1.0
  H  H250  1  0.33830000  0.54580000  0.95090000  1.0
  H  H251  1  0.31470000  0.61180000  0.84030000  1.0
  H  H252  1  0.28420000  0.57550000  0.93910000  1.0
  H  H257  1  0.97680000  0.20860000  0.12800000  1.0
  H  H258  1  0.11260000  0.20750000  0.16170000  1.0
  H  H259  1  0.02560000  0.29710000  0.18530000  1.0
  H  H260  1  0.15490000  0.29130000  0.21580000  1.0
  H  H265  1  0.41940000  0.29140000  0.76820000  1.0
  H  H266  1  0.45420000  0.29250000  0.90510000  1.0
  H  H267  1  0.38820000  0.20290000  0.72850000  1.0
  H  H268  1  0.42450000  0.20870000  0.86360000  1.0
  H  H273  1  0.08060000  0.34880000  0.37200000  1.0
  H  H274  1  0.04580000  0.45090000  0.33830000  1.0
  H  H275  1  0.11180000  0.34030000  0.31470000  1.0
  H  H276  1  0.07550000  0.43910000  0.28420000  1.0
  H  H281  1  0.52320000  0.15120000  0.73180000  1.0
  H  H282  1  0.38740000  0.04910000  0.59490000  1.0
  H  H283  1  0.47440000  0.15970000  0.77150000  1.0
  H  H284  1  0.34510000  0.06090000  0.63640000  1.0
  H  H289  1  0.84880000  0.47680000  0.76820000  1.0
  H  H290  1  0.95090000  0.61260000  0.90510000  1.0
  H  H291  1  0.84030000  0.52560000  0.72850000  1.0
  H  H292  1  0.93910000  0.65490000  0.86360000  1.0
  H  H297  1  0.65120000  0.91940000  0.12800000  1.0
  H  H298  1  0.54910000  0.95420000  0.16170000  1.0
  H  H299  1  0.65970000  0.88820000  0.18530000  1.0
  H  H300  1  0.56090000  0.92450000  0.21580000  1.0
  H  H305  1  0.70860000  0.58060000  0.73180000  1.0
  H  H306  1  0.70750000  0.54580000  0.59490000  1.0
  H  H307  1  0.79710000  0.61180000  0.77150000  1.0
  H  H308  1  0.79130000  0.57550000  0.63640000  1.0
  H  H313  1  0.79140000  0.02320000  0.37200000  1.0
  H  H314  1  0.79250000  0.88740000  0.33830000  1.0
  H  H315  1  0.70290000  0.97440000  0.31470000  1.0
  H  H316  1  0.70870000  0.84510000  0.28420000  1.0
  H  H321  1  0.76820000  0.34880000  0.97680000  1.0
  H  H322  1  0.90510000  0.45090000  0.11260000  1.0
  H  H323  1  0.72850000  0.34030000  0.02560000  1.0
  H  H324  1  0.86360000  0.43910000  0.15490000  1.0
  H  H329  1  0.12800000  0.15120000  0.41940000  1.0
  H  H330  1  0.16170000  0.04910000  0.45420000  1.0
  H  H331  1  0.18530000  0.15970000  0.38820000  1.0
  H  H332  1  0.21580000  0.06090000  0.42450000  1.0
  H  H337  1  0.73180000  0.20860000  0.08060000  1.0
  H  H338  1  0.59490000  0.20750000  0.04580000  1.0
  H  H339  1  0.77150000  0.29710000  0.11180000  1.0
  H  H340  1  0.63640000  0.29130000  0.07550000  1.0
  H  H345  1  0.37200000  0.29140000  0.52320000  1.0
  H  H346  1  0.33830000  0.29250000  0.38740000  1.0
  H  H347  1  0.31470000  0.20290000  0.47440000  1.0
  H  H348  1  0.28420000  0.20870000  0.34510000  1.0
  H  H353  1  0.97680000  0.26820000  0.84880000  1.0
  H  H354  1  0.11260000  0.40510000  0.95090000  1.0
  H  H355  1  0.02560000  0.22850000  0.84030000  1.0
  H  H356  1  0.15490000  0.36360000  0.93910000  1.0
  H  H361  1  0.41940000  0.62800000  0.65120000  1.0
  H  H362  1  0.45420000  0.66170000  0.54910000  1.0
  H  H363  1  0.38820000  0.68530000  0.65970000  1.0
  H  H364  1  0.42450000  0.71580000  0.56090000  1.0
  H  H369  1  0.08060000  0.23180000  0.70860000  1.0
  H  H370  1  0.04580000  0.09490000  0.70750000  1.0
  H  H371  1  0.11180000  0.27150000  0.79710000  1.0
  H  H372  1  0.07550000  0.13640000  0.79130000  1.0
  H  H377  1  0.52320000  0.87200000  0.79140000  1.0
  H  H378  1  0.38740000  0.83830000  0.79250000  1.0
  H  H379  1  0.47440000  0.81470000  0.70290000  1.0
  H  H380  1  0.34510000  0.78420000  0.70870000  1.0
  Mn  Mn1  1  0.00000000  0.00000000  0.00000000  1.0
  Mn  Mn3  1  0.50000000  0.00000000  0.50000000  1.0
  Mn  Mn5  1  0.50000000  0.50000000  0.00000000  1.0
  Mn  Mn7  1  0.00000000  0.50000000  0.50000000  1.0
  Mn  Mn9  1  0.00000000  0.50000000  1.00000000  1.0
  Mn  Mn10  1  0.50000000  0.00000000  0.00000000  1.0
  Mn  Mn12  1  0.50000000  0.50000000  0.50000000  1.0
  Mn  Mn13  1  0.00000000  1.00000000  0.50000000  1.0
  Mn  Mn17  1  0.12756000  0.00000000  0.00000000  1.0
  Mn  Mn19  1  0.37244000  0.87244000  0.37244000  1.0
  Mn  Mn21  1  0.50000000  0.50000000  0.12756000  1.0
  Mn  Mn23  1  0.00000000  0.62756000  0.50000000  1.0
  Mn  Mn25  1  0.12756000  0.62756000  0.12756000  1.0
  Mn  Mn27  1  0.37244000  0.00000000  0.00000000  1.0
  Mn  Mn29  1  0.50000000  0.50000000  0.37244000  1.0
  Mn  Mn31  1  0.00000000  0.87244000  0.50000000  1.0
  Mn  Mn33  1  0.87244000  1.00000000  1.00000000  1.0
  Mn  Mn35  1  0.62756000  0.12756000  0.62756000  1.0
  Mn  Mn37  1  0.50000000  0.50000000  0.87244000  1.0
  Mn  Mn39  1  0.00000000  0.37244000  0.50000000  1.0
  Mn  Mn41  1  0.87244000  0.37244000  0.87244000  1.0
  Mn  Mn43  1  0.62756000  0.00000000  0.00000000  1.0
  Mn  Mn45  1  0.50000000  0.50000000  0.62756000  1.0
  Mn  Mn47  1  0.00000000  0.12756000  0.50000000  1.0
  N  N1  1  0.04850000  0.04610000  0.97900000  1.0
  N  N2  1  0.09190000  0.04590000  0.97900000  1.0
  N  N3  1  0.04180000  0.07850000  0.96390000  1.0
  N  N4  1  0.11380000  0.07750000  0.96370000  1.0
  N  N9  1  0.45150000  0.93050000  0.49760000  1.0
  N  N10  1  0.40810000  0.88710000  0.45400000  1.0
  N  N11  1  0.45820000  0.92210000  0.53670000  1.0
  N  N12  1  0.38620000  0.84990000  0.46370000  1.0
  N  N17  1  0.43290000  0.45390000  0.00240000  1.0
  N  N18  1  0.43310000  0.45410000  0.04600000  1.0
  N  N19  1  0.38540000  0.42150000  0.96330000  1.0
  N  N20  1  0.38620000  0.42250000  0.03630000  1.0
  N  N25  1  0.06710000  0.56950000  0.52100000  1.0
  N  N26  1  0.06690000  0.61290000  0.52100000  1.0
  N  N27  1  0.11460000  0.57790000  0.53610000  1.0
  N  N28  1  0.11380000  0.65010000  0.53630000  1.0
  N  N33  1  0.06950000  0.02100000  0.06710000  1.0
  N  N34  1  0.11290000  0.02100000  0.06690000  1.0
  N  N35  1  0.07790000  0.03610000  0.11460000  1.0
  N  N36  1  0.15010000  0.03630000  0.11380000  1.0
  N  N41  1  0.95390000  0.50240000  0.43290000  1.0
  N  N42  1  0.95410000  0.54600000  0.43310000  1.0
  N  N43  1  0.92150000  0.46330000  0.38540000  1.0
  N  N44  1  0.92250000  0.53630000  0.38620000  1.0
  N  N49  1  0.43050000  0.99760000  0.45150000  1.0
  N  N50  1  0.38710000  0.95400000  0.40810000  1.0
  N  N51  1  0.42210000  0.03670000  0.45820000  1.0
  N  N52  1  0.34990000  0.96370000  0.38620000  1.0
  N  N57  1  0.54610000  0.47900000  0.04850000  1.0
  N  N58  1  0.54590000  0.47900000  0.09190000  1.0
  N  N59  1  0.57850000  0.46390000  0.04180000  1.0
  N  N60  1  0.57750000  0.46370000  0.11380000  1.0
  N  N65  1  0.00240000  0.93290000  0.95390000  1.0
  N  N66  1  0.04600000  0.93310000  0.95410000  1.0
  N  N67  1  0.96330000  0.88540000  0.92150000  1.0
  N  N68  1  0.03630000  0.88620000  0.92250000  1.0
  N  N73  1  0.52100000  0.56710000  0.06950000  1.0
  N  N74  1  0.52100000  0.56690000  0.11290000  1.0
  N  N75  1  0.53610000  0.61460000  0.07790000  1.0
  N  N76  1  0.53630000  0.61380000  0.15010000  1.0
  N  N81  1  0.97900000  0.54850000  0.54610000  1.0
  N  N82  1  0.97900000  0.59190000  0.54590000  1.0
  N  N83  1  0.96390000  0.54180000  0.57850000  1.0
  N  N84  1  0.96370000  0.61380000  0.57750000  1.0
  N  N89  1  0.49760000  0.95150000  0.43050000  1.0
  N  N90  1  0.45400000  0.90810000  0.38710000  1.0
  N  N91  1  0.53670000  0.95820000  0.42210000  1.0
  N  N92  1  0.46370000  0.88620000  0.34990000  1.0
  N  N97  1  0.04850000  0.50240000  0.06950000  1.0
  N  N98  1  0.09190000  0.54600000  0.11290000  1.0
  N  N99  1  0.04180000  0.46330000  0.07790000  1.0
  N  N100  1  0.11380000  0.53630000  0.15010000  1.0
  N  N105  1  0.45150000  0.02100000  0.95390000  1.0
  N  N106  1  0.40810000  0.02100000  0.95410000  1.0
  N  N107  1  0.45820000  0.03610000  0.92150000  1.0
  N  N108  1  0.38620000  0.03630000  0.92250000  1.0
  N  N113  1  0.43290000  0.47900000  0.43050000  1.0
  N  N114  1  0.43310000  0.47900000  0.38710000  1.0
  N  N115  1  0.38540000  0.46390000  0.42210000  1.0
  N  N116  1  0.38620000  0.46370000  0.34990000  1.0
  N  N121  1  0.06710000  0.99760000  0.54610000  1.0
  N  N122  1  0.06690000  0.95400000  0.54590000  1.0
  N  N123  1  0.11460000  0.03670000  0.57850000  1.0
  N  N124  1  0.11380000  0.96370000  0.57750000  1.0
  N  N129  1  0.06950000  0.54850000  0.00240000  1.0
  N  N130  1  0.11290000  0.59190000  0.04600000  1.0
  N  N131  1  0.07790000  0.54180000  0.96330000  1.0
  N  N132  1  0.15010000  0.61380000  0.03630000  1.0
  N  N137  1  0.95390000  0.95150000  0.52100000  1.0
  N  N138  1  0.95410000  0.90810000  0.52100000  1.0
  N  N139  1  0.92150000  0.95820000  0.53610000  1.0
  N  N140  1  0.92250000  0.88620000  0.53630000  1.0
  N  N145  1  0.43050000  0.93290000  0.97900000  1.0
  N  N146  1  0.38710000  0.93310000  0.97900000  1.0
  N  N147  1  0.42210000  0.88540000  0.96390000  1.0
  N  N148  1  0.34990000  0.88620000  0.96370000  1.0
  N  N153  1  0.54610000  0.56710000  0.49760000  1.0
  N  N154  1  0.54590000  0.56690000  0.45400000  1.0
  N  N155  1  0.57850000  0.61460000  0.53670000  1.0
  N  N156  1  0.57750000  0.61380000  0.46370000  1.0
  N  N161  1  0.00240000  0.56950000  0.04850000  1.0
  N  N162  1  0.04600000  0.61290000  0.09190000  1.0
  N  N163  1  0.96330000  0.57790000  0.04180000  1.0
  N  N164  1  0.03630000  0.65010000  0.11380000  1.0
  N  N169  1  0.52100000  0.45390000  0.45150000  1.0
  N  N170  1  0.52100000  0.45410000  0.40810000  1.0
  N  N171  1  0.53610000  0.42150000  0.45820000  1.0
  N  N172  1  0.53630000  0.42250000  0.38620000  1.0
  N  N177  1  0.97900000  0.93050000  0.43290000  1.0
  N  N178  1  0.97900000  0.88710000  0.43310000  1.0
  N  N179  1  0.96390000  0.92210000  0.38540000  1.0
  N  N180  1  0.96370000  0.84990000  0.38620000  1.0
  N  N185  1  0.49760000  0.04610000  0.06710000  1.0
  N  N186  1  0.45400000  0.04590000  0.06690000  1.0
  N  N187  1  0.53670000  0.07850000  0.11460000  1.0
  N  N188  1  0.46370000  0.07750000  0.11380000  1.0
  N  N193  1  0.95150000  0.95390000  0.02100000  1.0
  N  N194  1  0.90810000  0.95410000  0.02100000  1.0
  N  N195  1  0.95820000  0.92150000  0.03610000  1.0
  N  N196  1  0.88620000  0.92250000  0.03630000  1.0
  N  N201  1  0.54850000  0.06950000  0.50240000  1.0
  N  N202  1  0.59190000  0.11290000  0.54600000  1.0
  N  N203  1  0.54180000  0.07790000  0.46330000  1.0
  N  N204  1  0.61380000  0.15010000  0.53630000  1.0
  N  N209  1  0.56710000  0.54610000  0.99760000  1.0
  N  N210  1  0.56690000  0.54590000  0.95400000  1.0
  N  N211  1  0.61460000  0.57850000  0.03670000  1.0
  N  N212  1  0.61380000  0.57750000  0.96370000  1.0
  N  N217  1  0.93290000  0.43050000  0.47900000  1.0
  N  N218  1  0.93310000  0.38710000  0.47900000  1.0
  N  N219  1  0.88540000  0.42210000  0.46390000  1.0
  N  N220  1  0.88620000  0.34990000  0.46370000  1.0
  N  N225  1  0.93050000  0.97900000  0.93290000  1.0
  N  N226  1  0.88710000  0.97900000  0.93310000  1.0
  N  N227  1  0.92210000  0.96390000  0.88540000  1.0
  N  N228  1  0.84990000  0.96370000  0.88620000  1.0
  N  N233  1  0.04610000  0.49760000  0.56710000  1.0
  N  N234  1  0.04590000  0.45400000  0.56690000  1.0
  N  N235  1  0.07850000  0.53670000  0.61460000  1.0
  N  N236  1  0.07750000  0.46370000  0.61380000  1.0
  N  N241  1  0.56950000  0.00240000  0.54850000  1.0
  N  N242  1  0.61290000  0.04600000  0.59190000  1.0
  N  N243  1  0.57790000  0.96330000  0.54180000  1.0
  N  N244  1  0.65010000  0.03630000  0.61380000  1.0
  N  N249  1  0.45390000  0.52100000  0.95150000  1.0
  N  N250  1  0.45410000  0.52100000  0.90810000  1.0
  N  N251  1  0.42150000  0.53610000  0.95820000  1.0
  N  N252  1  0.42250000  0.53630000  0.88620000  1.0
  N  N257  1  0.99760000  0.06710000  0.04610000  1.0
  N  N258  1  0.95400000  0.06690000  0.04590000  1.0
  N  N259  1  0.03670000  0.11460000  0.07850000  1.0
  N  N260  1  0.96370000  0.11380000  0.07750000  1.0
  N  N265  1  0.47900000  0.43290000  0.93050000  1.0
  N  N266  1  0.47900000  0.43310000  0.88710000  1.0
  N  N267  1  0.46390000  0.38540000  0.92210000  1.0
  N  N268  1  0.46370000  0.38620000  0.84990000  1.0
  N  N273  1  0.02100000  0.45150000  0.45390000  1.0
  N  N274  1  0.02100000  0.40810000  0.45410000  1.0
  N  N275  1  0.03610000  0.45820000  0.42150000  1.0
  N  N276  1  0.03630000  0.38620000  0.42250000  1.0
  N  N281  1  0.50240000  0.04850000  0.56950000  1.0
  N  N282  1  0.54600000  0.09190000  0.61290000  1.0
  N  N283  1  0.46330000  0.04180000  0.57790000  1.0
  N  N284  1  0.53630000  0.11380000  0.65010000  1.0
  N  N289  1  0.95150000  0.49760000  0.93050000  1.0
  N  N290  1  0.90810000  0.45400000  0.88710000  1.0
  N  N291  1  0.95820000  0.53670000  0.92210000  1.0
  N  N292  1  0.88620000  0.46370000  0.84990000  1.0
  N  N297  1  0.54850000  0.97900000  0.04610000  1.0
  N  N298  1  0.59190000  0.97900000  0.04590000  1.0
  N  N299  1  0.54180000  0.96390000  0.07850000  1.0
  N  N300  1  0.61380000  0.96370000  0.07750000  1.0
  N  N305  1  0.56710000  0.52100000  0.56950000  1.0
  N  N306  1  0.56690000  0.52100000  0.61290000  1.0
  N  N307  1  0.61460000  0.53610000  0.57790000  1.0
  N  N308  1  0.61380000  0.53630000  0.65010000  1.0
  N  N313  1  0.93290000  0.00240000  0.45390000  1.0
  N  N314  1  0.93310000  0.04600000  0.45410000  1.0
  N  N315  1  0.88540000  0.96330000  0.42150000  1.0
  N  N316  1  0.88620000  0.03630000  0.42250000  1.0
  N  N321  1  0.93050000  0.45150000  0.99760000  1.0
  N  N322  1  0.88710000  0.40810000  0.95400000  1.0
  N  N323  1  0.92210000  0.45820000  0.03670000  1.0
  N  N324  1  0.84990000  0.38620000  0.96370000  1.0
  N  N329  1  0.04610000  0.04850000  0.47900000  1.0
  N  N330  1  0.04590000  0.09190000  0.47900000  1.0
  N  N331  1  0.07850000  0.04180000  0.46390000  1.0
  N  N332  1  0.07750000  0.11380000  0.46370000  1.0
  N  N337  1  0.56950000  0.06710000  0.02100000  1.0
  N  N338  1  0.61290000  0.06690000  0.02100000  1.0
  N  N339  1  0.57790000  0.11460000  0.03610000  1.0
  N  N340  1  0.65010000  0.11380000  0.03630000  1.0
  N  N345  1  0.45390000  0.43290000  0.50240000  1.0
  N  N346  1  0.45410000  0.43310000  0.54600000  1.0
  N  N347  1  0.42150000  0.38540000  0.46330000  1.0
  N  N348  1  0.42250000  0.38620000  0.53630000  1.0
  N  N353  1  0.99760000  0.43050000  0.95150000  1.0
  N  N354  1  0.95400000  0.38710000  0.90810000  1.0
  N  N355  1  0.03670000  0.42210000  0.95820000  1.0
  N  N356  1  0.96370000  0.34990000  0.88620000  1.0
  N  N361  1  0.47900000  0.54610000  0.54850000  1.0
  N  N362  1  0.47900000  0.54590000  0.59190000  1.0
  N  N363  1  0.46390000  0.57850000  0.54180000  1.0
  N  N364  1  0.46370000  0.57750000  0.61380000  1.0
  N  N369  1  0.02100000  0.06950000  0.56710000  1.0
  N  N370  1  0.02100000  0.11290000  0.56690000  1.0
  N  N371  1  0.03610000  0.07790000  0.61460000  1.0
  N  N372  1  0.03630000  0.15010000  0.61380000  1.0
  N  N377  1  0.50240000  0.95390000  0.93290000  1.0
  N  N378  1  0.54600000  0.95410000  0.93310000  1.0
  N  N379  1  0.46330000  0.92150000  0.88540000  1.0
  N  N380  1  0.53630000  0.92250000  0.88620000  1.0
  Si  Si1  1  0.12500000  0.25000000  0.87500000  1.0
  Si  Si2  1  0.37500000  0.75000000  0.62500000  1.0
  Si  Si5  1  0.25000000  0.12500000  0.37500000  1.0
  Si  Si6  1  0.75000000  0.37500000  0.12500000  1.0
  Si  Si9  1  0.87500000  0.62500000  0.75000000  1.0
  Si  Si10  1  0.62500000  0.87500000  0.25000000  1.0
  Si  Si13  1  0.12500000  0.37500000  0.25000000  1.0
  Si  Si14  1  0.37500000  0.12500000  0.75000000  1.0
  Si  Si17  1  0.25000000  0.62500000  0.87500000  1.0
  Si  Si18  1  0.75000000  0.87500000  0.62500000  1.0
  Si  Si21  1  0.87500000  0.75000000  0.12500000  1.0
  Si  Si22  1  0.62500000  0.25000000  0.37500000  1.0
