# generated using pymatgen
data_H7C13N
_symmetry_space_group_name_H-M   'P 1'
_cell_length_a   39.48300000
_cell_length_b   74.54000000
_cell_length_c   74.54000000
_cell_angle_alpha   90.00000000
_cell_angle_beta   90.00000000
_cell_angle_gamma   90.00000000
_symmetry_Int_Tables_number   1
_chemical_formula_structural   H7C13N
_chemical_formula_sum   'H336 C624 N48'
_cell_volume   219375.90260280
_cell_formula_units_Z   48
loop_
 _symmetry_equiv_pos_site_id
 _symmetry_equiv_pos_as_xyz
  1  'x, y, z'
loop_
 _atom_site_type_symbol
 _atom_site_label
 _atom_site_symmetry_multiplicity
 _atom_site_fract_x
 _atom_site_fract_y
 _atom_site_fract_z
 _atom_site_occupancy
  H  7  1  0.99827200  0.11476100  0.31361500  1
  H  8  1  0.95161900  0.06520300  0.30203800  1
  H  9  1  0.05750100  0.06815600  0.30800200  1
  H  13  1  0.02259100  0.04157400  0.29164200  1
  H  14  1  0.91901500  0.09193400  0.31316300  1
  H  15  1  0.07255300  0.09941400  0.32667100  1
  H  22  1  0.99849900  0.96445100  0.61494500  1
  H  23  1  0.95150200  0.01395800  0.62635500  1
  H  24  1  0.05741700  0.01116900  0.62053600  1
  H  28  1  0.02235000  0.03768900  0.63682700  1
  H  29  1  0.91908800  0.98716500  0.61526900  1
  H  30  1  0.07349500  0.98028800  0.60229500  1
  H  37  1  0.99597200  0.69149000  0.04015900  1
  H  38  1  0.95237300  0.69489500  0.98869400  1
  H  39  1  0.05785000  0.68892200  0.99437700  1
  H  43  1  0.02420000  0.68104100  0.96594500  1
  H  44  1  0.91773600  0.68944300  0.01574900  1
  H  45  1  0.06365400  0.67377000  0.03135200  1
  H  52  1  0.99840100  0.38893900  0.88928500  1
  H  53  1  0.95151200  0.37756600  0.93882700  1
  H  54  1  0.05744500  0.38324000  0.93594100  1
  H  58  1  0.02272200  0.36712400  0.96249800  1
  H  59  1  0.91907500  0.38873100  0.91209900  1
  H  60  1  0.07340700  0.40152800  0.90501800  1
  H  67  1  0.00769600  0.96368600  0.31238700  1
  H  68  1  0.05111400  0.01519000  0.30891200  1
  H  69  1  0.94566200  0.00941300  0.31493300  1
  H  73  1  0.97955500  0.03790900  0.32287400  1
  H  74  1  0.08586800  0.98815500  0.31437500  1
  H  75  1  0.94032500  0.97217700  0.33008800  1
  H  82  1  0.00784400  0.11553700  0.61598300  1
  H  83  1  0.05103700  0.06398500  0.61948300  1
  H  84  1  0.94558800  0.06988800  0.61350400  1
  H  88  1  0.97946300  0.04132900  0.60553600  1
  H  89  1  0.08590100  0.09101500  0.61398600  1
  H  90  1  0.94096100  0.10757300  0.59836300  1
  H  97  1  0.00839000  0.38802200  0.04036700  1
  H  98  1  0.05106200  0.38434000  0.98872500  1
  H  99  1  0.94562900  0.39022300  0.99490400  1
  H  103  1  0.97905800  0.39809200  0.96621800  1
  H  104  1  0.08616700  0.38996400  0.01569800  1
  H  105  1  0.94303000  0.40534500  0.03384500  1
  H  112  1  0.00669800  0.68966000  0.88918100  1
  H  113  1  0.05198000  0.70182700  0.93893700  1
  H  114  1  0.94619900  0.69549600  0.93528800  1
  H  118  1  0.98036500  0.71194500  0.96216600  1
  H  119  1  0.08534700  0.69058500  0.91239300  1
  H  120  1  0.93600400  0.67524800  0.90190600  1
  H  127  1  0.49021500  0.61557900  0.80430500  1
  H  128  1  0.45139900  0.56313200  0.80688200  1
  H  129  1  0.55677600  0.57162600  0.80387800  1
  H  133  1  0.52704900  0.54227600  0.79534600  1
  H  134  1  0.41557800  0.59030400  0.79888100  1
  H  135  1  0.55016300  0.61629700  0.79163200  1
  H  142  1  0.49219100  0.46479500  0.12703000  1
  H  143  1  0.45030700  0.51520400  0.11451100  1
  H  144  1  0.55602900  0.50942200  0.12013800  1
  H  148  1  0.52538200  0.53699600  0.10465300  1
  H  149  1  0.41596800  0.48861500  0.12754200  1
  H  150  1  0.55509900  0.46981600  0.14086300  1
  H  157  1  0.49029100  0.19934700  0.54031200  1
  H  158  1  0.45137300  0.19704200  0.48787300  1
  H  159  1  0.55678800  0.19971000  0.49633100  1
  H  163  1  0.52711200  0.20840100  0.46701500  1
  H  164  1  0.41565400  0.20503700  0.51508700  1
  H  165  1  0.55028700  0.21166200  0.54120100  1
  H  172  1  0.49029900  0.87977200  0.38818200  1
  H  173  1  0.45142700  0.88213000  0.44062800  1
  H  174  1  0.55682900  0.87942300  0.43215200  1
  H  178  1  0.52718800  0.87076000  0.46147300  1
  H  179  1  0.41567500  0.87412800  0.41342200  1
  H  180  1  0.55031700  0.86745700  0.38728200  1
  H  187  1  0.51146300  0.46479900  0.80149200  1
  H  188  1  0.55342500  0.51521700  0.81389400  1
  H  189  1  0.44768100  0.50944000  0.80841900  1
  H  193  1  0.47836200  0.53702300  0.82381900  1
  H  194  1  0.58773300  0.48860300  0.80090900  1
  H  195  1  0.44885300  0.46941000  0.78792700  1
  H  202  1  0.51331100  0.61556900  0.12402300  1
  H  203  1  0.55226700  0.56313900  0.12163500  1
  H  204  1  0.44685500  0.57157300  0.12441600  1
  H  208  1  0.47659900  0.54227100  0.13307800  1
  H  209  1  0.58797400  0.59036100  0.12963400  1
  H  210  1  0.45331100  0.61635700  0.13647400  1
  H  217  1  0.51190300  0.87702000  0.53898300  1
  H  218  1  0.55350600  0.88932200  0.48846100  1
  H  219  1  0.44781000  0.88377200  0.49443600  1
  H  223  1  0.47828900  0.89912600  0.46676300  1
  H  224  1  0.58797900  0.87637900  0.51507200  1
  H  225  1  0.44942300  0.86346500  0.53468100  1
  H  232  1  0.51178200  0.20216900  0.38951300  1
  H  233  1  0.55339700  0.18983500  0.44002500  1
  H  234  1  0.44770400  0.19541300  0.43406700  1
  H  238  1  0.47819500  0.18004200  0.46173400  1
  H  239  1  0.58788300  0.20275300  0.41343600  1
  H  240  1  0.44927100  0.21575700  0.39387400  1
  H  259  1  0.09870800  0.13046800  0.27748300  1
  H  260  1  0.14624700  0.15047200  0.27725600  1
  H  261  1  0.11105500  0.12281800  0.33323200  1
  H  262  1  0.30879100  0.25628900  0.26727900  1
  H  263  1  0.21173200  0.24152900  0.24816700  1
  H  264  1  0.21467100  0.26492500  0.22617800  1
  H  265  1  0.31144300  0.27965400  0.24521900  1
  H  266  1  0.35247300  0.22184200  0.35880700  1
  H  267  1  0.39296900  0.16519300  0.38287800  1
  H  268  1  0.34766800  0.16518100  0.36146400  1
  H  269  1  0.39731000  0.22173900  0.38024400  1
  H  276  1  0.21251700  0.19686300  0.28355600  1
  H  277  1  0.29896600  0.21812300  0.30924900  1
  H  278  1  0.25181700  0.17161700  0.32980700  1
  H  279  1  0.15857800  0.14263500  0.33312400  1
  H  307  1  0.09822600  0.94837200  0.65091700  1
  H  308  1  0.14588400  0.92844300  0.65111300  1
  H  309  1  0.11067800  0.95624300  0.59521000  1
  H  310  1  0.30883100  0.82290600  0.66112000  1
  H  311  1  0.21178200  0.83765500  0.68025600  1
  H  312  1  0.21474600  0.81425600  0.70224200  1
  H  313  1  0.31150600  0.79953700  0.68317800  1
  H  314  1  0.35251600  0.85736400  0.56965500  1
  H  315  1  0.39299100  0.91400000  0.54554700  1
  H  316  1  0.34766600  0.91402000  0.56694800  1
  H  317  1  0.39737800  0.85745900  0.54823000  1
  H  324  1  0.21245800  0.88228800  0.64483700  1
  H  325  1  0.29900400  0.86109700  0.61918300  1
  H  326  1  0.25173600  0.90755700  0.59859200  1
  H  327  1  0.15833900  0.93650200  0.59528300  1
  H  355  1  0.09901800  0.72618600  0.05400900  1
  H  356  1  0.14552000  0.72693800  0.07468900  1
  H  357  1  0.11560100  0.67083300  0.04562300  1
  H  358  1  0.30905900  0.73652900  0.18112400  1
  H  359  1  0.21210700  0.75569900  0.16623400  1
  H  360  1  0.21497600  0.77768300  0.18963400  1
  H  361  1  0.31164000  0.75858700  0.20449700  1
  H  362  1  0.35161200  0.64494100  0.14641800  1
  H  363  1  0.38925800  0.61923500  0.08990700  1
  H  364  1  0.34453800  0.64103700  0.08988200  1
  H  365  1  0.39588600  0.62306500  0.14629500  1
  H  372  1  0.21307000  0.72082100  0.12149300  1
  H  373  1  0.29855300  0.69431200  0.14285700  1
  H  374  1  0.25122900  0.67436300  0.09613600  1
  H  375  1  0.16170300  0.67143400  0.06625500  1
  H  403  1  0.09816400  0.35284300  0.87316700  1
  H  404  1  0.14575200  0.35263100  0.85319300  1
  H  405  1  0.11068500  0.40854800  0.88100700  1
  H  406  1  0.30864100  0.34268200  0.74752200  1
  H  407  1  0.21169200  0.32345700  0.76233400  1
  H  408  1  0.21467100  0.30147700  0.73893200  1
  H  409  1  0.31133400  0.32062900  0.72414900  1
  H  410  1  0.35226500  0.43410200  0.78200900  1
  H  411  1  0.39296400  0.45815400  0.83862300  1
  H  412  1  0.34763000  0.43676100  0.83867300  1
  H  413  1  0.39714000  0.45551400  0.78207500  1
  H  420  1  0.21228900  0.35890400  0.80695400  1
  H  421  1  0.29882200  0.38456800  0.78576200  1
  H  422  1  0.25156600  0.40514300  0.83223100  1
  H  423  1  0.15827500  0.40845800  0.86121900  1
  H  451  1  0.90448400  0.94994100  0.27764000  1
  H  452  1  0.85808500  0.92919300  0.27688700  1
  H  453  1  0.88794300  0.95825800  0.33300600  1
  H  454  1  0.69466800  0.82268800  0.26729500  1
  H  455  1  0.79162300  0.83757400  0.24812300  1
  H  456  1  0.78874400  0.81417700  0.22613500  1
  H  457  1  0.69207700  0.79932000  0.24523300  1
  H  458  1  0.65214600  0.85735400  0.35891200  1
  H  459  1  0.61455700  0.91387100  0.38463000  1
  H  460  1  0.65929100  0.91388800  0.36283500  1
  H  461  1  0.60785300  0.85748800  0.38078100  1
  H  468  1  0.79065100  0.88231100  0.28300800  1
  H  469  1  0.70520900  0.86092000  0.30953400  1
  H  470  1  0.75252800  0.90764100  0.32948900  1
  H  471  1  0.84195100  0.93755100  0.33240900  1
  H  499  1  0.90436300  0.12914700  0.65082200  1
  H  500  1  0.85806700  0.14996000  0.65156500  1
  H  501  1  0.88771000  0.12077300  0.59547600  1
  H  502  1  0.69469600  0.25650000  0.66120200  1
  H  503  1  0.79164100  0.24161500  0.68038100  1
  H  504  1  0.78876100  0.26501600  0.70236500  1
  H  505  1  0.69210500  0.27987200  0.68325800  1
  H  506  1  0.65209500  0.22179600  0.56957600  1
  H  507  1  0.61456300  0.16526000  0.54388000  1
  H  508  1  0.65929100  0.16526400  0.56567900  1
  H  509  1  0.60780800  0.22164200  0.54770300  1
  H  516  1  0.79067900  0.19687100  0.64546900  1
  H  517  1  0.70519900  0.21825700  0.61897200  1
  H  518  1  0.75251000  0.17154300  0.59899900  1
  H  519  1  0.84182700  0.14156200  0.59605800  1
  H  547  1  0.90292700  0.35321300  0.05322300  1
  H  548  1  0.85669200  0.35275100  0.07408400  1
  H  549  1  0.88732500  0.40861900  0.04475000  1
  H  550  1  0.70197700  0.33928500  0.18218800  1
  H  551  1  0.79890700  0.32438900  0.16299200  1
  H  552  1  0.80187800  0.30130700  0.18531400  1
  H  553  1  0.70524400  0.31614000  0.20446600  1
  H  554  1  0.65084600  0.43383400  0.14685900  1
  H  555  1  0.61048500  0.45769400  0.09009600  1
  H  556  1  0.65572700  0.43625000  0.09019200  1
  H  557  1  0.60605000  0.45528600  0.14665100  1
  H  564  1  0.79165900  0.35882500  0.12102000  1
  H  565  1  0.70561400  0.38414300  0.14317800  1
  H  566  1  0.75079600  0.40490900  0.09620000  1
  H  567  1  0.84148500  0.40833400  0.06561900  1
  H  595  1  0.90377500  0.72626500  0.87459600  1
  H  596  1  0.85683100  0.72648600  0.85421100  1
  H  597  1  0.89081500  0.67055400  0.88235900  1
  H  598  1  0.70201500  0.73987000  0.74643100  1
  H  599  1  0.79913800  0.75463900  0.76544800  1
  H  600  1  0.80205800  0.77772600  0.74312800  1
  H  601  1  0.70523200  0.76302100  0.72415300  1
  H  602  1  0.65162400  0.64508400  0.78154900  1
  H  603  1  0.61427900  0.61958000  0.83820700  1
  H  604  1  0.65890600  0.64143100  0.83809300  1
  H  605  1  0.60744600  0.62315500  0.78181100  1
  H  612  1  0.79200600  0.72029100  0.80746600  1
  H  613  1  0.70620400  0.69475700  0.78528700  1
  H  614  1  0.75182100  0.67396400  0.83213500  1
  H  615  1  0.84402300  0.67065800  0.86211700  1
  H  643  1  0.92078800  0.93869700  0.64798100  1
  H  644  1  0.87349900  0.91851300  0.64816600  1
  H  645  1  0.88135800  0.96436900  0.60204800  1
  H  646  1  0.69613700  0.82190200  0.66239200  1
  H  647  1  0.79313300  0.83618300  0.68194600  1
  H  648  1  0.78951100  0.81273500  0.70385000  1
  H  649  1  0.69280100  0.79848200  0.68436900  1
  H  650  1  0.66499900  0.85975800  0.56259600  1
  H  651  1  0.59715000  0.91399400  0.55839100  1
  H  652  1  0.64363100  0.91292200  0.57908900  1
  H  653  1  0.61853900  0.86105400  0.54192200  1
  H  660  1  0.79356600  0.88093600  0.64636000  1
  H  661  1  0.70649800  0.86016600  0.62085200  1
  H  662  1  0.75415700  0.90654900  0.60034200  1
  H  663  1  0.83396300  0.94432900  0.60211500  1
  H  691  1  0.92061300  0.14042000  0.28047700  1
  H  692  1  0.87330600  0.16059400  0.28030300  1
  H  693  1  0.88119600  0.11470900  0.32639100  1
  H  694  1  0.69619800  0.25732300  0.26624400  1
  H  695  1  0.79295600  0.24284300  0.24650100  1
  H  696  1  0.78935100  0.26629600  0.22460100  1
  H  697  1  0.69288000  0.28074800  0.24427000  1
  H  698  1  0.66499700  0.21936300  0.36595500  1
  H  699  1  0.59697000  0.16518200  0.37008000  1
  H  700  1  0.64347600  0.16623600  0.34939800  1
  H  701  1  0.61851100  0.21808700  0.38661400  1
  H  708  1  0.79343900  0.19816700  0.28214100  1
  H  709  1  0.70643700  0.21897100  0.30768800  1
  H  710  1  0.75403300  0.17255400  0.32816200  1
  H  711  1  0.83378600  0.13474000  0.32633600  1
  H  739  1  0.92026300  0.35609700  0.86359500  1
  H  740  1  0.87284300  0.35603700  0.84350000  1
  H  741  1  0.88137300  0.40209800  0.88937700  1
  H  742  1  0.70313000  0.33819000  0.74545700  1
  H  743  1  0.80020200  0.32287200  0.76411300  1
  H  744  1  0.80245100  0.29984600  0.74170900  1
  H  745  1  0.70567800  0.31510100  0.72309500  1
  H  746  1  0.66450300  0.44102900  0.78403600  1
  H  747  1  0.59665100  0.44508300  0.83828300  1
  H  748  1  0.64303300  0.42432800  0.83712200  1
  H  749  1  0.61814100  0.46176300  0.78542100  1
  H  756  1  0.79433800  0.35776800  0.80609200  1
  H  757  1  0.70721700  0.38257200  0.78454600  1
  H  758  1  0.75318900  0.40362700  0.83118200  1
  H  759  1  0.83384400  0.40215700  0.86942600  1
  H  787  1  0.91917700  0.72300100  0.06365000  1
  H  788  1  0.87207100  0.72351200  0.08395300  1
  H  789  1  0.87926900  0.67681100  0.03865500  1
  H  790  1  0.70307600  0.74103400  0.18304400  1
  H  791  1  0.80015400  0.75633900  0.16437900  1
  H  792  1  0.80242500  0.77936400  0.18678600  1
  H  793  1  0.70564500  0.76412100  0.20540800  1
  H  794  1  0.66595900  0.63783900  0.14487500  1
  H  795  1  0.59874300  0.63279300  0.09049200  1
  H  796  1  0.64474000  0.65378600  0.09152700  1
  H  797  1  0.61998300  0.61688300  0.14362200  1
  H  804  1  0.79376300  0.72181600  0.12215900  1
  H  805  1  0.70773700  0.69635100  0.14418200  1
  H  806  1  0.75331800  0.67567100  0.09727300  1
  H  807  1  0.83206600  0.67718900  0.05881500  1
  H  835  1  0.08442100  0.13891700  0.64759400  1
  H  836  1  0.13146600  0.15925900  0.64813800  1
  H  837  1  0.12453400  0.11393700  0.60144900  1
  H  838  1  0.30047800  0.25841000  0.66580100  1
  H  839  1  0.20339500  0.23973800  0.68107700  1
  H  840  1  0.20109800  0.26214000  0.70410500  1
  H  841  1  0.29788500  0.28077000  0.68889300  1
  H  842  1  0.33761300  0.22026000  0.56254700  1
  H  843  1  0.40485500  0.16588500  0.55752500  1
  H  844  1  0.35886300  0.16692400  0.57852000  1
  H  845  1  0.38358700  0.21900400  0.54159200  1
  H  852  1  0.20978900  0.19751500  0.64652600  1
  H  853  1  0.29582600  0.21956000  0.62109200  1
  H  854  1  0.25026600  0.17266300  0.60037100  1
  H  855  1  0.17167600  0.13414000  0.60185500  1
  H  883  1  0.08437700  0.94021300  0.28085400  1
  H  884  1  0.13145600  0.91989200  0.28033700  1
  H  885  1  0.12442700  0.96525200  0.32698500  1
  H  886  1  0.30056200  0.82080700  0.26278200  1
  H  887  1  0.20348200  0.83944000  0.24744600  1
  H  888  1  0.20125300  0.81702400  0.22443000  1
  H  889  1  0.29803700  0.79843400  0.23970300  1
  H  890  1  0.33758800  0.85893900  0.36596700  1
  H  891  1  0.40489500  0.91328900  0.37099700  1
  H  892  1  0.35888300  0.91227500  0.35001200  1
  H  893  1  0.38358000  0.86017000  0.38691300  1
  H  900  1  0.20981400  0.88168900  0.28198400  1
  H  901  1  0.29583300  0.85965800  0.30745000  1
  H  902  1  0.25024600  0.90655900  0.32814200  1
  H  903  1  0.17160200  0.94507200  0.32660000  1
  H  931  1  0.08376900  0.72319100  0.86384700  1
  H  932  1  0.13096300  0.72333600  0.84360300  1
  H  933  1  0.12328300  0.67729100  0.88955300  1
  H  934  1  0.30065800  0.74115500  0.74531400  1
  H  935  1  0.20351300  0.75634500  0.76396500  1
  H  936  1  0.20119200  0.77939600  0.74158800  1
  H  937  1  0.29803900  0.76427000  0.72297900  1
  H  938  1  0.33758300  0.63776600  0.78353300  1
  H  939  1  0.40485200  0.63283200  0.83790700  1
  H  940  1  0.35885500  0.65382500  0.83684200  1
  H  941  1  0.38355700  0.61681200  0.78481700  1
  H  948  1  0.20963600  0.72170900  0.80601000  1
  H  949  1  0.29602100  0.69639800  0.78420700  1
  H  950  1  0.24997100  0.67554600  0.83091200  1
  H  951  1  0.17059000  0.67730900  0.86944200  1
  H  979  1  0.08486100  0.35633300  0.06362800  1
  H  980  1  0.13189400  0.35583700  0.08397900  1
  H  981  1  0.12490000  0.40247500  0.03860600  1
  H  982  1  0.30059500  0.33800200  0.18306800  1
  H  983  1  0.20343500  0.32282500  0.16442700  1
  H  984  1  0.20109100  0.29979200  0.18682200  1
  H  985  1  0.29795600  0.31490600  0.20542000  1
  H  986  1  0.33929200  0.44103600  0.14450600  1
  H  987  1  0.40699000  0.44506700  0.09020100  1
  H  988  1  0.36066400  0.42428100  0.09142400  1
  H  989  1  0.38560100  0.46179800  0.14306000  1
  H  996  1  0.20989300  0.35750900  0.12225300  1
  H  997  1  0.29649200  0.38253800  0.14413700  1
  H  998  1  0.25113100  0.40339300  0.09724700  1
  H  999  1  0.17202800  0.40211600  0.05882000  1
  C  1  1  0.00492000  0.06405900  0.30433600  1
  C  2  1  0.03429600  0.07435100  0.30761200  1
  C  3  1  0.03207000  0.09297800  0.31080200  1
  C  4  1  0.99995300  0.10135000  0.31070800  1
  C  5  1  0.97007000  0.09134900  0.30742000  1
  C  6  1  0.97301000  0.07268300  0.30427400  1
  C  10  1  0.06084200  0.10244200  0.31526600  1
  C  11  1  0.93819500  0.09918200  0.30841000  1
  C  12  1  0.00789700  0.04570600  0.30168000  1
  C  16  1  0.00480000  0.01518600  0.62411800  1
  C  17  1  0.03424700  0.00493500  0.62089900  1
  C  18  1  0.03216300  0.98629700  0.61773800  1
  C  19  1  0.00009000  0.97787300  0.61781800  1
  C  20  1  0.97012800  0.98783000  0.62104200  1
  C  21  1  0.97294200  0.00651000  0.62414900  1
  C  25  1  0.06106500  0.97688100  0.61338100  1
  C  26  1  0.93829600  0.97994500  0.62003500  1
  C  27  1  0.00768800  0.03354200  0.62678100  1
  C  31  1  0.00577500  0.69279200  0.98874100  1
  C  32  1  0.03438200  0.69084500  0.99997700  1
  C  33  1  0.03099100  0.69080600  0.01881300  1
  C  34  1  0.99846900  0.69244400  0.02650100  1
  C  35  1  0.96923600  0.69427900  0.01563100  1
  C  36  1  0.97338500  0.69433600  0.99675700  1
  C  40  1  0.05836500  0.68665400  0.02944300  1
  C  41  1  0.93687300  0.69421200  0.02302100  1
  C  42  1  0.00965300  0.69108000  0.97027900  1
  C  46  1  0.00482400  0.37973000  0.94001600  1
  C  47  1  0.03425300  0.38290700  0.92973000  1
  C  48  1  0.03213100  0.38606800  0.91109000  1
  C  49  1  0.00002400  0.38604900  0.90270200  1
  C  50  1  0.97008000  0.38286900  0.91268800  1
  C  51  1  0.97294200  0.37974400  0.93136300  1
  C  55  1  0.06101300  0.39042100  0.90165000  1
  C  56  1  0.93822300  0.38394800  0.90484300  1
  C  57  1  0.00775600  0.37705200  0.95837500  1
  C  61  1  0.99770900  0.01509300  0.31102200  1
  C  62  1  0.96914500  0.00383400  0.31300600  1
  C  63  1  0.97261500  0.98500000  0.31306300  1
  C  64  1  0.00515500  0.97734100  0.31141000  1
  C  65  1  0.03434800  0.98823700  0.30957500  1
  C  66  1  0.03013200  0.00710600  0.30949100  1
  C  70  1  0.94527400  0.97434800  0.31720700  1
  C  71  1  0.06673500  0.98087000  0.30961900  1
  C  72  1  0.99379600  0.03355300  0.31272300  1
  C  76  1  0.99762600  0.06414800  0.61738400  1
  C  77  1  0.96909700  0.07543700  0.61542400  1
  C  78  1  0.97266100  0.09426700  0.61533700  1
  C  79  1  0.00524100  0.10188500  0.61696200  1
  C  80  1  0.03438800  0.09095700  0.61881000  1
  C  81  1  0.03008800  0.07209300  0.61890400  1
  C  85  1  0.94540600  0.10499200  0.61122200  1
  C  86  1  0.06679300  0.09829900  0.61876700  1
  C  87  1  0.99364400  0.04568800  0.61570800  1
  C  91  1  0.99763100  0.38637900  0.98901800  1
  C  92  1  0.96920100  0.38833900  0.00038700  1
  C  93  1  0.97296400  0.38853900  0.01920800  1
  C  94  1  0.00563500  0.38698100  0.02672700  1
  C  95  1  0.03466800  0.38508800  0.01572900  1
  C  96  1  0.03018000  0.38491700  0.99688100  1
  C  100  1  0.94588400  0.39265100  0.03006500  1
  C  101  1  0.06712300  0.38514300  0.02300300  1
  C  102  1  0.99349000  0.38801200  0.97055500  1
  C  106  1  0.99865600  0.69937500  0.93973900  1
  C  107  1  0.96955000  0.69598000  0.92926000  1
  C  108  1  0.97233600  0.69264700  0.91068400  1
  C  109  1  0.00464000  0.69271600  0.90254900  1
  C  110  1  0.03421600  0.69621100  0.91271900  1
  C  111  1  0.03078400  0.69949100  0.93133300  1
  C  115  1  0.94414200  0.68781700  0.90097400  1
  C  116  1  0.06622900  0.69528800  0.90506500  1
  C  117  1  0.99531300  0.70199500  0.95808400  1
  C  121  1  0.50498100  0.56453200  0.80638200  1
  C  122  1  0.53266200  0.57657500  0.80515700  1
  C  123  1  0.52752000  0.59533100  0.80463500  1
  C  124  1  0.49408800  0.60201100  0.80539100  1
  C  125  1  0.46583000  0.59041300  0.80665300  1
  C  126  1  0.47172100  0.57168900  0.80691700  1
  C  130  1  0.55367600  0.60721300  0.80125700  1
  C  131  1  0.43308500  0.59718400  0.80559300  1
  C  132  1  0.51063700  0.54613300  0.80474300  1
  C  136  1  0.50379300  0.51504000  0.11663300  1
  C  137  1  0.53223600  0.50391000  0.11980000  1
  C  138  1  0.52817400  0.48544700  0.12349200  1
  C  139  1  0.49524300  0.47807600  0.12379600  1
  C  140  1  0.46639300  0.48875400  0.12024000  1
  C  141  1  0.47105500  0.50725400  0.11679400  1
  C  145  1  0.55518000  0.47483600  0.12851500  1
  C  146  1  0.43409500  0.48153500  0.12153700  1
  C  147  1  0.50846100  0.53334800  0.11385700  1
  C  151  1  0.50496100  0.19739100  0.48925700  1
  C  152  1  0.53267400  0.19848700  0.50129000  1
  C  153  1  0.52757600  0.19896800  0.52005200  1
  C  154  1  0.49413900  0.19830000  0.52673800  1
  C  155  1  0.46584800  0.19715900  0.51514900  1
  C  156  1  0.47170600  0.19694000  0.49642300  1
  C  160  1  0.55378700  0.20220300  0.53194100  1
  C  161  1  0.43312300  0.19826800  0.52193800  1
  C  162  1  0.51061400  0.19904200  0.47086100  1
  C  166  1  0.50500900  0.88177300  0.43923600  1
  C  167  1  0.53271000  0.88064600  0.42719600  1
  C  168  1  0.52759400  0.88013400  0.40843600  1
  C  169  1  0.49415600  0.88082300  0.40175500  1
  C  170  1  0.46587600  0.88198700  0.41335000  1
  C  171  1  0.47175200  0.88221700  0.43207400  1
  C  175  1  0.55381200  0.87691000  0.39654800  1
  C  176  1  0.43314500  0.88088900  0.40656700  1
  C  177  1  0.51069000  0.88012200  0.45763100  1
  C  181  1  0.49993100  0.51505800  0.81184600  1
  C  182  1  0.47146800  0.50392500  0.80873900  1
  C  183  1  0.47550000  0.48545700  0.80504100  1
  C  184  1  0.50843100  0.47808500  0.80471000  1
  C  185  1  0.53730400  0.48876400  0.80820900  1
  C  186  1  0.53266400  0.50726700  0.81164700  1
  C  190  1  0.44843800  0.47483300  0.80010300  1
  C  191  1  0.56959400  0.48152700  0.80691000  1
  C  192  1  0.49528300  0.53337200  0.81461700  1
  C  196  1  0.49868200  0.56451300  0.12202400  1
  C  197  1  0.47095900  0.57653700  0.12314800  1
  C  198  1  0.47604700  0.59530000  0.12364700  1
  C  199  1  0.50947700  0.60199600  0.12294700  1
  C  200  1  0.53777000  0.59041000  0.12178100  1
  C  201  1  0.53192700  0.57168500  0.12155000  1
  C  205  1  0.44983600  0.60716800  0.12694800  1
  C  206  1  0.57049000  0.59721100  0.12287700  1
  C  207  1  0.49303700  0.54611700  0.12369000  1
  C  211  1  0.50001700  0.88721200  0.48871500  1
  C  212  1  0.47163800  0.88409700  0.49990500  1
  C  213  1  0.47578600  0.88048100  0.51838100  1
  C  214  1  0.50877000  0.88019600  0.52569300  1
  C  215  1  0.53756200  0.88368900  0.51495300  1
  C  216  1  0.53279800  0.88707200  0.49645000  1
  C  220  1  0.44882600  0.87556300  0.52908600  1
  C  221  1  0.56989800  0.88244000  0.52213700  1
  C  222  1  0.49525600  0.88994300  0.47040400  1
  C  226  1  0.49991100  0.19195600  0.43978000  1
  C  227  1  0.47152600  0.19508300  0.42859700  1
  C  228  1  0.47567500  0.19871200  0.41012300  1
  C  229  1  0.50865100  0.19898700  0.40280200  1
  C  230  1  0.53744600  0.19547900  0.41353600  1
  C  231  1  0.53268700  0.19209100  0.43203900  1
  C  235  1  0.44871200  0.20363800  0.39942400  1
  C  236  1  0.56977900  0.19672900  0.40635500  1
  C  237  1  0.49516200  0.18922300  0.45809100  1
  C  241  1  0.25999500  0.24675200  0.25976900  1
  C  242  1  0.15699500  0.14827200  0.30514700  1
  C  243  1  0.34583500  0.19351800  0.35816500  1
  C  244  1  0.14644700  0.14002100  0.32125000  1
  C  245  1  0.11851800  0.12828400  0.32130100  1
  C  246  1  0.10057600  0.12452300  0.30528400  1
  C  247  1  0.11135500  0.13281900  0.28924300  1
  C  248  1  0.13931900  0.14454900  0.28910900  1
  C  249  1  0.23289200  0.24947900  0.24771000  1
  C  250  1  0.23459100  0.26322900  0.23478100  1
  C  251  1  0.26336400  0.27450600  0.23364500  1
  C  252  1  0.29032500  0.27170100  0.24575700  1
  C  253  1  0.28874400  0.25797100  0.25870800  1
  C  254  1  0.36052400  0.20979900  0.36389800  1
  C  255  1  0.38707500  0.20972400  0.37650000  1
  C  256  1  0.39969300  0.19340300  0.38360100  1
  C  257  1  0.38433200  0.17721500  0.37806000  1
  C  258  1  0.35775100  0.17720700  0.36544500  1
  C  270  1  0.27880100  0.19474900  0.32145800  1
  C  271  1  0.28021600  0.20859000  0.30851700  1
  C  272  1  0.25598600  0.20941200  0.29458700  1
  C  273  1  0.23023800  0.19628100  0.29363700  1
  C  274  1  0.22866300  0.18238300  0.30650100  1
  C  275  1  0.25296900  0.18167400  0.32039800  1
  C  280  1  0.32225000  0.19361300  0.34587700  1
  C  281  1  0.30128600  0.19404900  0.33430500  1
  C  282  1  0.18207200  0.15967900  0.30526600  1
  C  283  1  0.20454500  0.17042000  0.30572200  1
  C  284  1  0.25732800  0.22224700  0.28266400  1
  C  285  1  0.25855700  0.23397100  0.27172900  1
  C  289  1  0.26003800  0.83243700  0.66864300  1
  C  290  1  0.15671600  0.93076800  0.62324100  1
  C  291  1  0.34585500  0.88568700  0.57027200  1
  C  292  1  0.14615900  0.93905500  0.60715700  1
  C  293  1  0.11816400  0.95074800  0.60712500  1
  C  294  1  0.10017500  0.95443200  0.62314400  1
  C  295  1  0.11092000  0.94607800  0.63916100  1
  C  296  1  0.13895600  0.93439700  0.63927700  1
  C  297  1  0.23294600  0.82970600  0.68070800  1
  C  298  1  0.23465900  0.81595600  0.69363500  1
  C  299  1  0.26343700  0.80468000  0.69476200  1
  C  300  1  0.29038500  0.80748800  0.68264700  1
  C  301  1  0.28879000  0.82121900  0.66969700  1
  C  302  1  0.36056200  0.86940300  0.56455600  1
  C  303  1  0.38713100  0.86947400  0.55196400  1
  C  304  1  0.39974100  0.88579100  0.54485400  1
  C  305  1  0.38435700  0.90198100  0.55037300  1
  C  306  1  0.35776400  0.90199300  0.56298100  1
  C  318  1  0.27878500  0.88445200  0.60696000  1
  C  319  1  0.28022700  0.87061500  0.61990500  1
  C  320  1  0.25598300  0.86977700  0.63382900  1
  C  321  1  0.23019300  0.88288500  0.63476500  1
  C  322  1  0.22858800  0.89677700  0.62189400  1
  C  323  1  0.25291100  0.89750400  0.60800600  1
  C  328  1  0.32225500  0.88559500  0.58255100  1
  C  329  1  0.30127900  0.88516100  0.59411800  1
  C  330  1  0.18187400  0.91941200  0.62311100  1
  C  331  1  0.20441400  0.90871000  0.62265700  1
  C  332  1  0.25734300  0.85694400  0.64575100  1
  C  333  1  0.25858400  0.84522000  0.65668500  1
  C  337  1  0.26032200  0.74406900  0.17152500  1
  C  338  1  0.15789300  0.69925100  0.07237600  1
  C  339  1  0.34396800  0.64502300  0.11814900  1
  C  340  1  0.14882300  0.68310800  0.06373600  1
  C  341  1  0.12152400  0.68274900  0.05161200  1
  C  342  1  0.10257200  0.69846100  0.04791700  1
  C  343  1  0.11221800  0.71460800  0.05640700  1
  C  344  1  0.13952700  0.71504800  0.06856100  1
  C  345  1  0.23322800  0.75614100  0.17421500  1
  C  346  1  0.23488500  0.76906700  0.18796600  1
  C  347  1  0.26360700  0.77018500  0.19928200  1
  C  348  1  0.29055800  0.75806000  0.19651500  1
  C  349  1  0.28902000  0.74511000  0.18278400  1
  C  350  1  0.35905500  0.63952100  0.13441000  1
  C  351  1  0.38522600  0.62670400  0.13433600  1
  C  352  1  0.39709700  0.61922600  0.11803700  1
  C  353  1  0.38116400  0.62439600  0.10188900  1
  C  354  1  0.35497500  0.63724300  0.10188300  1
  C  366  1  0.27824600  0.68238000  0.11937200  1
  C  367  1  0.27992500  0.69524500  0.13327600  1
  C  368  1  0.25610000  0.70937100  0.13409900  1
  C  369  1  0.23050300  0.71059900  0.12091000  1
  C  370  1  0.22869000  0.69781700  0.10695000  1
  C  371  1  0.25257500  0.68371700  0.10623800  1
  C  376  1  0.32083100  0.65754300  0.11822500  1
  C  377  1  0.30030100  0.66933000  0.11867100  1
  C  378  1  0.18251300  0.69934800  0.08404500  1
  C  379  1  0.20473100  0.69883700  0.09492700  1
  C  380  1  0.25763200  0.72121900  0.14698800  1
  C  381  1  0.25891600  0.73212100  0.15873800  1
  C  385  1  0.25989600  0.33511500  0.75708700  1
  C  386  1  0.15661400  0.38050000  0.85549300  1
  C  387  1  0.34570300  0.43346400  0.81033800  1
  C  388  1  0.14609700  0.39658800  0.86378800  1
  C  389  1  0.11814200  0.39663000  0.87551100  1
  C  390  1  0.10014700  0.38061700  0.87921800  1
  C  391  1  0.11086000  0.36459600  0.87086000  1
  C  392  1  0.13885600  0.36447000  0.85914900  1
  C  393  1  0.23283800  0.32302500  0.75437100  1
  C  394  1  0.23456000  0.31010200  0.74061800  1
  C  395  1  0.26331300  0.30900000  0.72932200  1
  C  396  1  0.29023100  0.32114200  0.73211500  1
  C  397  1  0.28862500  0.33408900  0.74584900  1
  C  398  1  0.36035700  0.43919100  0.79404500  1
  C  399  1  0.38693100  0.45178000  0.79409800  1
  C  400  1  0.39960400  0.45887800  0.81040800  1
  C  401  1  0.38428600  0.45334000  0.82660800  1
  C  402  1  0.35768300  0.44073800  0.82663800  1
  C  414  1  0.27860800  0.39678500  0.80912100  1
  C  415  1  0.28004700  0.38384300  0.79528100  1
  C  416  1  0.25580600  0.36991800  0.79444000  1
  C  417  1  0.23001900  0.36897800  0.80755100  1
  C  418  1  0.22841200  0.38184600  0.82144700  1
  C  419  1  0.25273700  0.39573400  0.82217400  1
  C  424  1  0.32209300  0.42119000  0.81026000  1
  C  425  1  0.30110600  0.40962700  0.80983100  1
  C  426  1  0.18173600  0.38062400  0.84411000  1
  C  427  1  0.20424900  0.38107600  0.83339100  1
  C  428  1  0.25717400  0.35799800  0.78160300  1
  C  429  1  0.25843200  0.34707000  0.76987400  1
  C  433  1  0.74340800  0.83228400  0.25975300  1
  C  434  1  0.84575500  0.93145900  0.30458500  1
  C  435  1  0.65982800  0.88562100  0.35884100  1
  C  436  1  0.85480500  0.94009600  0.32073400  1
  C  437  1  0.88204200  0.95225900  0.32109200  1
  C  438  1  0.90094600  0.95599100  0.30537400  1
  C  439  1  0.89131700  0.94751000  0.28922000  1
  C  440  1  0.86407200  0.93531500  0.28878200  1
  C  441  1  0.77049800  0.82959500  0.24767900  1
  C  442  1  0.76883600  0.81584600  0.23475200  1
  C  443  1  0.74011000  0.80453300  0.23363600  1
  C  444  1  0.71315900  0.80730000  0.24576100  1
  C  445  1  0.71470400  0.82102900  0.25871200  1
  C  446  1  0.64471700  0.86936200  0.36433700  1
  C  447  1  0.61854100  0.86944200  0.37715000  1
  C  448  1  0.60668600  0.88574300  0.38462800  1
  C  449  1  0.62264700  0.90188700  0.37947000  1
  C  450  1  0.64883800  0.90188900  0.36662500  1
  C  462  1  0.72551900  0.88440300  0.32147000  1
  C  463  1  0.72383200  0.87050400  0.30860100  1
  C  464  1  0.74764200  0.86969200  0.29446600  1
  C  465  1  0.77323100  0.88288500  0.29323600  1
  C  466  1  0.77504900  0.89683800  0.30602500  1
  C  467  1  0.75117800  0.89754200  0.32013100  1
  C  472  1  0.68295600  0.88554300  0.34631900  1
  C  473  1  0.70347700  0.88509800  0.33452600  1
  C  474  1  0.82118000  0.91976600  0.30448600  1
  C  475  1  0.79898900  0.90887000  0.30500000  1
  C  476  1  0.74610500  0.85681100  0.28261200  1
  C  477  1  0.74481800  0.84506700  0.27170400  1
  C  481  1  0.74343000  0.24690200  0.66874500  1
  C  482  1  0.84570700  0.14769000  0.62387200  1
  C  483  1  0.65980200  0.19353200  0.56966000  1
  C  484  1  0.85469300  0.13901900  0.60773000  1
  C  485  1  0.88186700  0.12681700  0.60737700  1
  C  486  1  0.90077600  0.12308300  0.62309300  1
  C  487  1  0.89119800  0.13158700  0.63924200  1
  C  488  1  0.86401900  0.14382200  0.63967500  1
  C  489  1  0.77051800  0.24959300  0.68082200  1
  C  490  1  0.76885700  0.26334600  0.69374800  1
  C  491  1  0.74013300  0.27466200  0.69486300  1
  C  492  1  0.71318700  0.27189200  0.68273400  1
  C  493  1  0.71473200  0.25815900  0.66978500  1
  C  494  1  0.64467900  0.20978400  0.56415500  1
  C  495  1  0.61850600  0.20969300  0.55134000  1
  C  496  1  0.60666500  0.19338600  0.54386900  1
  C  497  1  0.62263900  0.17724800  0.54903500  1
  C  498  1  0.64882800  0.17725900  0.56188200  1
  C  510  1  0.72550100  0.19477700  0.60702800  1
  C  511  1  0.72382700  0.20867400  0.61990100  1
  C  512  1  0.74765300  0.20949000  0.63402700  1
  C  513  1  0.77324600  0.19629700  0.63524800  1
  C  514  1  0.77505400  0.18234500  0.62245600  1
  C  515  1  0.75116800  0.18164100  0.60835900  1
  C  520  1  0.68292600  0.19362300  0.58218700  1
  C  521  1  0.70344900  0.19408000  0.59397800  1
  C  522  1  0.82117000  0.15940600  0.62397300  1
  C  523  1  0.79899600  0.17031300  0.62347000  1
  C  524  1  0.74612300  0.22237200  0.64588500  1
  C  525  1  0.74484100  0.23411600  0.65679500  1
  C  529  1  0.75016200  0.33399100  0.17054200  1
  C  530  1  0.84486400  0.38051100  0.07179200  1
  C  531  1  0.65752300  0.43306900  0.11854300  1
  C  532  1  0.85413100  0.39659100  0.06308900  1
  C  533  1  0.88127400  0.39677700  0.05086000  1
  C  534  1  0.89987700  0.38095600  0.04715100  1
  C  535  1  0.88998700  0.36486300  0.05565800  1
  C  536  1  0.86285100  0.36460100  0.06792500  1
  C  537  1  0.77898200  0.32282500  0.17166600  1
  C  538  1  0.78075800  0.30925900  0.18477500  1
  C  539  1  0.75391600  0.30656300  0.19697900  1
  C  540  1  0.72509600  0.31779800  0.19581200  1
  C  541  1  0.72320400  0.33139100  0.18271900  1
  C  542  1  0.64283300  0.43888600  0.13479500  1
  C  543  1  0.61631300  0.45150800  0.13465500  1
  C  544  1  0.60374300  0.45855800  0.11830300  1
  C  545  1  0.61909600  0.45292400  0.10214300  1
  C  546  1  0.64564400  0.44029100  0.10219900  1
  C  558  1  0.72475900  0.39645100  0.11960400  1
  C  559  1  0.72401700  0.38349700  0.13345500  1
  C  560  1  0.74848100  0.36966700  0.13401900  1
  C  561  1  0.77376500  0.36883300  0.12063000  1
  C  562  1  0.77465700  0.38170200  0.10673100  1
  C  563  1  0.75013500  0.39549900  0.10627100  1
  C  568  1  0.68108500  0.42077000  0.11869300  1
  C  569  1  0.70209400  0.40921800  0.11909200  1
  C  570  1  0.82037000  0.38053400  0.08353900  1
  C  571  1  0.79832700  0.38097700  0.09452400  1
  C  572  1  0.74799700  0.35769800  0.14682200  1
  C  573  1  0.74855900  0.34648200  0.15828900  1
  C  577  1  0.75029900  0.74510000  0.75799100  1
  C  578  1  0.84597300  0.69860500  0.85636800  1
  C  579  1  0.65934600  0.64531000  0.80981100  1
  C  580  1  0.85618000  0.68251800  0.86476200  1
  C  581  1  0.88376400  0.68246800  0.87672000  1
  C  582  1  0.90175400  0.69846200  0.88053600  1
  C  583  1  0.89115000  0.71451000  0.87218500  1
  C  584  1  0.86355500  0.71464200  0.86021300  1
  C  585  1  0.77915700  0.75623300  0.75681400  1
  C  586  1  0.78090200  0.76980100  0.74370600  1
  C  587  1  0.75399500  0.77253800  0.73155200  1
  C  588  1  0.72513100  0.76133600  0.73277100  1
  C  589  1  0.72327000  0.74774100  0.74586500  1
  C  590  1  0.64422800  0.63971400  0.79358800  1
  C  591  1  0.61811800  0.62686300  0.79374400  1
  C  592  1  0.60633900  0.61943800  0.81008600  1
  C  593  1  0.62230300  0.62470200  0.82619500  1
  C  594  1  0.64843000  0.63758200  0.82611900  1
  C  606  1  0.72557500  0.68243600  0.80880200  1
  C  607  1  0.72461500  0.69544200  0.79500400  1
  C  608  1  0.74889900  0.70936400  0.79447100  1
  C  609  1  0.77421800  0.71022900  0.80784000  1
  C  610  1  0.77532000  0.69730700  0.82168900  1
  C  611  1  0.75098300  0.68342200  0.82211400  1
  C  616  1  0.68249500  0.65782400  0.80966700  1
  C  617  1  0.70316800  0.66954400  0.80927100  1
  C  618  1  0.82123300  0.69847700  0.84476800  1
  C  619  1  0.79906700  0.69802800  0.83385100  1
  C  620  1  0.74826800  0.72136300  0.78169100  1
  C  621  1  0.74874200  0.73259600  0.77023700  1
  C  625  1  0.74496500  0.83120700  0.67012900  1
  C  626  1  0.84911900  0.92970500  0.62528800  1
  C  627  1  0.65897700  0.88633700  0.57253900  1
  C  628  1  0.85177300  0.94318600  0.61205200  1
  C  629  1  0.87952200  0.95505600  0.61207000  1
  C  630  1  0.90508200  0.95373200  0.62532200  1
  C  631  1  0.90235400  0.94014700  0.63843000  1
  C  632  1  0.87456000  0.92830700  0.63853200  1
  C  633  1  0.77184500  0.82832400  0.68229200  1
  C  634  1  0.76974300  0.81454400  0.69517100  1
  C  635  1  0.74078400  0.80338600  0.69615600  1
  C  636  1  0.71404800  0.80634500  0.68394300  1
  C  637  1  0.71603100  0.82010700  0.67103900  1
  C  638  1  0.65147500  0.87144500  0.56151800  1
  C  639  1  0.62436200  0.87222700  0.54926600  1
  C  640  1  0.60435600  0.88789700  0.54777400  1
  C  641  1  0.61184700  0.90269100  0.55889000  1
  C  642  1  0.63910500  0.90202400  0.57105600  1
  C  654  1  0.72697000  0.88346500  0.60864600  1
  C  655  1  0.72545800  0.86958600  0.62154000  1
  C  656  1  0.74982300  0.86860200  0.63539400  1
  C  657  1  0.77578900  0.88161800  0.63631500  1
  C  658  1  0.77746300  0.89556200  0.62349900  1
  C  659  1  0.75300700  0.89643000  0.60968500  1
  C  664  1  0.68293900  0.88534000  0.58457300  1
  C  665  1  0.70420600  0.88441700  0.59595800  1
  C  666  1  0.82411100  0.91824500  0.62489500  1
  C  667  1  0.80165800  0.90749400  0.62431600  1
  C  668  1  0.74829300  0.85575900  0.64730500  1
  C  669  1  0.74677900  0.84401800  0.65821000  1
  C  673  1  0.74490700  0.24792000  0.25841000  1
  C  674  1  0.84893100  0.14937900  0.30317000  1
  C  675  1  0.65890100  0.19279800  0.35598300  1
  C  676  1  0.85159100  0.13588900  0.31639800  1
  C  677  1  0.87934700  0.12402400  0.31637200  1
  C  678  1  0.90490500  0.12536600  0.30312300  1
  C  679  1  0.90217200  0.13895600  0.29002100  1
  C  680  1  0.87437000  0.15079100  0.28992700  1
  C  681  1  0.77172400  0.25074600  0.24619500  1
  C  682  1  0.76963400  0.26452900  0.23332000  1
  C  683  1  0.74074800  0.27574600  0.23239300  1
  C  684  1  0.71407100  0.27284300  0.24465600  1
  C  685  1  0.71604400  0.25907800  0.25755700  1
  C  686  1  0.65143400  0.20768800  0.36701600  1
  C  687  1  0.62430600  0.20691600  0.37925900  1
  C  688  1  0.60424900  0.19126200  0.38072700  1
  C  689  1  0.61170600  0.17647300  0.36959900  1
  C  690  1  0.63897600  0.17712800  0.35744300  1
  C  702  1  0.72688200  0.19565600  0.31987500  1
  C  703  1  0.72537700  0.20954200  0.30698900  1
  C  704  1  0.74972900  0.21051800  0.29312800  1
  C  705  1  0.77567200  0.19749100  0.29219200  1
  C  706  1  0.77733100  0.18354200  0.30500300  1
  C  707  1  0.75289000  0.18267900  0.31882500  1
  C  712  1  0.68286500  0.19379000  0.34395300  1
  C  713  1  0.70413000  0.19470900  0.33256800  1
  C  714  1  0.82393600  0.16084000  0.30357800  1
  C  715  1  0.80149800  0.17160000  0.30417100  1
  C  716  1  0.74821200  0.22336500  0.28122600  1
  C  717  1  0.74670800  0.23511000  0.27032500  1
  C  721  1  0.75145200  0.33268000  0.75684300  1
  C  722  1  0.84871600  0.37896000  0.85476000  1
  C  723  1  0.65840200  0.43096000  0.81056200  1
  C  724  1  0.85156600  0.39218000  0.86824400  1
  C  725  1  0.87939500  0.39208700  0.88006100  1
  C  726  1  0.90483900  0.37877900  0.87867700  1
  C  727  1  0.90191600  0.36568800  0.86508800  1
  C  728  1  0.87404100  0.36566000  0.85330100  1
  C  729  1  0.78009700  0.32140700  0.75553800  1
  C  730  1  0.78144900  0.30787600  0.74238100  1
  C  731  1  0.75435400  0.30531700  0.73030600  1
  C  732  1  0.72570600  0.31665700  0.73165300  1
  C  733  1  0.72423700  0.33021700  0.74479600  1
  C  734  1  0.65096300  0.44206300  0.79572000  1
  C  735  1  0.62391300  0.45435200  0.79655700  1
  C  736  1  0.60391200  0.45580500  0.81223300  1
  C  737  1  0.61134100  0.44460900  0.82697600  1
  C  738  1  0.63853500  0.43240800  0.82625500  1
  C  750  1  0.72677300  0.39502500  0.80794600  1
  C  751  1  0.72591900  0.38205500  0.79411700  1
  C  752  1  0.75063900  0.36836200  0.79338900  1
  C  753  1  0.77628000  0.36768600  0.80659800  1
  C  754  1  0.77729300  0.38057400  0.82048400  1
  C  755  1  0.75249800  0.39422600  0.82110500  1
  C  760  1  0.68237400  0.41893300  0.80954200  1
  C  761  1  0.70374800  0.40759700  0.80868900  1
  C  762  1  0.82366000  0.37941400  0.84333800  1
  C  763  1  0.80126000  0.37995400  0.83255300  1
  C  764  1  0.74997500  0.35636000  0.78061300  1
  C  765  1  0.75024400  0.34514900  0.76913600  1
  C  769  1  0.75140100  0.74654100  0.17165700  1
  C  770  1  0.84744700  0.70055500  0.07306700  1
  C  771  1  0.65997200  0.64752900  0.11820100  1
  C  772  1  0.84985800  0.68715800  0.05973600  1
  C  773  1  0.87746500  0.68700400  0.04778300  1
  C  774  1  0.90306600  0.70024500  0.04888200  1
  C  775  1  0.90058100  0.71352400  0.06230900  1
  C  776  1  0.87291900  0.71380300  0.07422700  1
  C  777  1  0.78005400  0.75780600  0.17295800  1
  C  778  1  0.78141900  0.77133700  0.18611500  1
  C  779  1  0.75432600  0.77389700  0.19819200  1
  C  780  1  0.72567100  0.76256200  0.19684700  1
  C  781  1  0.72418900  0.74900400  0.18370400  1
  C  782  1  0.65262900  0.63655200  0.13314700  1
  C  783  1  0.62582300  0.62411400  0.13238000  1
  C  784  1  0.60600400  0.62237700  0.11666800  1
  C  785  1  0.61339500  0.63342100  0.10180600  1
  C  786  1  0.64033800  0.64577700  0.10245800  1
  C  798  1  0.72715500  0.68406500  0.12066200  1
  C  799  1  0.72622600  0.69701700  0.13450500  1
  C  800  1  0.75059600  0.71089100  0.13510200  1
  C  801  1  0.77595100  0.71176900  0.12175100  1
  C  802  1  0.77699900  0.69890000  0.10785200  1
  C  803  1  0.75257600  0.68506300  0.10735900  1
  C  808  1  0.68352900  0.65977300  0.11919700  1
  C  809  1  0.70450700  0.67131200  0.12002200  1
  C  810  1  0.82275600  0.70022800  0.08469300  1
  C  811  1  0.80067300  0.69967400  0.09565100  1
  C  812  1  0.74990200  0.72287100  0.14788800  1
  C  813  1  0.75017800  0.73407700  0.15936800  1
  C  817  1  0.25215400  0.24701600  0.67129200  1
  C  818  1  0.15619000  0.14838700  0.62520500  1
  C  819  1  0.34361600  0.19359300  0.57225100  1
  C  820  1  0.15385500  0.13504800  0.61181200  1
  C  821  1  0.12628800  0.12306700  0.61164100  1
  C  822  1  0.10064600  0.12414900  0.62486200  1
  C  823  1  0.10305400  0.13758500  0.63813600  1
  C  824  1  0.13067700  0.14952800  0.63843300  1
  C  825  1  0.22349300  0.24831600  0.68255100  1
  C  826  1  0.22211400  0.26147200  0.69608400  1
  C  827  1  0.24919900  0.27355100  0.69865600  1
  C  828  1  0.27786400  0.27220800  0.68732600  1
  C  829  1  0.27935800  0.25906800  0.67376600  1
  C  830  1  0.35094800  0.20853400  0.56126800  1
  C  831  1  0.37775500  0.20776500  0.54882900  1
  C  832  1  0.39758100  0.19205500  0.54709800  1
  C  833  1  0.39019800  0.17719700  0.55814800  1
  C  834  1  0.36325500  0.17785200  0.57050600  1
  C  846  1  0.27642000  0.19604800  0.60878600  1
  C  847  1  0.27733900  0.20988200  0.62174900  1
  C  848  1  0.25295900  0.21046900  0.63562000  1
  C  849  1  0.22760700  0.19711600  0.63648200  1
  C  850  1  0.22656500  0.18322400  0.62360300  1
  C  851  1  0.25100000  0.18274300  0.60977000  1
  C  856  1  0.32005900  0.19459100  0.58449700  1
  C  857  1  0.29907500  0.19541400  0.59603400  1
  C  858  1  0.18084600  0.16003900  0.62489500  1
  C  859  1  0.20290100  0.17101400  0.62436100  1
  C  860  1  0.25365100  0.22325200  0.64761000  1
  C  861  1  0.25338200  0.23472900  0.65882100  1
  C  865  1  0.25223300  0.83218000  0.25725900  1
  C  866  1  0.15615000  0.93079700  0.30326300  1
  C  867  1  0.34361100  0.88560900  0.35627400  1
  C  868  1  0.15378700  0.94414600  0.31664300  1
  C  869  1  0.12619800  0.95611200  0.31680200  1
  C  870  1  0.10056200  0.95500600  0.30357900  1
  C  871  1  0.10300000  0.94156100  0.29031500  1
  C  872  1  0.13064500  0.92963200  0.29003300  1
  C  873  1  0.22359200  0.83086600  0.24598700  1
  C  874  1  0.22225200  0.81770400  0.23246200  1
  C  875  1  0.24935800  0.80563300  0.22991300  1
  C  876  1  0.27800000  0.80698900  0.24125400  1
  C  877  1  0.27945700  0.82013900  0.25480700  1
  C  878  1  0.35093500  0.87066000  0.36725000  1
  C  879  1  0.37775200  0.87141500  0.37968200  1
  C  880  1  0.39759900  0.88711800  0.38141400  1
  C  881  1  0.39022300  0.90198300  0.37037100  1
  C  882  1  0.36327000  0.90134300  0.35802000  1
  C  894  1  0.27641000  0.88317200  0.31974100  1
  C  895  1  0.27734400  0.86933400  0.30678400  1
  C  896  1  0.25297800  0.86874300  0.29290800  1
  C  897  1  0.22762400  0.88209400  0.29203200  1
  C  898  1  0.22656800  0.89598800  0.30490700  1
  C  899  1  0.25099100  0.89647700  0.31874600  1
  C  904  1  0.32004400  0.88462300  0.34403300  1
  C  905  1  0.29905700  0.88380800  0.33249700  1
  C  906  1  0.18082600  0.91915900  0.30358700  1
  C  907  1  0.20289800  0.90819400  0.30413700  1
  C  908  1  0.25368100  0.85595600  0.28092400  1
  C  909  1  0.25343000  0.84447500  0.26972100  1
  C  913  1  0.25230700  0.74660200  0.75669500  1
  C  914  1  0.15537600  0.70047600  0.85482100  1
  C  915  1  0.34359600  0.64751300  0.81018500  1
  C  916  1  0.15280100  0.68725900  0.86832300  1
  C  917  1  0.12512200  0.68730700  0.88023300  1
  C  918  1  0.09959200  0.70057000  0.87890900  1
  C  919  1  0.10223200  0.71365700  0.86530300  1
  C  920  1  0.12996000  0.71373100  0.85342900  1
  C  921  1  0.22362100  0.75784400  0.75539800  1
  C  922  1  0.22222800  0.77139100  0.74225800  1
  C  923  1  0.24932200  0.77399400  0.73019000  1
  C  924  1  0.27801300  0.76268300  0.73153300  1
  C  925  1  0.27952300  0.74910900  0.74465900  1
  C  926  1  0.35091800  0.63650200  0.79526100  1
  C  927  1  0.37772400  0.62406500  0.79604700  1
  C  928  1  0.39755800  0.62236000  0.81175700  1
  C  929  1  0.39018500  0.63343400  0.82659800  1
  C  930  1  0.36324200  0.64579100  0.82592700  1
  C  942  1  0.27638200  0.68403200  0.80763300  1
  C  943  1  0.27742300  0.69702300  0.79382600  1
  C  944  1  0.25300300  0.71087000  0.79318300  1
  C  945  1  0.22748900  0.71168300  0.80645300  1
  C  946  1  0.22632000  0.69877500  0.82031500  1
  C  947  1  0.25080000  0.68496600  0.82085400  1
  C  952  1  0.32004400  0.65976000  0.80916500  1
  C  953  1  0.29906000  0.67129300  0.80831100  1
  C  954  1  0.18024700  0.70004500  0.84330300  1
  C  955  1  0.20248800  0.69949000  0.83243500  1
  C  956  1  0.25378000  0.72288100  0.78042100  1
  C  957  1  0.25353900  0.73411200  0.76896300  1
  C  961  1  0.25223600  0.33256200  0.17169300  1
  C  962  1  0.15657800  0.37877400  0.07309000  1
  C  963  1  0.34535300  0.43094200  0.11798800  1
  C  964  1  0.15422600  0.39215000  0.05973500  1
  C  965  1  0.12667100  0.39229300  0.04774700  1
  C  966  1  0.10106100  0.37905700  0.04883600  1
  C  967  1  0.10347900  0.36579900  0.06228800  1
  C  968  1  0.13109200  0.36553100  0.07423800  1
  C  969  1  0.22353800  0.32132900  0.17299800  1
  C  970  1  0.22213100  0.30779300  0.18615000  1
  C  971  1  0.24922500  0.30519200  0.19821700  1
  C  972  1  0.27792400  0.31649400  0.19686700  1
  C  973  1  0.27944900  0.33005800  0.18373100  1
  C  974  1  0.35278900  0.44207100  0.13280900  1
  C  975  1  0.37980600  0.45437600  0.13193400  1
  C  976  1  0.39976700  0.45581700  0.11624300  1
  C  977  1  0.39232300  0.44460300  0.10151700  1
  C  978  1  0.36516200  0.43238400  0.10227400  1
  C  990  1  0.27721000  0.39490300  0.12062900  1
  C  991  1  0.27793700  0.38196700  0.13449000  1
  C  992  1  0.25330100  0.36822800  0.13513800  1
  C  993  1  0.22788000  0.36746600  0.12181600  1
  C  994  1  0.22701900  0.38031900  0.10789700  1
  C  995  1  0.25171400  0.39402200  0.10735600  1
  C  1000  1  0.32145900  0.41888100  0.11905300  1
  C  1001  1  0.30016400  0.40750600  0.11992700  1
  C  1002  1  0.18124400  0.37910100  0.08473600  1
  C  1003  1  0.20332400  0.37962400  0.09569900  1
  C  1004  1  0.25385800  0.35624200  0.14792700  1
  C  1005  1  0.25350600  0.34503300  0.15940400  1
  N  286  1  0.07324300  0.11408300  0.30438300  1
  N  287  1  0.42601800  0.19217100  0.39477900  1
  N  288  1  0.26664600  0.28763700  0.22174500  1
  N  334  1  0.07281800  0.96485300  0.62404300  1
  N  335  1  0.42607700  0.88702100  0.53368100  1
  N  336  1  0.26673000  0.79154700  0.70665900  1
  N  382  1  0.07581800  0.69907400  0.03701900  1
  N  383  1  0.42317200  0.60786800  0.11705100  1
  N  384  1  0.26685100  0.78208600  0.21241100  1
  N  430  1  0.07280300  0.37973000  0.88965500  1
  N  431  1  0.42594500  0.47005100  0.81162300  1
  N  432  1  0.26661300  0.29710300  0.71618700  1
  N  478  1  0.92762900  0.96693600  0.30476400  1
  N  479  1  0.58059100  0.88672800  0.39597200  1
  N  480  1  0.73686100  0.79140400  0.22173500  1
  N  526  1  0.92738500  0.11209000  0.62369700  1
  N  527  1  0.58057300  0.19239100  0.53252300  1
  N  528  1  0.73688300  0.28779600  0.70676100  1
  N  574  1  0.92642300  0.38023600  0.03612600  1
  N  575  1  0.57741500  0.46972600  0.11699500  1
  N  576  1  0.75730500  0.29346500  0.20889200  1
  N  622  1  0.92885400  0.69942400  0.89114100  1
  N  623  1  0.58032200  0.60804600  0.81115500  1
  N  624  1  0.75737300  0.78563200  0.71963100  1
  N  670  1  0.93296000  0.96377500  0.62536100  1
  N  671  1  0.57636600  0.88850500  0.53792200  1
  N  672  1  0.73713400  0.79022900  0.70800200  1
  N  718  1  0.93281100  0.11534900  0.30309200  1
  N  719  1  0.57624500  0.19066900  0.39056900  1
  N  720  1  0.73710600  0.28890400  0.22055300  1
  N  766  1  0.93277800  0.37866600  0.88867000  1
  N  767  1  0.57597600  0.46569900  0.81288700  1
  N  768  1  0.75735300  0.29224400  0.71833500  1
  N  814  1  0.93114400  0.69983300  0.03905100  1
  N  815  1  0.57791900  0.61261000  0.11615900  1
  N  816  1  0.75733500  0.78696400  0.21016200  1
  N  862  1  0.07257400  0.11431500  0.62441600  1
  N  863  1  0.42566600  0.19154400  0.53733100  1
  N  864  1  0.24617000  0.28552200  0.71172600  1
  N  910  1  0.07248500  0.96483900  0.30400600  1
  N  911  1  0.42569200  0.88761600  0.39117600  1
  N  912  1  0.24637200  0.79365800  0.21684700  1
  N  958  1  0.07169300  0.70056500  0.88889800  1
  N  959  1  0.42566100  0.61260500  0.81226600  1
  N  960  1  0.24627400  0.78707000  0.71822800  1
  N  1006  1  0.07298600  0.37948700  0.03900900  1
  N  1007  1  0.42770500  0.46570400  0.11557100  1
  N  1008  1  0.24617700  0.29211800  0.21018400  1
