# generated using pymatgen
data_H24C37(N2O)2
_symmetry_space_group_name_H-M   'P 1'
_cell_length_a   29.59440000
_cell_length_b   29.59440000
_cell_length_c   43.77450000
_cell_angle_alpha   90.00000000
_cell_angle_beta   90.00040000
_cell_angle_gamma   90.00000000
_symmetry_Int_Tables_number   1
_chemical_formula_structural   H24C37(N2O)2
_chemical_formula_sum   'H384 C592 N64 O32'
_cell_volume   38338.95516959
_cell_formula_units_Z   16
loop_
 _symmetry_equiv_pos_site_id
 _symmetry_equiv_pos_as_xyz
  1  'x, y, z'
loop_
 _atom_site_type_symbol
 _atom_site_label
 _atom_site_symmetry_multiplicity
 _atom_site_fract_x
 _atom_site_fract_y
 _atom_site_fract_z
 _atom_site_occupancy
  H  25  1  0.04935700  0.06161500  0.06555200  1
  H  26  1  0.04803500  0.05981000  0.11985100  1
  H  27  1  0.10215000  0.11404800  0.22076700  1
  H  28  1  0.14864000  0.16205800  0.25120600  1
  H  29  1  0.21459900  0.20805800  0.17203800  1
  H  30  1  0.16042000  0.15052800  0.06805900  1
  H  31  1  0.20572200  0.08214700  0.13516800  1
  H  32  1  0.33673500  0.11273200  0.10415000  1
  H  33  1  0.31391400  0.18884600  0.09448400  1
  H  34  1  0.08594000  0.20465800  0.13359000  1
  H  35  1  0.19481700  0.30856600  0.09084000  1
  H  36  1  0.11848700  0.33286400  0.09881600  1
  H  39  1  0.06408000  0.11340100  0.16631800  1
  H  40  1  0.10426200  0.06906400  0.16760000  1
  H  42  1  0.25527000  0.25066300  0.11525500  1
  H  43  1  0.24042700  0.23407500  0.07766600  1
  H  68  1  0.95108700  0.93888100  0.06554200  1
  H  69  1  0.95240500  0.94069200  0.11984100  1
  H  70  1  0.89829800  0.88644900  0.22076000  1
  H  71  1  0.85180700  0.83843700  0.25119700  1
  H  72  1  0.78586400  0.79242100  0.17202800  1
  H  73  1  0.84004200  0.84994600  0.06805000  1
  H  74  1  0.79472700  0.91832700  0.13515400  1
  H  75  1  0.66370500  0.88770600  0.10415800  1
  H  76  1  0.68655100  0.81160000  0.09448000  1
  H  77  1  0.91451700  0.79582000  0.13361300  1
  H  78  1  0.80567800  0.69191500  0.09081400  1
  H  79  1  0.88200300  0.66762000  0.09881800  1
  H  82  1  0.93637600  0.88709100  0.16631200  1
  H  83  1  0.89618900  0.93142400  0.16758900  1
  H  85  1  0.74520700  0.74980500  0.11522300  1
  H  86  1  0.76006400  0.76640600  0.07764000  1
  H  111  1  0.95113700  0.06165400  0.93493600  1
  H  112  1  0.95246400  0.05984800  0.88063700  1
  H  113  1  0.89834100  0.11405800  0.77972000  1
  H  114  1  0.85184900  0.16205900  0.74927700  1
  H  115  1  0.78588400  0.20806800  0.82844000  1
  H  116  1  0.84007200  0.15056200  0.93242300  1
  H  117  1  0.79477500  0.08215800  0.86533400  1
  H  118  1  0.66373700  0.11276000  0.89630400  1
  H  119  1  0.68655200  0.18888100  0.90595800  1
  H  120  1  0.91454100  0.20469400  0.86688900  1
  H  121  1  0.80563600  0.30860300  0.90960800  1
  H  122  1  0.88196100  0.33291500  0.90163100  1
  H  125  1  0.93641300  0.11343000  0.83416700  1
  H  126  1  0.89624000  0.06908600  0.83289000  1
  H  128  1  0.74520500  0.25067900  0.88520400  1
  H  129  1  0.76003900  0.23411200  0.92279600  1
  H  154  1  0.04935300  0.93881700  0.93491500  1
  H  155  1  0.04802700  0.94061500  0.88061600  1
  H  156  1  0.10214700  0.88637500  0.77970100  1
  H  157  1  0.14864800  0.83837200  0.74926400  1
  H  158  1  0.21460400  0.79238000  0.82843500  1
  H  159  1  0.16041600  0.84990800  0.93241100  1
  H  160  1  0.20569600  0.91829600  0.86532200  1
  H  161  1  0.33671300  0.88774300  0.89634900  1
  H  162  1  0.31391300  0.81161400  0.90599700  1
  H  163  1  0.08594800  0.79575300  0.86686600  1
  H  164  1  0.19483800  0.69187200  0.90963800  1
  H  165  1  0.11851700  0.66755600  0.90164900  1
  H  168  1  0.06407000  0.88701300  0.83414900  1
  H  169  1  0.10424600  0.93135600  0.83286900  1
  H  171  1  0.25528400  0.74978800  0.88522600  1
  H  172  1  0.24042900  0.76637600  0.92281200  1
  H  197  1  0.06074400  0.05398000  0.92598100  1
  H  198  1  0.06141200  0.05523100  0.87152900  1
  H  199  1  0.11813800  0.11568500  0.77295500  1
  H  200  1  0.16707700  0.16355400  0.74437500  1
  H  201  1  0.21371600  0.22273700  0.82590400  1
  H  202  1  0.15517300  0.16033300  0.92772200  1
  H  203  1  0.08771000  0.21316400  0.85893300  1
  H  204  1  0.11083100  0.33283300  0.90838600  1
  H  205  1  0.18751500  0.31031900  0.91684300  1
  H  206  1  0.20989100  0.09276500  0.85734500  1
  H  207  1  0.30826400  0.19303300  0.91381600  1
  H  208  1  0.33194500  0.11722700  0.90363400  1
  H  211  1  0.11703900  0.07330500  0.82596600  1
  H  212  1  0.07298500  0.11390800  0.82581700  1
  H  214  1  0.25315400  0.25821300  0.89114500  1
  H  215  1  0.23315400  0.23611700  0.92626200  1
  H  240  1  0.93973900  0.94649100  0.92596900  1
  H  241  1  0.93907600  0.94523100  0.87151700  1
  H  242  1  0.88235200  0.88476600  0.77294400  1
  H  243  1  0.83341000  0.83689200  0.74436600  1
  H  244  1  0.78677000  0.77772200  0.82590000  1
  H  245  1  0.84530600  0.84014000  0.92771200  1
  H  246  1  0.91276400  0.78730200  0.85891900  1
  H  247  1  0.88968200  0.66768100  0.90842000  1
  H  248  1  0.81301600  0.69018500  0.91689100  1
  H  249  1  0.79057800  0.90769300  0.85732000  1
  H  250  1  0.69224300  0.80745100  0.91384800  1
  H  251  1  0.66854900  0.88324200  0.90364600  1
  H  254  1  0.88347100  0.92714900  0.82595000  1
  H  255  1  0.92750900  0.88653000  0.82581300  1
  H  257  1  0.74734100  0.74225600  0.89117500  1
  H  258  1  0.76736200  0.76438200  0.92627800  1
  H  283  1  0.06077600  0.94649800  0.07448400  1
  H  284  1  0.06145000  0.94525800  0.12893600  1
  H  285  1  0.11818600  0.88482000  0.22751300  1
  H  286  1  0.16712100  0.83695000  0.25609700  1
  H  287  1  0.21374800  0.77775300  0.17456900  1
  H  288  1  0.15520100  0.84014000  0.07275000  1
  H  289  1  0.08776000  0.78733900  0.14154800  1
  H  290  1  0.11082400  0.66768400  0.09206300  1
  H  291  1  0.18750700  0.69018500  0.08359600  1
  H  292  1  0.20994300  0.90770600  0.14313500  1
  H  293  1  0.30828700  0.80743400  0.08664200  1
  H  294  1  0.33200300  0.88322200  0.09685800  1
  H  297  1  0.11707600  0.92719000  0.17449900  1
  H  298  1  0.07302600  0.88658400  0.17465200  1
  H  300  1  0.25316800  0.74226600  0.10930500  1
  H  301  1  0.23316100  0.76437200  0.07419300  1
  H  326  1  0.93973400  0.05398700  0.07450100  1
  H  327  1  0.93906900  0.05523800  0.12895300  1
  H  328  1  0.88232200  0.11567600  0.22752700  1
  H  329  1  0.83338400  0.16354700  0.25610600  1
  H  330  1  0.78677300  0.22275200  0.17457600  1
  H  331  1  0.84530700  0.16034300  0.07276200  1
  H  332  1  0.91277000  0.21318100  0.14155000  1
  H  333  1  0.88964300  0.33285600  0.09210000  1
  H  334  1  0.81296300  0.31034000  0.08364300  1
  H  335  1  0.79058800  0.09279400  0.14315600  1
  H  336  1  0.69223100  0.19303700  0.08664800  1
  H  337  1  0.66853700  0.11724600  0.09685000  1
  H  340  1  0.88343700  0.07331400  0.17451500  1
  H  341  1  0.92749600  0.11391100  0.17466700  1
  H  343  1  0.74732900  0.25822300  0.10933800  1
  H  344  1  0.76732200  0.23612600  0.07422000  1
  H  369  1  0.54878300  0.56195200  0.56599500  1
  H  370  1  0.54812100  0.56078600  0.62033200  1
  H  371  1  0.60232800  0.61794900  0.72051800  1
  H  372  1  0.65019600  0.66541000  0.75044700  1
  H  373  1  0.71612600  0.70923000  0.67067400  1
  H  374  1  0.66091200  0.64953600  0.56743800  1
  H  375  1  0.70659700  0.58212400  0.63453700  1
  H  376  1  0.83703700  0.61170800  0.60199500  1
  H  377  1  0.81438100  0.68781300  0.59220600  1
  H  378  1  0.58712200  0.70482300  0.63294200  1
  H  379  1  0.69514200  0.80748500  0.58793000  1
  H  380  1  0.61893800  0.83195200  0.59616500  1
  H  383  1  0.56482400  0.61536000  0.66613100  1
  H  384  1  0.60463900  0.57076100  0.66802400  1
  H  386  1  0.75613700  0.75028500  0.61281400  1
  H  387  1  0.74071800  0.73274400  0.57553700  1
  H  412  1  0.45161900  0.43858000  0.56599900  1
  H  413  1  0.45227800  0.43975600  0.62033700  1
  H  414  1  0.39810300  0.38256600  0.72052500  1
  H  415  1  0.35025300  0.33508400  0.75045400  1
  H  416  1  0.28433300  0.29125000  0.67068100  1
  H  417  1  0.33952300  0.35095500  0.56744500  1
  H  418  1  0.29381900  0.41836000  0.63453500  1
  H  419  1  0.16337100  0.38871900  0.60202000  1
  H  420  1  0.18606100  0.31262200  0.59222900  1
  H  421  1  0.41332500  0.29569500  0.63296700  1
  H  422  1  0.30536000  0.19301200  0.58791800  1
  H  423  1  0.38157500  0.16857300  0.59615800  1
  H  426  1  0.43560300  0.38516500  0.66613700  1
  H  427  1  0.39578200  0.42975400  0.66802900  1
  H  429  1  0.24433300  0.25018200  0.61281200  1
  H  430  1  0.25975500  0.26773200  0.57553700  1
  H  455  1  0.45167500  0.56194100  0.43447300  1
  H  456  1  0.45233700  0.56077200  0.38013500  1
  H  457  1  0.39814600  0.61793900  0.27995100  1
  H  458  1  0.35028900  0.66541000  0.25002000  1
  H  459  1  0.28435900  0.70924000  0.32979100  1
  H  460  1  0.33956200  0.64954300  0.43302900  1
  H  461  1  0.29387400  0.58212400  0.36594600  1
  H  462  1  0.16340900  0.61174100  0.39843600  1
  H  463  1  0.18607000  0.68785000  0.40820800  1
  H  464  1  0.41336300  0.70481700  0.36754800  1
  H  465  1  0.30532500  0.80749800  0.41252100  1
  H  466  1  0.38154000  0.83195600  0.40431100  1
  H  469  1  0.43564700  0.61534700  0.33433900  1
  H  470  1  0.39582500  0.57075400  0.33244300  1
  H  472  1  0.24433900  0.75029800  0.38762100  1
  H  473  1  0.25973600  0.73277100  0.42491000  1
  H  498  1  0.54880800  0.43853300  0.43447900  1
  H  499  1  0.54813900  0.43969200  0.38014200  1
  H  500  1  0.60231300  0.38250500  0.27995600  1
  H  501  1  0.65018000  0.33503900  0.25002900  1
  H  502  1  0.71611300  0.29122200  0.32980000  1
  H  503  1  0.66092100  0.35093500  0.43303600  1
  H  504  1  0.70658400  0.41834000  0.36594900  1
  H  505  1  0.83703200  0.38876700  0.39848800  1
  H  506  1  0.81438900  0.31265100  0.40825600  1
  H  507  1  0.58711900  0.29563600  0.36754300  1
  H  508  1  0.69514300  0.19298400  0.41256000  1
  H  509  1  0.61893300  0.16851900  0.40433900  1
  H  512  1  0.56481700  0.38510000  0.33434600  1
  H  513  1  0.60463500  0.42969700  0.33244700  1
  H  515  1  0.75614100  0.25017700  0.38766000  1
  H  516  1  0.74072600  0.26772200  0.42493700  1
  H  541  1  0.56001000  0.55457500  0.42536200  1
  H  542  1  0.56195900  0.55592700  0.37091700  1
  H  543  1  0.62290200  0.61466400  0.27316400  1
  H  544  1  0.67264700  0.66239600  0.24507700  1
  H  545  1  0.71607200  0.72311100  0.32693700  1
  H  546  1  0.65381800  0.66142700  0.42815400  1
  H  547  1  0.58792300  0.71420300  0.35894200  1
  H  548  1  0.60960700  0.83312100  0.40953300  1
  H  549  1  0.68628400  0.81100200  0.41824900  1
  H  550  1  0.71023000  0.59384600  0.35852600  1
  H  551  1  0.80680000  0.69363500  0.41675900  1
  H  552  1  0.83060800  0.61778300  0.40688100  1
  H  555  1  0.61903300  0.57381500  0.32629500  1
  H  556  1  0.57495700  0.61435700  0.32510100  1
  H  558  1  0.75270100  0.75910100  0.39306000  1
  H  559  1  0.73161300  0.73704600  0.42789300  1
  H  584  1  0.44044300  0.44591600  0.42536900  1
  H  585  1  0.43850600  0.44455800  0.37092400  1
  H  586  1  0.37758100  0.38580700  0.27316600  1
  H  587  1  0.32783200  0.33807400  0.24507700  1
  H  588  1  0.28440700  0.27736300  0.32694200  1
  H  589  1  0.34665100  0.33905100  0.42815600  1
  H  590  1  0.41254200  0.28626900  0.35894000  1
  H  591  1  0.39090000  0.16740200  0.40957700  1
  H  592  1  0.31424000  0.18950900  0.41830800  1
  H  593  1  0.29023300  0.40661800  0.35851000  1
  H  594  1  0.19369900  0.30686100  0.41680000  1
  H  595  1  0.16987900  0.38269400  0.40689900  1
  H  598  1  0.38145800  0.42665600  0.32629300  1
  H  599  1  0.42552700  0.38610400  0.32511000  1
  H  601  1  0.24778500  0.24137600  0.39310100  1
  H  602  1  0.26889500  0.26346300  0.42792100  1
  H  627  1  0.56004200  0.44591600  0.57510900  1
  H  628  1  0.56199500  0.44457400  0.62955400  1
  H  629  1  0.62294000  0.38584000  0.72731000  1
  H  630  1  0.67268300  0.33809800  0.75540000  1
  H  631  1  0.71609600  0.27737400  0.67353700  1
  H  632  1  0.65383300  0.33905100  0.57232200  1
  H  633  1  0.58797000  0.28630500  0.64154300  1
  H  634  1  0.60959200  0.16739800  0.59092700  1
  H  635  1  0.68626800  0.18950300  0.58219600  1
  H  636  1  0.71027000  0.40663500  0.64195000  1
  H  637  1  0.80680800  0.30684200  0.58369400  1
  H  638  1  0.83064700  0.38267800  0.59360000  1
  H  641  1  0.61906700  0.42668300  0.67417900  1
  H  642  1  0.57499100  0.38614100  0.67537300  1
  H  644  1  0.75270700  0.24138400  0.60739100  1
  H  645  1  0.73160800  0.26345100  0.57256200  1
  H  670  1  0.44046100  0.55454800  0.57509800  1
  H  671  1  0.43851600  0.55589300  0.62954500  1
  H  672  1  0.37757900  0.61462400  0.72730100  1
  H  673  1  0.32783900  0.66235900  0.75539300  1
  H  674  1  0.28442900  0.72309700  0.67353000  1
  H  675  1  0.34666600  0.66141000  0.57231600  1
  H  676  1  0.41256500  0.71418000  0.64152900  1
  H  677  1  0.39088800  0.83310800  0.59094500  1
  H  678  1  0.31421900  0.81099200  0.58222100  1
  H  679  1  0.29023700  0.59384600  0.64196400  1
  H  680  1  0.19369900  0.69362500  0.58369700  1
  H  681  1  0.16986400  0.61779300  0.59359700  1
  H  684  1  0.38145100  0.57378800  0.67417200  1
  H  685  1  0.42553400  0.61432600  0.67536200  1
  H  687  1  0.24779800  0.75909000  0.60740700  1
  H  688  1  0.26887500  0.73702200  0.57257100  1
  H  696  1  0.23034500  0.17192300  0.26716300  1
  H  698  1  0.13577300  0.28008000  0.21186600  1
  H  699  1  0.14850100  0.32006600  0.18316800  1
  H  700  1  0.16295900  0.33199500  0.22152800  1
  H  708  1  0.77012200  0.82856000  0.26715800  1
  H  710  1  0.86469400  0.72041700  0.21187900  1
  H  711  1  0.85198800  0.68042000  0.18318300  1
  H  712  1  0.83751300  0.66850200  0.22154200  1
  H  720  1  0.77013400  0.17192900  0.73331600  1
  H  722  1  0.86473000  0.28006800  0.78861100  1
  H  723  1  0.85200800  0.32006000  0.81730800  1
  H  724  1  0.83755600  0.33198900  0.77894500  1
  H  732  1  0.23034000  0.82851600  0.73330700  1
  H  734  1  0.13578800  0.72035300  0.78858300  1
  H  735  1  0.14850100  0.68036300  0.81728000  1
  H  736  1  0.16298300  0.66844100  0.77892200  1
  H  744  1  0.17828300  0.24528800  0.73095100  1
  H  746  1  0.28396600  0.14512200  0.78415400  1
  H  747  1  0.32424400  0.15557800  0.81308600  1
  H  748  1  0.33666300  0.17116400  0.77500000  1
  H  756  1  0.82217800  0.75519100  0.73093800  1
  H  758  1  0.71651600  0.85534900  0.78415400  1
  H  759  1  0.67624200  0.84489400  0.81308800  1
  H  760  1  0.66381300  0.82931000  0.77500200  1
  H  768  1  0.17832600  0.75522500  0.26952300  1
  H  770  1  0.28401500  0.85537200  0.21631000  1
  H  771  1  0.32429100  0.84490700  0.18737700  1
  H  772  1  0.33671000  0.82932300  0.22546400  1
  H  780  1  0.82216600  0.24526500  0.26954300  1
  H  782  1  0.71652400  0.14511300  0.21630500  1
  H  783  1  0.67624900  0.15557000  0.18737000  1
  H  784  1  0.66381800  0.17114200  0.22545700  1
  H  792  1  0.03978600  0.30293200  0.07448900  1
  H  794  1  0.99487700  0.22967200  0.19973200  1
  H  795  1  0.05118000  0.21608800  0.20960600  1
  H  796  1  0.02730600  0.19298700  0.17600200  1
  H  804  1  0.96065000  0.69761600  0.07452500  1
  H  806  1  0.00561800  0.77086600  0.19974500  1
  H  807  1  0.94930800  0.78436900  0.20964900  1
  H  808  1  0.97311300  0.80751200  0.17603600  1
  H  816  1  0.96068600  0.30294700  0.92596900  1
  H  818  1  0.00560700  0.22966800  0.80074600  1
  H  819  1  0.94930000  0.21610800  0.79086500  1
  H  820  1  0.97315300  0.19300400  0.82447600  1
  H  828  1  0.03983600  0.69757500  0.92596700  1
  H  830  1  0.99490400  0.77074100  0.80071800  1
  H  831  1  0.05122000  0.78422700  0.79082000  1
  H  832  1  0.02740300  0.80740000  0.82442200  1
  H  840  1  0.25647600  0.03463400  0.16813500  1
  H  842  1  0.38183700  0.04561300  0.08077500  1
  H  843  1  0.36527600  0.04999600  0.04208400  1
  H  844  1  0.36767900  0.99618300  0.05949000  1
  H  852  1  0.25656600  0.96582600  0.83234200  1
  H  854  1  0.38176100  0.95495900  0.91974400  1
  H  855  1  0.36518100  0.95037700  0.95842200  1
  H  856  1  0.36746800  0.00426900  0.94112000  1
  H  864  1  0.74401500  0.96585300  0.16812600  1
  H  866  1  0.61860500  0.95484700  0.08081000  1
  H  867  1  0.63514500  0.95046800  0.04211300  1
  H  868  1  0.63275300  0.00428100  0.05952400  1
  H  876  1  0.74393700  0.03467000  0.83234900  1
  H  878  1  0.61869100  0.04552600  0.91968900  1
  H  879  1  0.63523200  0.05005400  0.95837600  1
  H  880  1  0.63293400  0.99618300  0.94104400  1
  H  888  1  0.09498800  0.03695900  0.02168500  1
  H  890  1  0.05933600  0.21980900  0.00776300  1
  H  891  1  0.08498700  0.24596500  0.03965900  1
  H  892  1  0.05415200  0.19541600  0.04491400  1
  H  900  1  0.90550700  0.03698900  0.97879200  1
  H  902  1  0.94115200  0.21982900  0.99274300  1
  H  903  1  0.91552500  0.24599100  0.96084100  1
  H  904  1  0.94635900  0.19543800  0.95559400  1
  H  912  1  0.09499000  0.96348700  0.97877400  1
  H  914  1  0.05936000  0.78063800  0.99273200  1
  H  915  1  0.08500300  0.75446800  0.96083900  1
  H  916  1  0.05415900  0.80501100  0.95557800  1
  H  924  1  0.90548000  0.96352500  0.02167700  1
  H  926  1  0.94112200  0.78068200  0.00773600  1
  H  927  1  0.91549200  0.75451900  0.03963600  1
  H  928  1  0.94632600  0.80507200  0.04488600  1
  H  936  1  0.54006100  0.80276100  0.57320700  1
  H  938  1  0.49586500  0.73111900  0.69912700  1
  H  939  1  0.55204500  0.71662600  0.70870600  1
  H  940  1  0.52716500  0.69334100  0.67548500  1
  H  948  1  0.46039800  0.19775600  0.57322900  1
  H  950  1  0.50462000  0.26943200  0.69913200  1
  H  951  1  0.44843400  0.28387300  0.70872800  1
  H  952  1  0.47327300  0.30719400  0.67550600  1
  H  960  1  0.46044300  0.80279100  0.42728300  1
  H  962  1  0.50460600  0.73111200  0.30137000  1
  H  963  1  0.44842600  0.71662300  0.29179300  1
  H  964  1  0.47331000  0.69333500  0.32501200  1
  H  972  1  0.54006700  0.19772300  0.42729300  1
  H  974  1  0.49590200  0.26930500  0.30135400  1
  H  975  1  0.55209500  0.28372700  0.29176600  1
  H  976  1  0.52724200  0.30708100  0.32497300  1
  H  984  1  0.75711000  0.53357100  0.66650500  1
  H  986  1  0.88194700  0.54414100  0.57878300  1
  H  987  1  0.86520100  0.54917900  0.54016200  1
  H  988  1  0.86703200  0.49514200  0.55727700  1
  H  996  1  0.75721500  0.46690000  0.33396200  1
  H  998  1  0.88188800  0.45643100  0.42171900  1
  H  999  1  0.86513200  0.45120100  0.46032300  1
  H  1000  1  0.86685200  0.50531200  0.44331100  1
  H  1008  1  0.24333600  0.46691700  0.66651000  1
  H  1010  1  0.11846700  0.45630300  0.57882200  1
  H  1011  1  0.13519500  0.45127200  0.54019900  1
  H  1012  1  0.13336700  0.50530600  0.55731600  1
  H  1020  1  0.24327600  0.53359100  0.33396200  1
  H  1022  1  0.11855700  0.54406300  0.42166400  1
  H  1023  1  0.13527700  0.54925000  0.46027800  1
  H  1024  1  0.13354700  0.49515800  0.44324000  1
  H  1032  1  0.59307800  0.53711900  0.52138600  1
  H  1034  1  0.55955800  0.72041100  0.50833100  1
  H  1035  1  0.58612000  0.74623300  0.54000200  1
  H  1036  1  0.55470200  0.69610200  0.54553100  1
  H  1044  1  0.40739300  0.53711200  0.47907400  1
  H  1046  1  0.44093000  0.72038700  0.49215700  1
  H  1047  1  0.41439400  0.74621600  0.46047900  1
  H  1048  1  0.44579900  0.69607500  0.45495700  1
  H  1056  1  0.59310800  0.46336200  0.47908500  1
  H  1058  1  0.55957400  0.28007000  0.49215500  1
  H  1059  1  0.58613300  0.25424200  0.46048600  1
  H  1060  1  0.55471500  0.30437200  0.45495300  1
  H  1068  1  0.40735000  0.46338200  0.52139100  1
  H  1070  1  0.44089000  0.28010600  0.50832200  1
  H  1071  1  0.41435500  0.25427700  0.54000000  1
  H  1072  1  0.44575900  0.30441900  0.54551900  1
  C  1  1  0.15404400  0.21136500  0.12038400  1
  C  2  1  0.18586200  0.24186700  0.10769000  1
  C  3  1  0.24595000  0.18093400  0.10906700  1
  C  4  1  0.21440200  0.14981500  0.12142900  1
  C  5  1  0.22886600  0.10492500  0.12709100  1
  C  6  1  0.27324200  0.09004600  0.12060400  1
  C  7  1  0.30417100  0.12190500  0.10887300  1
  C  8  1  0.29075900  0.16670000  0.10329700  1
  C  9  1  0.17222400  0.28635700  0.10022000  1
  C  10  1  0.12746200  0.30070900  0.10491300  1
  C  11  1  0.09537900  0.27122600  0.11793600  1
  C  12  1  0.10934100  0.22694100  0.12532200  1
  C  13  1  0.13505600  0.13265500  0.11140400  1
  C  14  1  0.10256000  0.10539600  0.12652400  1
  C  15  1  0.12975500  0.13334000  0.17793900  1
  C  16  1  0.16235500  0.16120200  0.16349200  1
  C  17  1  0.12586100  0.13371100  0.21012200  1
  C  18  1  0.15341300  0.16179000  0.22805300  1
  C  19  1  0.18611300  0.19004400  0.21439500  1
  C  20  1  0.19038500  0.18857700  0.18224500  1
  C  21  1  0.13623000  0.13186200  0.07897200  1
  C  22  1  0.10527800  0.10636900  0.06133900  1
  C  23  1  0.07308600  0.07998100  0.07717600  1
  C  24  1  0.07205300  0.07911300  0.10920400  1
  C  37  1  0.16654700  0.16350000  0.12905600  1
  C  38  1  0.09869000  0.10396700  0.16028700  1
  C  41  1  0.23340100  0.22836300  0.10189600  1
  C  44  1  0.84642600  0.78911600  0.12037900  1
  C  45  1  0.81461900  0.75861400  0.10767400  1
  C  46  1  0.75452000  0.81953400  0.10904800  1
  C  47  1  0.78606000  0.85065800  0.12141600  1
  C  48  1  0.77158100  0.89554200  0.12708900  1
  C  49  1  0.72720700  0.91041300  0.12058400  1
  C  50  1  0.69627500  0.87854600  0.10887000  1
  C  51  1  0.70970700  0.83376000  0.10327800  1
  C  52  1  0.82826300  0.71412600  0.10020300  1
  C  53  1  0.87302200  0.69977500  0.10491300  1
  C  54  1  0.90509200  0.72925000  0.11795700  1
  C  55  1  0.89112700  0.77353900  0.12533100  1
  C  56  1  0.86540600  0.86782400  0.11139500  1
  C  57  1  0.89789900  0.89508600  0.12651600  1
  C  58  1  0.87070100  0.86714800  0.17793100  1
  C  59  1  0.83810000  0.83928500  0.16348300  1
  C  60  1  0.87459800  0.86677300  0.21011300  1
  C  61  1  0.84703900  0.83870000  0.22804500  1
  C  62  1  0.81434300  0.81044500  0.21438600  1
  C  63  1  0.81007500  0.81190800  0.18223600  1
  C  64  1  0.86423300  0.86861500  0.07896300  1
  C  65  1  0.89518100  0.89410900  0.06132900  1
  C  66  1  0.92737300  0.92049900  0.07716600  1
  C  67  1  0.92841800  0.92135100  0.10919400  1
  C  80  1  0.83391700  0.83698000  0.12904700  1
  C  81  1  0.90176400  0.89652200  0.16027800  1
  C  84  1  0.76707900  0.77211000  0.10187200  1
  C  87  1  0.84643700  0.21139400  0.88009100  1
  C  88  1  0.81461000  0.24189500  0.89277900  1
  C  89  1  0.75453100  0.18095500  0.89140800  1
  C  90  1  0.78608800  0.14983400  0.87905600  1
  C  91  1  0.77162900  0.10493900  0.87340400  1
  C  92  1  0.72725200  0.09006400  0.87989500  1
  C  93  1  0.69630400  0.12193000  0.89159300  1
  C  94  1  0.70972200  0.16672200  0.89717600  1
  C  95  1  0.82824100  0.28638900  0.90024400  1
  C  96  1  0.87299600  0.30075200  0.89554300  1
  C  97  1  0.90508700  0.27127100  0.88252600  1
  C  98  1  0.89113500  0.22698300  0.87514100  1
  C  99  1  0.86543700  0.13268800  0.88908000  1
  C  100  1  0.89793300  0.10542800  0.87396200  1
  C  101  1  0.87073200  0.13335400  0.82254400  1
  C  102  1  0.83812800  0.16121400  0.83699100  1
  C  103  1  0.87462400  0.13371600  0.79036300  1
  C  104  1  0.84705800  0.16177500  0.77242800  1
  C  105  1  0.81436900  0.19004300  0.78608400  1
  C  106  1  0.81009500  0.18858200  0.81823300  1
  C  107  1  0.86426500  0.13189900  0.92151000  1
  C  108  1  0.89521400  0.10640900  0.93914600  1
  C  109  1  0.92741600  0.08002600  0.92331000  1
  C  110  1  0.92844600  0.07915200  0.89128200  1
  C  123  1  0.83394100  0.16352400  0.87142600  1
  C  124  1  0.90180500  0.10399200  0.84020000  1
  C  127  1  0.76707400  0.22838900  0.89857000  1
  C  130  1  0.15404900  0.78906600  0.88008600  1
  C  131  1  0.18587200  0.75857000  0.89278300  1
  C  132  1  0.24594900  0.81951400  0.89141000  1
  C  133  1  0.21439700  0.85062500  0.87904200  1
  C  134  1  0.22885700  0.89551200  0.87336800  1
  C  135  1  0.27322000  0.91041000  0.87988500  1
  C  136  1  0.30415600  0.87855900  0.89161600  1
  C  137  1  0.29075100  0.83376000  0.89719000  1
  C  138  1  0.17224400  0.71407500  0.90024900  1
  C  139  1  0.12748600  0.69971400  0.89555400  1
  C  140  1  0.09539900  0.72918900  0.88253100  1
  C  141  1  0.10935100  0.77347800  0.87514300  1
  C  142  1  0.13504800  0.86777000  0.88906700  1
  C  143  1  0.10254600  0.89502200  0.87394400  1
  C  144  1  0.12974700  0.86708400  0.82253000  1
  C  145  1  0.16235300  0.83922700  0.83697900  1
  C  146  1  0.12585200  0.86670900  0.79034700  1
  C  147  1  0.15341600  0.83863900  0.77241900  1
  C  148  1  0.18611900  0.81039100  0.78607700  1
  C  149  1  0.19038700  0.81185700  0.81822600  1
  C  150  1  0.13622200  0.86856700  0.92149600  1
  C  151  1  0.10527200  0.89406200  0.93913000  1
  C  152  1  0.07307600  0.92044500  0.92329200  1
  C  153  1  0.07202800  0.92129400  0.89126400  1
  C  166  1  0.16654400  0.83693000  0.87141500  1
  C  167  1  0.09867800  0.89645100  0.84018200  1
  C  170  1  0.23340700  0.77208300  0.89858100  1
  C  173  1  0.21535000  0.15849700  0.87560400  1
  C  174  1  0.24427000  0.18784200  0.89215500  1
  C  175  1  0.18308800  0.24766700  0.89338000  1
  C  176  1  0.15381100  0.21907200  0.87649500  1
  C  177  1  0.10933800  0.23436800  0.87026600  1
  C  178  1  0.09264200  0.27564800  0.88188400  1
  C  179  1  0.12202500  0.30310000  0.89914100  1
  C  180  1  0.16702500  0.28982300  0.90407500  1
  C  181  1  0.28743100  0.17245700  0.90136600  1
  C  182  1  0.30142000  0.12796000  0.89536700  1
  C  183  1  0.27348200  0.09830200  0.87866600  1
  C  184  1  0.23124800  0.11452200  0.86839700  1
  C  185  1  0.13653900  0.13950200  0.88328700  1
  C  186  1  0.10876200  0.10875500  0.86697100  1
  C  187  1  0.13758400  0.13964200  0.81673700  1
  C  188  1  0.16585500  0.17069400  0.83236000  1
  C  189  1  0.13805900  0.13825500  0.78448300  1
  C  190  1  0.16665100  0.16672500  0.76765300  1
  C  191  1  0.19534000  0.19791900  0.78249500  1
  C  192  1  0.19381500  0.19976700  0.81476300  1
  C  193  1  0.13501700  0.13851600  0.91574000  1
  C  194  1  0.10775500  0.10755500  0.93204100  1
  C  195  1  0.08126900  0.07675500  0.91514600  1
  C  196  1  0.08140800  0.07769600  0.88309700  1
  C  209  1  0.16781600  0.17208400  0.86686900  1
  C  210  1  0.10775100  0.10749300  0.83312500  1
  C  213  1  0.22984500  0.23389000  0.90140700  1
  C  216  1  0.78513100  0.84196800  0.87559500  1
  C  217  1  0.75621700  0.81262800  0.89215700  1
  C  218  1  0.81740800  0.75280900  0.89338900  1
  C  219  1  0.84667000  0.78139500  0.87648600  1
  C  220  1  0.89114500  0.76609800  0.87025900  1
  C  221  1  0.90785800  0.72482000  0.88187300  1
  C  222  1  0.87848000  0.69739600  0.89915500  1
  C  223  1  0.83346900  0.71065200  0.90407500  1
  C  224  1  0.71305000  0.82799900  0.90135900  1
  C  225  1  0.69907500  0.87250700  0.89538100  1
  C  226  1  0.72699200  0.90215100  0.87865900  1
  C  227  1  0.76923000  0.88593900  0.86838300  1
  C  228  1  0.86394000  0.86096800  0.88327500  1
  C  229  1  0.89172300  0.89171000  0.86696200  1
  C  230  1  0.86289900  0.86081900  0.81672800  1
  C  231  1  0.83462700  0.82977300  0.83235100  1
  C  232  1  0.86242900  0.86219800  0.78447400  1
  C  233  1  0.83380500  0.83375700  0.76764600  1
  C  234  1  0.80513100  0.80254800  0.78249100  1
  C  235  1  0.80666500  0.80070000  0.81475600  1
  C  236  1  0.86546100  0.86196100  0.91572800  1
  C  237  1  0.89271700  0.89292700  0.93203200  1
  C  238  1  0.91918100  0.92374300  0.91513400  1
  C  239  1  0.91907900  0.92277000  0.88308600  1
  C  252  1  0.83266700  0.82838400  0.86686000  1
  C  253  1  0.89274300  0.89296000  0.83311400  1
  C  256  1  0.77065600  0.76658800  0.90142300  1
  C  259  1  0.21538400  0.84198100  0.12486100  1
  C  260  1  0.24429300  0.81264100  0.10830000  1
  C  261  1  0.18310400  0.75282200  0.10707900  1
  C  262  1  0.15384400  0.78140500  0.12398400  1
  C  263  1  0.10938200  0.76609800  0.13024100  1
  C  264  1  0.09266900  0.72482400  0.11861500  1
  C  265  1  0.12203200  0.69740600  0.10132000  1
  C  266  1  0.16703200  0.71067200  0.09638000  1
  C  267  1  0.28745900  0.82801200  0.09909500  1
  C  268  1  0.30146100  0.87250400  0.10510300  1
  C  269  1  0.27355500  0.90215100  0.12183100  1
  C  270  1  0.23129300  0.88595200  0.13207300  1
  C  271  1  0.13656900  0.86097800  0.11718400  1
  C  272  1  0.10880000  0.89173400  0.13349600  1
  C  273  1  0.13762900  0.86086000  0.18373300  1
  C  274  1  0.16589600  0.82980300  0.16811100  1
  C  275  1  0.13811100  0.86225500  0.21598600  1
  C  276  1  0.16672400  0.83380700  0.23281600  1
  C  277  1  0.19538700  0.80258500  0.21797500  1
  C  278  1  0.19386000  0.80073300  0.18570900  1
  C  279  1  0.13503600  0.86195100  0.08473000  1
  C  280  1  0.10778200  0.89291700  0.06842600  1
  C  281  1  0.08129900  0.92372300  0.08532100  1
  C  282  1  0.08144300  0.92278700  0.11737100  1
  C  295  1  0.16785000  0.82840100  0.13360200  1
  C  296  1  0.10779100  0.89300100  0.16734200  1
  C  299  1  0.22985900  0.76659500  0.09904800  1
  C  302  1  0.78513700  0.15850800  0.12487700  1
  C  303  1  0.75621300  0.18785100  0.10832500  1
  C  304  1  0.81739300  0.24767700  0.10709700  1
  C  305  1  0.84666900  0.21908900  0.12398700  1
  C  306  1  0.89114000  0.23438400  0.13021500  1
  C  307  1  0.90783600  0.27566700  0.11859700  1
  C  308  1  0.87845500  0.30311400  0.10133800  1
  C  309  1  0.83346000  0.28982600  0.09639300  1
  C  310  1  0.71302900  0.17248800  0.09914500  1
  C  311  1  0.69906300  0.12797300  0.10511300  1
  C  312  1  0.72699800  0.09831600  0.12181700  1
  C  313  1  0.76923900  0.11452700  0.13207200  1
  C  314  1  0.86394900  0.13951700  0.11719700  1
  C  315  1  0.89172200  0.10876700  0.13351100  1
  C  316  1  0.86289900  0.13965300  0.18374500  1
  C  317  1  0.83462700  0.17070500  0.16812200  1
  C  318  1  0.86243300  0.13827600  0.21600000  1
  C  319  1  0.83381000  0.16672000  0.23282800  1
  C  320  1  0.80513200  0.19792300  0.21798300  1
  C  321  1  0.80666600  0.19977800  0.18571800  1
  C  322  1  0.86548600  0.13854600  0.08474400  1
  C  323  1  0.89273100  0.10757200  0.06844100  1
  C  324  1  0.91921300  0.07676700  0.08533700  1
  C  325  1  0.91907500  0.07770700  0.11738700  1
  C  338  1  0.83267000  0.17209700  0.13361300  1
  C  339  1  0.89272900  0.10750100  0.16735700  1
  C  342  1  0.77063800  0.23390000  0.09907400  1
  C  345  1  0.65501600  0.71123000  0.61918800  1
  C  346  1  0.68659600  0.74133400  0.60582100  1
  C  347  1  0.74670600  0.68039600  0.60750000  1
  C  348  1  0.71533800  0.64960000  0.62042400  1
  C  349  1  0.72971600  0.60470000  0.62617800  1
  C  350  1  0.77380900  0.58945000  0.61917200  1
  C  351  1  0.80465300  0.62109800  0.60706900  1
  C  352  1  0.79134900  0.66591000  0.60143300  1
  C  353  1  0.67274200  0.78555100  0.59780300  1
  C  354  1  0.62803100  0.79999700  0.60264400  1
  C  355  1  0.59616400  0.77092400  0.61633900  1
  C  356  1  0.61035600  0.72690200  0.62422500  1
  C  357  1  0.63584700  0.63250900  0.61100300  1
  C  358  1  0.60318500  0.60588600  0.62645900  1
  C  359  1  0.63067800  0.63513100  0.67749800  1
  C  360  1  0.66380200  0.66201400  0.66271500  1
  C  361  1  0.62636600  0.63692200  0.70964000  1
  C  362  1  0.65427100  0.66512700  0.72722800  1
  C  363  1  0.68825300  0.69139800  0.71325200  1
  C  364  1  0.69246600  0.68930000  0.68112800  1
  C  365  1  0.63668100  0.63122100  0.57858200  1
  C  366  1  0.60510100  0.60606800  0.56125200  1
  C  367  1  0.57291600  0.58009300  0.57739800  1
  C  368  1  0.57229800  0.57959000  0.60944700  1
  C  381  1  0.66762700  0.66355900  0.62824300  1
  C  382  1  0.59935700  0.60548000  0.66023700  1
  C  385  1  0.73405800  0.72765500  0.59987700  1
  C  388  1  0.34543700  0.28926900  0.61920400  1
  C  389  1  0.31387400  0.25915500  0.60582800  1
  C  390  1  0.25374000  0.32007500  0.60750000  1
  C  391  1  0.28509600  0.35088100  0.62042600  1
  C  392  1  0.27069900  0.39577100  0.62619200  1
  C  393  1  0.22661000  0.41100700  0.61916500  1
  C  394  1  0.19576700  0.37934900  0.60707800  1
  C  395  1  0.20909400  0.33454500  0.60143300  1
  C  396  1  0.32774700  0.21494900  0.59780500  1
  C  397  1  0.37246600  0.20052000  0.60264800  1
  C  398  1  0.40431300  0.22959200  0.61636400  1
  C  399  1  0.39010100  0.27361000  0.62424500  1
  C  400  1  0.36458600  0.36799200  0.61100900  1
  C  401  1  0.39723700  0.39462200  0.62646400  1
  C  402  1  0.36975300  0.36538000  0.67750500  1
  C  403  1  0.33663000  0.33849300  0.66272200  1
  C  404  1  0.37406800  0.36358600  0.70964700  1
  C  405  1  0.34617100  0.33537500  0.72723500  1
  C  406  1  0.31219500  0.30909600  0.71325900  1
  C  407  1  0.30795800  0.31121600  0.68113700  1
  C  408  1  0.36375800  0.36926600  0.57858900  1
  C  409  1  0.39532800  0.39443000  0.56125700  1
  C  410  1  0.42750600  0.42041400  0.57740300  1
  C  411  1  0.42814200  0.42089800  0.60945100  1
  C  424  1  0.33281000  0.33693900  0.62825200  1
  C  425  1  0.40106600  0.39503500  0.66024400  1
  C  428  1  0.26640800  0.27281900  0.59987700  1
  C  431  1  0.34545800  0.71123300  0.38127700  1
  C  432  1  0.31387700  0.74134400  0.39463400  1
  C  433  1  0.25376000  0.68041000  0.39295500  1
  C  434  1  0.28513300  0.64960700  0.38004400  1
  C  435  1  0.27075500  0.60470600  0.37429800  1
  C  436  1  0.22666200  0.58946700  0.38130700  1
  C  437  1  0.19580200  0.62112200  0.39337600  1
  C  438  1  0.20911800  0.66592700  0.39902000  1
  C  439  1  0.32773100  0.78555800  0.40266000  1
  C  440  1  0.37244700  0.80000000  0.39782800  1
  C  441  1  0.40431400  0.77092400  0.38413500  1
  C  442  1  0.39011900  0.72690900  0.37624000  1
  C  443  1  0.36462400  0.63251200  0.38946500  1
  C  444  1  0.39727900  0.60587900  0.37401000  1
  C  445  1  0.36979700  0.63512800  0.32297100  1
  C  446  1  0.33667300  0.66201400  0.33775200  1
  C  447  1  0.37411100  0.63691800  0.29082900  1
  C  448  1  0.34622700  0.66514700  0.27324200  1
  C  449  1  0.31223700  0.69140900  0.28721500  1
  C  450  1  0.30800400  0.68929700  0.31933700  1
  C  451  1  0.36379000  0.63122800  0.42188500  1
  C  452  1  0.39537000  0.60607100  0.43921500  1
  C  453  1  0.42755500  0.58009300  0.42306900  1
  C  454  1  0.42817000  0.57958300  0.39102000  1
  C  467  1  0.33284600  0.66356200  0.37222400  1
  C  468  1  0.40111000  0.60547300  0.34023000  1
  C  471  1  0.26641000  0.72767200  0.40057200  1
  C  474  1  0.65501700  0.28923200  0.38129100  1
  C  475  1  0.68659800  0.25912700  0.39465700  1
  C  476  1  0.74671000  0.32006700  0.39297100  1
  C  477  1  0.71534300  0.35085700  0.38004600  1
  C  478  1  0.72972000  0.39575400  0.37427300  1
  C  479  1  0.77380000  0.41101400  0.38130700  1
  C  480  1  0.80465000  0.37937300  0.39340800  1
  C  481  1  0.79134700  0.33455900  0.39904300  1
  C  482  1  0.67274400  0.21491600  0.40268500  1
  C  483  1  0.62802900  0.20047100  0.39785100  1
  C  484  1  0.59616100  0.22954300  0.38415600  1
  C  485  1  0.61035700  0.27356100  0.37626100  1
  C  486  1  0.63585100  0.36795500  0.38947100  1
  C  487  1  0.60318600  0.39457200  0.37401700  1
  C  488  1  0.63066700  0.36532300  0.32297800  1
  C  489  1  0.66379500  0.33844300  0.33775900  1
  C  490  1  0.62634900  0.36352500  0.29083600  1
  C  491  1  0.65425600  0.33532300  0.27324800  1
  C  492  1  0.68823900  0.30905000  0.28722200  1
  C  493  1  0.69245600  0.31114900  0.31934800  1
  C  494  1  0.63669000  0.36924600  0.42189200  1
  C  495  1  0.60511300  0.39440300  0.43922400  1
  C  496  1  0.57293100  0.42038100  0.42307600  1
  C  497  1  0.57228900  0.42086000  0.39102900  1
  C  510  1  0.66762700  0.33690100  0.37223100  1
  C  511  1  0.59935400  0.39497700  0.34023700  1
  C  514  1  0.73406300  0.27280600  0.40059700  1
  C  517  1  0.71523500  0.65953100  0.37692100  1
  C  518  1  0.74363500  0.68873600  0.39398100  1
  C  519  1  0.68254900  0.74867600  0.39434200  1
  C  520  1  0.65374300  0.72021800  0.37697600  1
  C  521  1  0.60928900  0.73540000  0.37050600  1
  C  522  1  0.59209300  0.77626600  0.38249300  1
  C  523  1  0.62113200  0.80369000  0.40003500  1
  C  524  1  0.66614800  0.79064700  0.40512400  1
  C  525  1  0.78636000  0.67315500  0.40394100  1
  C  526  1  0.80041000  0.62861600  0.39813900  1
  C  527  1  0.77302600  0.59909400  0.38090900  1
  C  528  1  0.73124100  0.61549900  0.36996500  1
  C  529  1  0.63630100  0.64062500  0.38353000  1
  C  530  1  0.60913300  0.60970400  0.36691300  1
  C  531  1  0.63988500  0.64005800  0.31705300  1
  C  532  1  0.66718100  0.67171900  0.33295000  1
  C  533  1  0.64220600  0.63757400  0.28486500  1
  C  534  1  0.67177200  0.66543700  0.26836400  1
  C  535  1  0.69893300  0.69765300  0.28347100  1
  C  536  1  0.69570000  0.70070100  0.31563400  1
  C  537  1  0.63397300  0.63958800  0.41595700  1
  C  538  1  0.60656900  0.60840000  0.43196000  1
  C  539  1  0.58057400  0.57755200  0.41476000  1
  C  540  1  0.58146300  0.57855900  0.38271600  1
  C  553  1  0.66801600  0.67322900  0.36749100  1
  C  554  1  0.60942300  0.60808900  0.33307800  1
  C  557  1  0.72904200  0.73482600  0.40299800  1
  C  560  1  0.28523900  0.34094300  0.37692100  1
  C  561  1  0.25684500  0.31174200  0.39399200  1
  C  562  1  0.31793500  0.25180800  0.39435800  1
  C  563  1  0.34672500  0.28025500  0.37697600  1
  C  564  1  0.39118300  0.26507200  0.37050800  1
  C  565  1  0.40839900  0.22420700  0.38249000  1
  C  566  1  0.37936000  0.19681500  0.40005800  1
  C  567  1  0.33433200  0.20983100  0.40512900  1
  C  568  1  0.21411100  0.32731300  0.40394300  1
  C  569  1  0.20007700  0.37186100  0.39815900  1
  C  570  1  0.22744300  0.40137000  0.38090900  1
  C  571  1  0.26923000  0.38496900  0.36995800  1
  C  572  1  0.36417500  0.35984900  0.38353200  1
  C  573  1  0.39134200  0.39077000  0.36691500  1
  C  574  1  0.36059600  0.36041300  0.31705500  1
  C  575  1  0.33329700  0.32875500  0.33295200  1
  C  576  1  0.35828700  0.36288700  0.28486500  1
  C  577  1  0.32872700  0.33501400  0.26836200  1
  C  578  1  0.30154600  0.30282100  0.28347400  1
  C  579  1  0.30476400  0.29978700  0.31563600  1
  C  580  1  0.36649600  0.36089000  0.41596000  1
  C  581  1  0.39388700  0.39209100  0.43196200  1
  C  582  1  0.41986100  0.42295500  0.41476500  1
  C  583  1  0.41900900  0.42191500  0.38272100  1
  C  596  1  0.33245900  0.32724500  0.36749300  1
  C  597  1  0.39105800  0.39238200  0.33308000  1
  C  600  1  0.27145000  0.26566300  0.40302300  1
  C  603  1  0.71525700  0.34095700  0.62354400  1
  C  604  1  0.74364800  0.31175000  0.60647700  1
  C  605  1  0.68255800  0.25181800  0.60611800  1
  C  606  1  0.65377300  0.28026400  0.62350800  1
  C  607  1  0.60932500  0.26506600  0.63000900  1
  C  608  1  0.59211200  0.22420900  0.61801100  1
  C  609  1  0.62113100  0.19682300  0.60042800  1
  C  610  1  0.66615000  0.20985200  0.59533600  1
  C  611  1  0.78637500  0.32732200  0.59651700  1
  C  612  1  0.80043600  0.37185500  0.60232600  1
  C  613  1  0.77308300  0.40137000  0.61958100  1
  C  614  1  0.73127400  0.38498200  0.63050500  1
  C  615  1  0.63631700  0.35985600  0.61694400  1
  C  616  1  0.60916600  0.39079100  0.63356100  1
  C  617  1  0.63991900  0.36044000  0.68342100  1
  C  618  1  0.66721500  0.32878000  0.66752400  1
  C  619  1  0.64224400  0.36292400  0.71560900  1
  C  620  1  0.67179100  0.33504300  0.73211200  1
  C  621  1  0.69896500  0.30284400  0.71700300  1
  C  622  1  0.69576100  0.29982600  0.68483800  1
  C  623  1  0.63397800  0.36087900  0.58451700  1
  C  624  1  0.60658800  0.39208100  0.56851400  1
  C  625  1  0.58060000  0.42293500  0.58571200  1
  C  626  1  0.58149500  0.42193500  0.61775800  1
  C  639  1  0.66804200  0.32725900  0.63298300  1
  C  640  1  0.60945700  0.39240900  0.66739600  1
  C  643  1  0.72904700  0.26566500  0.59745800  1
  C  646  1  0.28525200  0.65951400  0.62354900  1
  C  647  1  0.25685000  0.68872200  0.60649100  1
  C  648  1  0.31794400  0.74864900  0.60611800  1
  C  649  1  0.34674500  0.72019800  0.62349400  1
  C  650  1  0.39120300  0.73537300  0.62996100  1
  C  651  1  0.40839800  0.77624200  0.61797700  1
  C  652  1  0.37936600  0.80366000  0.60042300  1
  C  653  1  0.33435500  0.79061000  0.59532400  1
  C  654  1  0.21409900  0.67316900  0.59655800  1
  C  655  1  0.20006700  0.62861600  0.60233500  1
  C  656  1  0.22744200  0.59909000  0.61956700  1
  C  657  1  0.26924000  0.61548200  0.63049600  1
  C  658  1  0.36418700  0.64060500  0.61693700  1
  C  659  1  0.39134800  0.60968000  0.63355400  1
  C  660  1  0.36060900  0.64003700  0.68341500  1
  C  661  1  0.33333333  0.67169500  0.66752000  1
  C  662  1  0.35830500  0.63756400  0.71560500  1
  C  663  1  0.32872600  0.66541400  0.73210500  1
  C  664  1  0.30156100  0.69762600  0.71699800  1
  C  665  1  0.30478200  0.70066700  0.68483600  1
  C  666  1  0.36651200  0.63957100  0.58451000  1
  C  667  1  0.39391200  0.60838300  0.56850700  1
  C  668  1  0.41990400  0.57752900  0.58570200  1
  C  669  1  0.41901500  0.57853200  0.61774800  1
  C  682  1  0.33247200  0.67320900  0.63297900  1
  C  683  1  0.39106400  0.60806200  0.66738900  1
  C  686  1  0.27145100  0.73480500  0.59747000  1
  C  689  1  0.22246000  0.26493200  0.22394400  1
  C  690  1  0.21379100  0.21940000  0.23232000  1
  C  691  1  0.23457000  0.20431400  0.25959000  1
  C  693  1  0.27146100  0.27491500  0.26672000  1
  C  697  1  0.16054000  0.30517600  0.20444000  1
  C  701  1  0.77799800  0.73555500  0.22393500  1
  C  702  1  0.78666200  0.78108800  0.23231100  1
  C  703  1  0.76586500  0.79617900  0.25957200  1
  C  705  1  0.72900600  0.72556400  0.26671500  1
  C  709  1  0.83993600  0.69531500  0.20445100  1
  C  713  1  0.77803800  0.26493800  0.77653300  1
  C  714  1  0.78669800  0.21940400  0.76815600  1
  C  715  1  0.76591700  0.20432100  0.74088700  1
  C  717  1  0.72904200  0.27493000  0.73375700  1
  C  721  1  0.83996900  0.30517000  0.79603500  1
  C  725  1  0.22248200  0.73551200  0.77653100  1
  C  726  1  0.21380500  0.78104100  0.76815400  1
  C  727  1  0.23460500  0.79613800  0.74089300  1
  C  729  1  0.27148000  0.72553300  0.73375400  1
  C  733  1  0.16055200  0.69525700  0.79601200  1
  C  737  1  0.27133700  0.23264900  0.77362700  1
  C  738  1  0.22540200  0.22597000  0.76538500  1
  C  739  1  0.21086300  0.24805700  0.73846300  1
  C  741  1  0.28318500  0.28117800  0.73083700  1
  C  745  1  0.30974900  0.16886100  0.79202800  1
  C  749  1  0.72913700  0.76781800  0.77362500  1
  C  750  1  0.77507400  0.77448500  0.76538500  1
  C  751  1  0.78960400  0.75240300  0.73846000  1
  C  753  1  0.71727200  0.71930200  0.73083300  1
  C  757  1  0.69073100  0.83161100  0.79202800  1
  C  761  1  0.27137800  0.76784500  0.22684400  1
  C  762  1  0.22544600  0.77453300  0.23508500  1
  C  763  1  0.21090500  0.75245100  0.26200900  1
  C  765  1  0.28322400  0.71931900  0.26963400  1
  C  769  1  0.30979600  0.83162800  0.20843700  1
  C  773  1  0.72913100  0.23264100  0.22684700  1
  C  774  1  0.77506500  0.22597500  0.23508900  1
  C  775  1  0.78959200  0.24805300  0.26201800  1
  C  777  1  0.71726100  0.28114800  0.26964400  1
  C  781  1  0.69073800  0.16885000  0.20843200  1
  C  785  1  0.02377000  0.27247200  0.14748100  1
  C  786  1  0.04889400  0.28281300  0.12079600  1
  C  787  1  0.02408400  0.29679100  0.09486200  1
  C  789  1  0.95453400  0.28510800  0.12076800  1
  C  793  1  0.02851700  0.22295500  0.19053600  1
  C  797  1  0.97673100  0.72804400  0.14750400  1
  C  798  1  0.95157100  0.71767000  0.12084200  1
  C  799  1  0.97640000  0.70387400  0.09486700  1
  C  801  1  0.04595400  0.71545700  0.12077000  1
  C  805  1  0.97196100  0.77753600  0.19056700  1
  C  809  1  0.97671200  0.27249300  0.85299100  1
  C  810  1  0.95155500  0.28289800  0.87965200  1
  C  811  1  0.97639100  0.29680100  0.90559700  1
  C  813  1  0.04594300  0.28509100  0.87971200  1
  C  817  1  0.97196000  0.22296900  0.80993800  1
  C  821  1  0.02376500  0.72795300  0.85298200  1
  C  822  1  0.04893300  0.71756900  0.87964300  1
  C  823  1  0.02408500  0.70382000  0.90562400  1
  C  825  1  0.95457200  0.71540600  0.87971600  1
  C  829  1  0.02855900  0.77741500  0.80989900  1
  C  833  1  0.30152000  0.01762000  0.09884400  1
  C  834  1  0.28405200  0.04327800  0.12353700  1
  C  835  1  0.27000200  0.01864300  0.14956000  1
  C  837  1  0.28372200  0.94871100  0.12459000  1
  C  841  1  0.35937000  0.03170800  0.06332600  1
  C  845  1  0.30138900  0.98283600  0.90169900  1
  C  846  1  0.28397800  0.95719200  0.87697300  1
  C  847  1  0.26993100  0.98184900  0.85096000  1
  C  849  1  0.28367000  0.05174200  0.87593300  1
  C  853  1  0.35924700  0.96874200  0.93721100  1
  C  857  1  0.69893500  0.98283600  0.09885800  1
  C  858  1  0.71635400  0.95716200  0.12356400  1
  C  859  1  0.73047200  0.98183200  0.14955300  1
  C  861  1  0.71678300  0.05177100  0.12456900  1
  C  865  1  0.64106200  0.96875500  0.06335500  1
  C  869  1  0.69906800  0.01761900  0.90167400  1
  C  870  1  0.71640900  0.04330900  0.87694500  1
  C  871  1  0.73055300  0.01864300  0.85095800  1
  C  873  1  0.71682400  0.94871400  0.87590600  1
  C  877  1  0.64117900  0.03171300  0.93716100  1
  C  881  1  0.11231700  0.14771900  0.01155800  1
  C  882  1  0.10597000  0.10741700  0.02865400  1
  C  883  1  0.09941000  0.06756700  0.01131300  1
  C  885  1  0.10705500  0.10741000  0.96445100  1
  C  889  1  0.07672500  0.21347200  0.02937400  1
  C  893  1  0.88816600  0.14774500  0.98892800  1
  C  894  1  0.89450500  0.10744500  0.97182900  1
  C  895  1  0.90105700  0.06759100  0.98916800  1
  C  897  1  0.89343100  0.10742800  0.03603200  1
  C  901  1  0.92377700  0.21349600  0.97112800  1
  C  905  1  0.11233000  0.85273000  0.98891700  1
  C  906  1  0.10597600  0.89302800  0.97181300  1
  C  907  1  0.09941700  0.93288400  0.98915000  1
  C  909  1  0.10707700  0.89305500  0.03601700  1
  C  913  1  0.07674100  0.78696700  0.97111900  1
  C  917  1  0.88813900  0.85276700  0.01154700  1
  C  918  1  0.89447500  0.89306900  0.02864500  1
  C  919  1  0.90103000  0.93292100  0.01130300  1
  C  921  1  0.89341000  0.89307500  0.96444200  1
  C  925  1  0.92374400  0.78701500  0.02935000  1
  C  929  1  0.52473200  0.77231900  0.64625400  1
  C  930  1  0.54967500  0.78255800  0.61946000  1
  C  931  1  0.52459200  0.79659400  0.59365200  1
  C  933  1  0.45524500  0.78519300  0.61989400  1
  C  937  1  0.52920900  0.72355300  0.68974300  1
  C  941  1  0.47576300  0.22823100  0.64626100  1
  C  942  1  0.45081200  0.21800400  0.61946600  1
  C  943  1  0.47591100  0.20405200  0.59364500  1
  C  945  1  0.54524900  0.21534500  0.61990500  1
  C  949  1  0.47126600  0.27697300  0.68975600  1
  C  953  1  0.47574600  0.77231600  0.35424500  1
  C  954  1  0.45080300  0.78256100  0.38104400  1
  C  955  1  0.47590600  0.79661400  0.40683500  1
  C  957  1  0.54524600  0.78520700  0.38058700  1
  C  961  1  0.47126500  0.72355000  0.31075700  1
  C  965  1  0.52472500  0.22814200  0.35425000  1
  C  966  1  0.54967600  0.21790900  0.38104900  1
  C  967  1  0.52455700  0.20400400  0.40687200  1
  C  969  1  0.45525900  0.21530000  0.38060300  1
  C  973  1  0.52925300  0.27684800  0.31073400  1
  C  977  1  0.80140200  0.51698700  0.59695300  1
  C  978  1  0.78429400  0.54253900  0.62182400  1
  C  979  1  0.77031200  0.51770300  0.64777700  1
  C  981  1  0.78333500  0.44792300  0.62242000  1
  C  985  1  0.85919600  0.53072300  0.56132500  1
  C  989  1  0.80128800  0.48347700  0.40357800  1
  C  990  1  0.78423800  0.45793800  0.37867500  1
  C  991  1  0.77026200  0.48279800  0.35273100  1
  C  993  1  0.78329500  0.55254100  0.37809500  1
  C  997  1  0.85909700  0.46973100  0.43919500  1
  C  1001  1  0.19901800  0.48346400  0.59697600  1
  C  1002  1  0.21607100  0.45789800  0.62186300  1
  C  1003  1  0.23011800  0.48277400  0.64778200  1
  C  1005  1  0.21713700  0.55255800  0.62240400  1
  C  1009  1  0.14120900  0.46972500  0.56136200  1
  C  1013  1  0.19915700  0.51699000  0.40355000  1
  C  1014  1  0.21613700  0.54256600  0.37864100  1
  C  1015  1  0.23021400  0.51769600  0.35272400  1
  C  1017  1  0.21718900  0.44792300  0.37807000  1
  C  1021  1  0.14132300  0.53073900  0.43914400  1
  C  1025  1  0.61167600  0.64773500  0.51160900  1
  C  1026  1  0.60510400  0.60734500  0.52857100  1
  C  1027  1  0.59774100  0.56776000  0.51110600  1
  C  1029  1  0.60555600  0.60793000  0.46436700  1
  C  1033  1  0.57723700  0.71384900  0.52980400  1
  C  1037  1  0.38879200  0.64772500  0.48886000  1
  C  1038  1  0.39535000  0.60733900  0.47189400  1
  C  1039  1  0.40270300  0.56774300  0.48935900  1
  C  1041  1  0.39491500  0.60791000  0.53609800  1
  C  1045  1  0.42326400  0.71383200  0.47067900  1
  C  1049  1  0.61169200  0.35274300  0.48886700  1
  C  1050  1  0.60512700  0.39313200  0.47190300  1
  C  1051  1  0.59776700  0.43272100  0.48936800  1
  C  1053  1  0.60557700  0.39255400  0.53610700  1
  C  1057  1  0.57725000  0.28662600  0.47067900  1
  C  1061  1  0.38875200  0.35276600  0.51161300  1
  C  1062  1  0.39530700  0.39315900  0.52857800  1
  C  1063  1  0.40266000  0.43274800  0.51111100  1
  C  1065  1  0.39488400  0.39256800  0.46437100  1
  C  1069  1  0.42322500  0.28666200  0.52980000  1
  N  692  1  0.26236600  0.23190700  0.27568100  1
  N  694  1  0.25114100  0.29041200  0.24092800  1
  N  704  1  0.73809300  0.76857500  0.27567500  1
  N  706  1  0.74932700  0.71007100  0.24092400  1
  N  716  1  0.73812800  0.23192000  0.72479500  1
  N  718  1  0.74936700  0.29042500  0.75954800  1
  N  728  1  0.26238600  0.76854200  0.72479500  1
  N  730  1  0.25116100  0.71003400  0.75954600  1
  N  740  1  0.23959300  0.27441900  0.72225500  1
  N  742  1  0.29806400  0.26010400  0.75652100  1
  N  752  1  0.76086500  0.72605700  0.72224500  1
  N  754  1  0.70240200  0.74037400  0.75651700  1
  N  764  1  0.23963300  0.72608400  0.27821900  1
  N  766  1  0.29810200  0.74039100  0.24395100  1
  N  776  1  0.76085000  0.27439300  0.27823300  1
  N  778  1  0.70239300  0.26008200  0.24395500  1
  N  788  1  0.97827800  0.29631800  0.09532800  1
  N  790  1  0.97790000  0.27359400  0.14630100  1
  N  800  1  0.02220400  0.70428600  0.09532600  1
  N  802  1  0.02260000  0.72694200  0.14631400  1
  N  812  1  0.02219400  0.29630400  0.90514700  1
  N  814  1  0.02258100  0.27358400  0.85417600  1
  N  824  1  0.97828000  0.70424200  0.90517400  1
  N  826  1  0.97789400  0.72687500  0.85416300  1
  N  836  1  0.26896800  0.97293200  0.14897800  1
  N  838  1  0.29919800  0.97175600  0.09988800  1
  N  848  1  0.26895400  0.02755800  0.85152000  1
  N  850  1  0.29909400  0.02870400  0.90064900  1
  N  860  1  0.73154300  0.02754200  0.14895300  1
  N  862  1  0.70129000  0.02870000  0.09988500  1
  N  872  1  0.73155700  0.97293200  0.85151500  1
  N  874  1  0.70138900  0.97175600  0.90061900  1
  N  884  1  0.10002300  0.06865200  0.98036900  1
  N  886  1  0.11320100  0.14616400  0.98056100  1
  N  896  1  0.90045900  0.06867200  0.02011200  1
  N  898  1  0.88728400  0.14618500  0.01992600  1
  N  908  1  0.10003800  0.93180600  0.02009500  1
  N  910  1  0.11322100  0.85429400  0.01991400  1
  N  920  1  0.90043800  0.93183300  0.98036000  1
  N  922  1  0.88726300  0.85432100  0.98054900  1
  N  932  1  0.47879700  0.79632000  0.59435400  1
  N  934  1  0.47884800  0.77361700  0.64530300  1
  N  944  1  0.52170300  0.20423500  0.59435600  1
  N  946  1  0.52164600  0.22691700  0.64531500  1
  N  956  1  0.52170500  0.79634700  0.40613000  1
  N  958  1  0.52163000  0.77362000  0.35518700  1
  N  968  1  0.47876100  0.20420100  0.40616600  1
  N  970  1  0.47884100  0.22685000  0.35518400  1
  N  980  1  0.76899100  0.47200500  0.64698200  1
  N  982  1  0.79879700  0.47112700  0.59778900  1
  N  992  1  0.76899100  0.52849200  0.35350500  1
  N  994  1  0.79870700  0.52933700  0.40273700  1
  N  1004  1  0.23147900  0.52846500  0.64696600  1
  N  1006  1  0.20166000  0.52932400  0.59779200  1
  N  1016  1  0.23150800  0.47200200  0.35350100  1
  N  1018  1  0.20176600  0.47113400  0.40270800  1
  N  1028  1  0.59815300  0.56911200  0.48015700  1
  N  1030  1  0.61229000  0.64643700  0.48062100  1
  N  1040  1  0.40231200  0.56909500  0.52030800  1
  N  1042  1  0.38818400  0.64642400  0.51984900  1
  N  1052  1  0.59818000  0.43136900  0.52031700  1
  N  1054  1  0.61230800  0.35404400  0.51985600  1
  N  1064  1  0.40227400  0.43139000  0.48015900  1
  N  1066  1  0.38815000  0.35406100  0.48062500  1
  O  695  1  0.20389600  0.28496300  0.19870000  1
  O  707  1  0.79657900  0.71552100  0.19869800  1
  O  719  1  0.79660900  0.28496700  0.80177600  1
  O  731  1  0.20390200  0.71547400  0.80176700  1
  O  743  1  0.29076800  0.21254100  0.79853700  1
  O  755  1  0.70971100  0.78792700  0.79853700  1
  O  767  1  0.29080900  0.78794700  0.20193200  1
  O  779  1  0.70971100  0.21253600  0.20193200  1
  O  791  1  0.04557600  0.26153300  0.17420900  1
  O  803  1  0.95493700  0.73894100  0.17424300  1
  O  815  1  0.95491700  0.26155900  0.82625800  1
  O  827  1  0.04556800  0.73882600  0.82624000  1
  O  839  1  0.31262800  0.03722000  0.07152100  1
  O  851  1  0.31252500  0.96315300  0.92898900  1
  O  863  1  0.68781100  0.96323700  0.07153700  1
  O  875  1  0.68791100  0.03728500  0.92896400  1
  O  887  1  0.11823400  0.18922200  0.02473300  1
  O  899  1  0.88226200  0.18925200  0.97575600  1
  O  911  1  0.11824800  0.81122200  0.97574700  1
  O  923  1  0.88223200  0.81126200  0.02472100  1
  O  935  1  0.54674600  0.76144600  0.67291800  1
  O  947  1  0.45375200  0.23906900  0.67293400  1
  O  959  1  0.45373200  0.76144200  0.32757900  1
  O  971  1  0.54674900  0.23895600  0.32757700  1
  O  983  1  0.81257600  0.53673100  0.56969100  1
  O  995  1  0.81249400  0.46364900  0.43080800  1
  O  1007  1  0.18783500  0.46372000  0.56971400  1
  O  1019  1  0.18793700  0.53680500  0.43077900  1
  O  1031  1  0.61833900  0.68906400  0.52486300  1
  O  1043  1  0.38214900  0.68906000  0.47560800  1
  O  1055  1  0.61835600  0.31141200  0.47561500  1
  O  1067  1  0.38210900  0.31143400  0.52487000  1
