# generated using pymatgen
data_H9C13(N2O)2
_symmetry_space_group_name_H-M   'P 1'
_cell_length_a   41.60320000
_cell_length_b   48.96590000
_cell_length_c   56.07760000
_cell_angle_alpha   90.00000000
_cell_angle_beta   90.02800000
_cell_angle_gamma   89.96800000
_symmetry_Int_Tables_number   1
_chemical_formula_structural   H9C13(N2O)2
_chemical_formula_sum   'H288 C416 N128 O64'
_cell_volume   114237.78579009
_cell_formula_units_Z   32
loop_
 _symmetry_equiv_pos_site_id
 _symmetry_equiv_pos_as_xyz
  1  'x, y, z'
loop_
 _atom_site_type_symbol
 _atom_site_label
 _atom_site_symmetry_multiplicity
 _atom_site_fract_x
 _atom_site_fract_y
 _atom_site_fract_z
 _atom_site_occupancy
  H  7  1  0.90810700  0.12567000  0.10470900  1
  H  16  1  0.91384200  0.14511700  0.17781300  1
  H  19  1  0.83634600  0.13282800  0.17187900  1
  H  20  1  0.87708100  0.07223400  0.12739100  1
  H  21  1  0.80619000  0.17201400  0.08841300  1
  H  22  1  0.95462100  0.05466200  0.19936800  1
  H  33  1  0.08741500  0.84726500  0.10490200  1
  H  42  1  0.08128400  0.82751000  0.17794400  1
  H  45  1  0.15889700  0.83971400  0.17224300  1
  H  46  1  0.11859200  0.90083700  0.12807800  1
  H  47  1  0.18944800  0.80103400  0.08875900  1
  H  48  1  0.04279200  0.91778300  0.20056000  1
  H  59  1  0.90751500  0.84892500  0.41427100  1
  H  68  1  0.91368200  0.82481500  0.34225400  1
  H  71  1  0.83712000  0.83959000  0.34660900  1
  H  72  1  0.87908300  0.90208900  0.38829200  1
  H  73  1  0.80523400  0.80327600  0.43111900  1
  H  74  1  0.95832900  0.91107200  0.31518500  1
  H  85  1  0.08806200  0.12482400  0.41446500  1
  H  94  1  0.08127400  0.14909400  0.34251600  1
  H  97  1  0.15794400  0.13434800  0.34658800  1
  H  98  1  0.11645800  0.07135500  0.38795000  1
  H  99  1  0.19057900  0.17026200  0.43104900  1
  H  100  1  0.03823300  0.06253300  0.31517000  1
  H  111  1  0.09216000  0.84947300  0.91485900  1
  H  120  1  0.08202600  0.82821800  0.84159800  1
  H  123  1  0.15803700  0.83995500  0.84486700  1
  H  124  1  0.11995000  0.90174900  0.89059300  1
  H  125  1  0.19514900  0.80618200  0.92853600  1
  H  126  1  0.03962900  0.91863600  0.82080000  1
  H  137  1  0.90494600  0.12422300  0.91466300  1
  H  146  1  0.91534300  0.14572000  0.84147900  1
  H  149  1  0.83917600  0.13409100  0.84460600  1
  H  150  1  0.87687100  0.07182400  0.88996800  1
  H  151  1  0.80190900  0.16733800  0.92832400  1
  H  152  1  0.95535000  0.05548400  0.81951100  1
  H  163  1  0.09271100  0.12236800  0.60486900  1
  H  172  1  0.08199500  0.14858800  0.67679100  1
  H  175  1  0.15719400  0.13436100  0.67516600  1
  H  176  1  0.11787100  0.07062000  0.63238600  1
  H  177  1  0.19597900  0.16492900  0.59053300  1
  H  178  1  0.03638800  0.06266900  0.70376800  1
  H  189  1  0.90433500  0.85037200  0.60469400  1
  H  198  1  0.91553400  0.82403000  0.67651100  1
  H  201  1  0.84019300  0.83823500  0.67509700  1
  H  202  1  0.87908200  0.90240800  0.63269100  1
  H  203  1  0.80092800  0.80800800  0.59048300  1
  H  204  1  0.95952900  0.91024300  0.70381600  1
  H  215  1  0.40969800  0.62685100  0.10479000  1
  H  224  1  0.41413100  0.64505700  0.17790800  1
  H  227  1  0.33543500  0.63189600  0.17042500  1
  H  228  1  0.37764100  0.57298600  0.12648900  1
  H  229  1  0.33928800  0.69980000  0.08632700  1
  H  230  1  0.45411800  0.55429000  0.19913500  1
  H  241  1  0.58572100  0.34601100  0.10502100  1
  H  250  1  0.58097200  0.32746700  0.17808600  1
  H  253  1  0.65977100  0.34061500  0.17079700  1
  H  254  1  0.61789900  0.40003300  0.12719600  1
  H  255  1  0.65628300  0.27320400  0.08640000  1
  H  256  1  0.54338100  0.41795900  0.20054000  1
  H  267  1  0.40910200  0.34775300  0.41422800  1
  H  276  1  0.41384700  0.32495700  0.34201900  1
  H  279  1  0.33621000  0.34049900  0.34799500  1
  H  280  1  0.37964000  0.40139600  0.38924800  1
  H  281  1  0.33837500  0.27556100  0.43404500  1
  H  282  1  0.45767700  0.41168900  0.31539700  1
  H  293  1  0.58641500  0.62609500  0.41439700  1
  H  302  1  0.58112500  0.64903600  0.34227400  1
  H  305  1  0.65889700  0.63346000  0.34798600  1
  H  306  1  0.61587900  0.57209300  0.38890400  1
  H  307  1  0.65743200  0.69812000  0.43420000  1
  H  308  1  0.53884600  0.56203400  0.31538300  1
  H  319  1  0.59025000  0.34808800  0.91498900  1
  H  328  1  0.58164900  0.32813100  0.84163000  1
  H  331  1  0.65883900  0.34076200  0.84642300  1
  H  332  1  0.61923400  0.40082300  0.89172000  1
  H  333  1  0.66419000  0.27660900  0.93236700  1
  H  334  1  0.54015800  0.41891600  0.82114200  1
  H  345  1  0.40676800  0.62554300  0.91481600  1
  H  354  1  0.41569800  0.64570200  0.84151200  1
  H  357  1  0.33839700  0.63317300  0.84611900  1
  H  358  1  0.37755100  0.57266100  0.89111700  1
  H  359  1  0.33266800  0.69687900  0.93227900  1
  H  360  1  0.45498100  0.55494900  0.82016000  1
  H  371  1  0.59093900  0.62368100  0.60474600  1
  H  380  1  0.58165300  0.64869300  0.67681400  1
  H  383  1  0.65802100  0.63355200  0.67377900  1
  H  384  1  0.61729900  0.57141800  0.63140500  1
  H  385  1  0.66518600  0.69444800  0.58597200  1
  H  386  1  0.53668900  0.56242800  0.70347900  1
  H  397  1  0.40605900  0.34911000  0.60462600  1
  H  406  1  0.41586800  0.32403700  0.67663900  1
  H  409  1  0.33938900  0.33908000  0.67381100  1
  H  410  1  0.37963400  0.40167800  0.63173300  1
  H  411  1  0.33154500  0.27851100  0.58586700  1
  H  412  1  0.45913700  0.41066700  0.70354600  1
  H  422  1  0.82541900  0.11147100  0.02438400  1
  H  425  1  0.81266100  0.09383100  0.98639000  1
  H  426  1  0.84544100  0.09225100  0.96650500  1
  H  427  1  0.81731300  0.11949700  0.96463600  1
  H  429  1  0.83828300  0.12777800  0.06404600  1
  H  431  1  0.90896100  0.13562800  0.95695400  1
  H  437  1  0.17122700  0.86135800  0.02492700  1
  H  440  1  0.18464500  0.87888400  0.98703400  1
  H  441  1  0.15213700  0.88076000  0.96690300  1
  H  442  1  0.17993200  0.85325000  0.96525900  1
  H  444  1  0.15767000  0.84521800  0.06449400  1
  H  446  1  0.08800300  0.83792600  0.95699900  1
  H  452  1  0.82464400  0.86439500  0.49478400  1
  H  455  1  0.81197100  0.88209900  0.53278800  1
  H  456  1  0.84474400  0.88359500  0.55270700  1
  H  457  1  0.81659700  0.85638500  0.55451000  1
  H  459  1  0.83721800  0.84761200  0.45515500  1
  H  461  1  0.90818900  0.83977300  0.56230600  1
  H  467  1  0.17208600  0.10937500  0.49462900  1
  H  470  1  0.18533400  0.09167400  0.53252800  1
  H  471  1  0.15277000  0.08977700  0.55258400  1
  H  472  1  0.18053900  0.11727300  0.55432600  1
  H  474  1  0.15879900  0.12595800  0.45507100  1
  H  476  1  0.08866900  0.13294800  0.56250100  1
  H  482  1  0.32592800  0.61452100  0.02442900  1
  H  485  1  0.31275300  0.59706000  0.98645300  1
  H  486  1  0.34557200  0.59451000  0.96668000  1
  H  487  1  0.31849300  0.62249500  0.96463800  1
  H  489  1  0.33901100  0.63086300  0.06403000  1
  H  491  1  0.41062300  0.63592000  0.95715400  1
  H  497  1  0.67025600  0.35854100  0.02498900  1
  H  500  1  0.68392400  0.37599300  0.98712000  1
  H  501  1  0.65135100  0.37864900  0.96711300  1
  H  502  1  0.67833600  0.35058000  0.96525900  1
  H  504  1  0.65670600  0.34217700  0.06447800  1
  H  506  1  0.58613800  0.33744300  0.95718600  1
  H  512  1  0.32505600  0.36134100  0.49477700  1
  H  515  1  0.31188000  0.37883700  0.53276200  1
  H  516  1  0.34466400  0.38135400  0.55259000  1
  H  517  1  0.31763200  0.35335500  0.55454200  1
  H  519  1  0.33795900  0.34456800  0.45521700  1
  H  521  1  0.40975500  0.33959400  0.56218900  1
  H  527  1  0.67107500  0.61203700  0.49456800  1
  H  530  1  0.68456000  0.59436100  0.53243500  1
  H  531  1  0.65193900  0.59173600  0.55237700  1
  H  532  1  0.67896900  0.61973900  0.55432800  1
  H  534  1  0.65777600  0.62889200  0.45510700  1
  H  536  1  0.58688800  0.63340000  0.56236400  1
  H  542  1  0.03176900  0.02584100  0.12478600  1
  H  545  1  0.07569500  0.99732600  0.11509500  1
  H  546  1  0.06562000  0.96297100  0.10934000  1
  H  547  1  0.08075300  0.97273300  0.13775100  1
  H  549  1  0.99112000  0.05637300  0.14216700  1
  H  551  1  0.00450300  0.92088700  0.14712300  1
  H  557  1  0.03345700  0.94809000  0.38864400  1
  H  560  1  0.07639100  0.97755700  0.39823400  1
  H  561  1  0.06492500  0.01148900  0.40447300  1
  H  562  1  0.08037600  0.00268700  0.37592200  1
  H  564  1  0.99351900  0.91635600  0.37229300  1
  H  566  1  0.00210700  0.05251600  0.36707700  1
  H  572  1  0.96438000  0.94753800  0.89509300  1
  H  575  1  0.92056400  0.97617600  0.90483200  1
  H  576  1  0.93077700  0.01051900  0.91052600  1
  H  577  1  0.91552200  0.00074900  0.88215400  1
  H  579  1  0.00500600  0.91686100  0.87806200  1
  H  581  1  0.99195500  0.05247800  0.87314700  1
  H  587  1  0.96277300  0.02505000  0.63026400  1
  H  590  1  0.91997600  0.99546000  0.62058800  1
  H  591  1  0.93158200  0.96153700  0.61446100  1
  H  592  1  0.91593500  0.97038300  0.64293900  1
  H  594  1  0.00261300  0.05691500  0.64634500  1
  H  596  1  0.99437400  0.92067500  0.65156000  1
  H  602  1  0.53170900  0.52570200  0.12441800  1
  H  605  1  0.57557700  0.49712300  0.11474700  1
  H  606  1  0.56546600  0.46275700  0.10907200  1
  H  607  1  0.58062300  0.47259300  0.13745800  1
  H  609  1  0.49127200  0.55628000  0.14208100  1
  H  611  1  0.50435100  0.42086500  0.14721700  1
  H  617  1  0.53345300  0.44816400  0.38895900  1
  H  620  1  0.57635500  0.47766000  0.39855700  1
  H  621  1  0.56487900  0.51158900  0.40479400  1
  H  622  1  0.58030400  0.50278400  0.37623600  1
  H  624  1  0.49364900  0.41644200  0.37233800  1
  H  626  1  0.50202300  0.55253500  0.36715000  1
  H  632  1  0.46413300  0.44750200  0.89524700  1
  H  635  1  0.42033000  0.47617400  0.90490500  1
  H  636  1  0.43055900  0.51047200  0.91077500  1
  H  637  1  0.41555100  0.50085600  0.88229000  1
  H  639  1  0.50470300  0.41684800  0.87812600  1
  H  641  1  0.49217200  0.55245600  0.87346500  1
  H  647  1  0.46260300  0.52506100  0.63002900  1
  H  650  1  0.41982800  0.49542400  0.62041300  1
  H  651  1  0.43147200  0.46153000  0.61420200  1
  H  652  1  0.41594700  0.47029600  0.64273800  1
  H  654  1  0.50238200  0.55694600  0.64621700  1
  H  656  1  0.49449400  0.42072600  0.65138800  1
  H  662  1  0.80247600  0.26255400  0.14417000  1
  H  665  1  0.77861300  0.30591800  0.14547700  1
  H  666  1  0.74040600  0.30636700  0.15900200  1
  H  667  1  0.74398300  0.30699000  0.12738400  1
  H  669  1  0.82697500  0.21954900  0.12998600  1
  H  671  1  0.67569400  0.25363200  0.12853700  1
  H  677  1  0.19294300  0.71020200  0.14421100  1
  H  680  1  0.21678800  0.66682500  0.14543600  1
  H  681  1  0.25505100  0.66633800  0.15890000  1
  H  682  1  0.25134100  0.66577400  0.12728700  1
  H  684  1  0.16846400  0.75325100  0.13002900  1
  H  686  1  0.31970200  0.71911900  0.12847900  1
  H  692  1  0.80267500  0.71112500  0.37612500  1
  H  695  1  0.77923300  0.66759800  0.37489100  1
  H  696  1  0.74103900  0.66692200  0.36132600  1
  H  697  1  0.74460100  0.66631100  0.39294700  1
  H  699  1  0.82658600  0.75438500  0.39067800  1
  H  701  1  0.67608400  0.71900300  0.39239400  1
  H  707  1  0.19277800  0.26257400  0.37615200  1
  H  710  1  0.21615600  0.30611300  0.37487000  1
  H  711  1  0.25432400  0.30682600  0.36129400  1
  H  712  1  0.25081900  0.30743700  0.39291600  1
  H  714  1  0.16901600  0.21935100  0.39089800  1
  H  716  1  0.31945200  0.25479600  0.39227400  1
  H  722  1  0.19354500  0.71160600  0.87219100  1
  H  725  1  0.21669100  0.66797700  0.87050300  1
  H  726  1  0.25516000  0.66716700  0.85741000  1
  H  727  1  0.25091900  0.66629000  0.88897900  1
  H  729  1  0.17040600  0.75479000  0.88802600  1
  H  731  1  0.31975400  0.71863700  0.88965800  1
  H  737  1  0.80355500  0.26225900  0.87236200  1
  H  740  1  0.78036900  0.30588000  0.87082200  1
  H  741  1  0.74190900  0.30672200  0.85769000  1
  H  742  1  0.74613200  0.30746700  0.88926600  1
  H  744  1  0.82678000  0.21902600  0.88798000  1
  H  746  1  0.67736300  0.25507500  0.88972800  1
  H  752  1  0.19329000  0.26135400  0.64564500  1
  H  755  1  0.21600800  0.30515400  0.64704400  1
  H  756  1  0.25429300  0.30628700  0.66043800  1
  H  757  1  0.25046700  0.30689400  0.62883600  1
  H  759  1  0.17076400  0.21781800  0.62980800  1
  H  761  1  0.31923700  0.25530500  0.62795100  1
  H  767  1  0.80380400  0.71144100  0.64567100  1
  H  770  1  0.78107700  0.66765200  0.64720800  1
  H  771  1  0.74278700  0.66658400  0.66057200  1
  H  772  1  0.74662600  0.66583500  0.62897300  1
  H  774  1  0.82630200  0.75493900  0.62966800  1
  H  776  1  0.67774100  0.71752400  0.62808900  1
  H  782  1  0.04136800  0.10778500  0.26855800  1
  H  785  1  0.03508300  0.08386700  0.23328000  1
  H  786  1  0.01692500  0.10131600  0.20942900  1
  H  787  1  0.99350200  0.08025000  0.22881100  1
  H  789  1  0.03657800  0.16370400  0.30960300  1
  H  791  1  0.94872300  0.15536000  0.21439900  1
  H  797  1  0.95268200  0.86422000  0.26773100  1
  H  800  1  0.95756400  0.88648400  0.23139900  1
  H  801  1  0.97755100  0.86917900  0.20829300  1
  H  802  1  0.99896200  0.89193400  0.22747200  1
  H  804  1  0.95970200  0.81001600  0.31027700  1
  H  806  1  0.04653200  0.81736600  0.21453100  1
  H  812  1  0.95596900  0.86593000  0.74988400  1
  H  815  1  0.96279600  0.89074400  0.78454300  1
  H  816  1  0.97937500  0.87312600  0.80892200  1
  H  817  1  0.00433000  0.89320000  0.78977300  1
  H  819  1  0.95975300  0.80916400  0.70970600  1
  H  821  1  0.04780300  0.81805400  0.80476700  1
  H  827  1  0.04274600  0.10875900  0.75083100  1
  H  830  1  0.03760600  0.08571100  0.78669200  1
  H  831  1  0.01877200  0.10313000  0.81025600  1
  H  832  1  0.99615800  0.08114100  0.79113200  1
  H  834  1  0.03634400  0.16366300  0.70897500  1
  H  836  1  0.94950400  0.15579700  0.80467600  1
  H  842  1  0.54138300  0.60724400  0.26845100  1
  H  845  1  0.53479800  0.58315300  0.23330200  1
  H  846  1  0.51684100  0.60066800  0.20940300  1
  H  847  1  0.49319900  0.57978300  0.22878100  1
  H  849  1  0.53640100  0.66324700  0.30959100  1
  H  851  1  0.44902000  0.65505400  0.21426000  1
  H  857  1  0.45221100  0.36427900  0.26739900  1
  H  860  1  0.45685200  0.38614300  0.23083200  1
  H  861  1  0.47718400  0.36879000  0.20791500  1
  H  862  1  0.49818600  0.39197400  0.22693700  1
  H  864  1  0.46032000  0.31061700  0.31054500  1
  H  866  1  0.54613500  0.31750600  0.21438900  1
  H  872  1  0.45637700  0.36665600  0.74976300  1
  H  875  1  0.46361800  0.39175400  0.78420800  1
  H  876  1  0.47964000  0.37404200  0.80874000  1
  H  877  1  0.50514200  0.39368200  0.78964700  1
  H  879  1  0.45936500  0.30952900  0.70996600  1
  H  881  1  0.54736100  0.31821000  0.80500200  1
  H  887  1  0.54161100  0.60739500  0.75028000  1
  H  890  1  0.53532900  0.58328100  0.78542200  1
  H  891  1  0.51793600  0.60090800  0.80947100  1
  H  892  1  0.49378800  0.58015600  0.79030800  1
  H  894  1  0.53721000  0.66348100  0.70949900  1
  H  896  1  0.44983900  0.65546600  0.80485200  1
  C  1  1  0.88301300  0.13399800  0.13685300  1
  C  2  1  0.88930600  0.13621500  0.11208200  1
  C  3  1  0.86990900  0.15188900  0.09673200  1
  C  4  1  0.84445300  0.16748800  0.10633000  1
  C  5  1  0.83838700  0.16790400  0.13124300  1
  C  6  1  0.85710600  0.15025300  0.14610200  1
  C  9  1  0.90344500  0.11593100  0.15090700  1
  C  10  1  0.91222500  0.08903200  0.14295700  1
  C  11  1  0.93549000  0.07296000  0.15513200  1
  C  12  1  0.94768500  0.08296100  0.17698900  1
  C  13  1  0.94009400  0.10938000  0.18541400  1
  C  14  1  0.91828800  0.12562800  0.17214500  1
  C  27  1  0.11234600  0.83871300  0.13709000  1
  C  28  1  0.10615200  0.83664100  0.11228900  1
  C  29  1  0.12564800  0.82108400  0.09692700  1
  C  30  1  0.15106800  0.80543700  0.10653800  1
  C  31  1  0.15700500  0.80485600  0.13147000  1
  C  32  1  0.13822300  0.82241800  0.14634800  1
  C  35  1  0.09192900  0.85675800  0.15116200  1
  C  36  1  0.08341500  0.88375800  0.14333600  1
  C  37  1  0.06034000  0.89997400  0.15556300  1
  C  38  1  0.04827200  0.89001400  0.17747700  1
  C  39  1  0.05555100  0.86346300  0.18576000  1
  C  40  1  0.07702100  0.84706000  0.17235500  1
  C  53  1  0.88288300  0.83937300  0.38219200  1
  C  54  1  0.88869500  0.83824700  0.40707200  1
  C  55  1  0.86902900  0.82318000  0.42267000  1
  C  56  1  0.84365000  0.80728900  0.41332500  1
  C  57  1  0.83784600  0.80603800  0.38840500  1
  C  58  1  0.85694200  0.82295300  0.37320600  1
  C  61  1  0.90432600  0.85598800  0.36767400  1
  C  62  1  0.91385700  0.88322700  0.37414000  1
  C  63  1  0.93768300  0.89795100  0.36120700  1
  C  64  1  0.94998700  0.88596700  0.34012700  1
  C  65  1  0.94153200  0.85914000  0.33333333  1
  C  66  1  0.91911000  0.84438300  0.34721700  1
  C  79  1  0.11243300  0.13451100  0.38232600  1
  C  80  1  0.10683200  0.13552400  0.40723200  1
  C  81  1  0.12665800  0.15049100  0.42280300  1
  C  82  1  0.15198900  0.16639000  0.41341300  1
  C  83  1  0.15759200  0.16773800  0.38847200  1
  C  84  1  0.13833800  0.15091500  0.37329200  1
  C  87  1  0.09092700  0.11789700  0.36784900  1
  C  88  1  0.08162700  0.09059600  0.37424900  1
  C  89  1  0.05784600  0.07574700  0.36134900  1
  C  90  1  0.04546600  0.08770600  0.34025900  1
  C  91  1  0.05366700  0.11462700  0.33357200  1
  C  92  1  0.07596800  0.12949600  0.34745800  1
  C  105  1  0.11430000  0.83983300  0.88190800  1
  C  106  1  0.11015400  0.83847300  0.90699300  1
  C  107  1  0.13087600  0.82335500  0.92191900  1
  C  108  1  0.15586500  0.80795700  0.91150500  1
  C  109  1  0.15955500  0.80637800  0.88639500  1
  C  110  1  0.13945800  0.82330200  0.87192900  1
  C  113  1  0.09291300  0.85757000  0.86827400  1
  C  114  1  0.08421000  0.88452300  0.87615700  1
  C  115  1  0.06032200  0.90029700  0.86435900  1
  C  116  1  0.04754400  0.89007700  0.84276600  1
  C  117  1  0.05528300  0.86372500  0.83427400  1
  C  118  1  0.07752300  0.84767400  0.84731500  1
  C  131  1  0.88288800  0.13405900  0.88170700  1
  C  132  1  0.88700100  0.13530200  0.90680600  1
  C  133  1  0.86622900  0.15032200  0.92175700  1
  C  134  1  0.84122800  0.16573200  0.91135100  1
  C  135  1  0.83760400  0.16746100  0.88624100  1
  C  136  1  0.85773600  0.15062200  0.87174500  1
  C  139  1  0.90421300  0.11631900  0.86803800  1
  C  140  1  0.91263700  0.08926200  0.87579300  1
  C  141  1  0.93629200  0.07331600  0.86392200  1
  C  142  1  0.94893900  0.08347900  0.84226300  1
  C  143  1  0.94153900  0.10997500  0.83392100  1
  C  144  1  0.91965200  0.12620000  0.84711400  1
  C  157  1  0.11435800  0.13341000  0.63765900  1
  C  158  1  0.11070000  0.13356800  0.61251900  1
  C  159  1  0.13169600  0.14804000  0.59733600  1
  C  160  1  0.15661100  0.16377700  0.60746000  1
  C  161  1  0.16006300  0.16625700  0.63252500  1
  C  162  1  0.13957700  0.15012500  0.64732800  1
  C  165  1  0.09197000  0.11714800  0.65173600  1
  C  166  1  0.08254800  0.08983000  0.64540400  1
  C  167  1  0.05819800  0.07537800  0.65802600  1
  C  168  1  0.04535900  0.08761000  0.67881500  1
  C  169  1  0.05381000  0.11445000  0.68551800  1
  C  170  1  0.07659000  0.12901500  0.67184200  1
  C  183  1  0.88285600  0.83922800  0.63750000  1
  C  184  1  0.88637900  0.83915000  0.61235300  1
  C  185  1  0.86531200  0.82471800  0.59718500  1
  C  186  1  0.84038600  0.80902300  0.60733200  1
  C  187  1  0.83705700  0.80648000  0.63239900  1
  C  188  1  0.85765800  0.82253000  0.64719400  1
  C  191  1  0.90526800  0.85549600  0.65155100  1
  C  192  1  0.91445300  0.88287800  0.64529100  1
  C  193  1  0.93874100  0.89746400  0.65789000  1
  C  194  1  0.95165900  0.88525300  0.67868800  1
  C  195  1  0.94346400  0.85831400  0.68530000  1
  C  196  1  0.92081000  0.84363700  0.67159100  1
  C  209  1  0.38392100  0.63460500  0.13672700  1
  C  210  1  0.39089000  0.63742600  0.11212200  1
  C  211  1  0.37186400  0.65348700  0.09683300  1
  C  212  1  0.34645700  0.66922700  0.10641400  1
  C  213  1  0.33924500  0.66849900  0.13115000  1
  C  214  1  0.35757100  0.65039400  0.14587000  1
  C  217  1  0.40390000  0.61617700  0.15073700  1
  C  218  1  0.41262500  0.58934800  0.14259100  1
  C  219  1  0.43558500  0.57300700  0.15482500  1
  C  220  1  0.44758700  0.58273900  0.17683700  1
  C  221  1  0.44010500  0.60912800  0.18538400  1
  C  222  1  0.41852800  0.62559700  0.17213400  1
  C  235  1  0.61136800  0.33803400  0.13699300  1
  C  236  1  0.60447500  0.33535600  0.11235800  1
  C  237  1  0.62358800  0.31942100  0.09703800  1
  C  238  1  0.64898400  0.30364500  0.10661400  1
  C  239  1  0.65609600  0.30421600  0.13137400  1
  C  240  1  0.63771100  0.32221900  0.14612900  1
  C  243  1  0.59140700  0.35642800  0.15104000  1
  C  244  1  0.58292200  0.38335900  0.14303400  1
  C  245  1  0.56018400  0.39983600  0.15535200  1
  C  246  1  0.54837300  0.39014100  0.17743800  1
  C  247  1  0.55554600  0.36361300  0.18582300  1
  C  248  1  0.57675200  0.34699300  0.17240400  1
  C  261  1  0.38379700  0.33876100  0.38232700  1
  C  262  1  0.39028600  0.33703000  0.40707200  1
  C  263  1  0.37099700  0.32158100  0.42263400  1
  C  264  1  0.34569000  0.30552500  0.41331100  1
  C  265  1  0.33876100  0.30539400  0.38852800  1
  C  266  1  0.35744400  0.32277400  0.37343600  1
  C  269  1  0.40476900  0.35576700  0.36781200  1
  C  270  1  0.41425800  0.38294400  0.37449500  1
  C  271  1  0.43776000  0.39795200  0.36147800  1
  C  272  1  0.44981700  0.38627900  0.34018600  1
  C  273  1  0.44143500  0.35949100  0.33325100  1
  C  274  1  0.41927300  0.34448000  0.34712300  1
  C  287  1  0.61152000  0.63518800  0.38245000  1
  C  288  1  0.60519800  0.63683100  0.40721600  1
  C  289  1  0.62461700  0.65219900  0.42275900  1
  C  290  1  0.64990000  0.66824500  0.41340600  1
  C  291  1  0.65666900  0.66845100  0.38860300  1
  C  292  1  0.63785300  0.65115000  0.37352000  1
  C  295  1  0.59049000  0.61818800  0.36797200  1
  C  296  1  0.58121200  0.59095500  0.37459300  1
  C  297  1  0.55773800  0.57583500  0.36161500  1
  C  298  1  0.54561500  0.58749800  0.34031400  1
  C  299  1  0.55375900  0.61437600  0.33346100  1
  C  300  1  0.57581400  0.62948200  0.34735300  1
  C  313  1  0.61321400  0.33906200  0.88223800  1
  C  314  1  0.60831300  0.33710000  0.90719800  1
  C  315  1  0.62863600  0.32161800  0.92212900  1
  C  316  1  0.65362500  0.30608800  0.91180800  1
  C  317  1  0.65850000  0.30560900  0.88676600  1
  C  318  1  0.63883800  0.32299000  0.87237100  1
  C  321  1  0.59230500  0.35716200  0.86860300  1
  C  322  1  0.58365500  0.38404800  0.87667800  1
  C  323  1  0.56010600  0.40010300  0.86478500  1
  C  324  1  0.54756600  0.39016600  0.84301400  1
  C  325  1  0.55519400  0.36383600  0.83440600  1
  C  326  1  0.57717500  0.34755300  0.84745600  1
  C  339  1  0.38393400  0.63475200  0.88203700  1
  C  340  1  0.38876900  0.63661100  0.90701600  1
  C  341  1  0.36837000  0.65199000  0.92195600  1
  C  342  1  0.34338600  0.66753500  0.91162200  1
  C  343  1  0.33861800  0.66815200  0.88656800  1
  C  344  1  0.35832800  0.65084900  0.87216100  1
  C  347  1  0.40480300  0.61664600  0.86839300  1
  C  348  1  0.41317800  0.58966600  0.87636800  1
  C  349  1  0.43653600  0.57345000  0.86444000  1
  C  350  1  0.44897500  0.58332700  0.84261100  1
  C  351  1  0.44165500  0.60977500  0.83411400  1
  C  352  1  0.41999400  0.62622700  0.84727900  1
  C  365  1  0.61336300  0.63413700  0.63737600  1
  C  366  1  0.60897700  0.63489300  0.61232500  1
  C  367  1  0.62956800  0.64973600  0.59713000  1
  C  368  1  0.65444300  0.66563700  0.60716800  1
  C  369  1  0.65903400  0.66703400  0.63220600  1
  C  370  1  0.63899700  0.65043200  0.64695900  1
  C  373  1  0.59143400  0.61752000  0.65148300  1
  C  374  1  0.58207200  0.59024800  0.64497000  1
  C  375  1  0.55798200  0.57555500  0.65766400  1
  C  376  1  0.54529400  0.58756500  0.67860600  1
  C  377  1  0.55366800  0.61438400  0.68543200  1
  C  378  1  0.57627300  0.62914300  0.67176900  1
  C  391  1  0.38384000  0.33855400  0.63728800  1
  C  392  1  0.38806100  0.33788300  0.61222500  1
  C  393  1  0.36738200  0.32308000  0.59705100  1
  C  394  1  0.34251300  0.30721100  0.60712300  1
  C  395  1  0.33808000  0.30573700  0.63217200  1
  C  396  1  0.35824500  0.32226300  0.64690900  1
  C  399  1  0.40579700  0.35519400  0.65136200  1
  C  400  1  0.41491400  0.38252700  0.64489900  1
  C  401  1  0.43892300  0.39737700  0.65756600  1
  C  402  1  0.45166700  0.38543000  0.67854200  1
  C  403  1  0.44356400  0.35851800  0.68530400  1
  C  404  1  0.42111700  0.34361600  0.67160500  1
  C  417  1  0.86380400  0.13763500  0.03385600  1
  C  418  1  0.84434400  0.12261100  0.01791300  1
  C  419  1  0.85072000  0.12274200  0.99314000  1
  C  420  1  0.87712800  0.13862600  0.98493500  1
  C  424  1  0.83036800  0.10613800  0.97682100  1
  C  428  1  0.85750100  0.13790700  0.05814100  1
  C  430  1  0.88653800  0.14043400  0.96135300  1
  C  432  1  0.13237300  0.83558500  0.03413100  1
  C  433  1  0.15222100  0.85041000  0.01832400  1
  C  434  1  0.14612900  0.85033600  0.99350700  1
  C  435  1  0.11960600  0.83470500  0.98511700  1
  C  439  1  0.16689800  0.86673700  0.97733700  1
  C  443  1  0.13842200  0.83522700  0.05845500  1
  C  445  1  0.11037500  0.83302800  0.96148000  1
  C  447  1  0.86301500  0.83817300  0.48535200  1
  C  448  1  0.84359700  0.85326800  0.50126600  1
  C  449  1  0.85001400  0.85315300  0.52603200  1
  C  450  1  0.87642400  0.83723500  0.53423300  1
  C  454  1  0.82966500  0.86975000  0.54235700  1
  C  458  1  0.85659200  0.83770400  0.46110000  1
  C  460  1  0.88572200  0.83523200  0.55781300  1
  C  462  1  0.13324700  0.13520700  0.48540900  1
  C  463  1  0.15302200  0.12027400  0.50121100  1
  C  464  1  0.14681600  0.12024200  0.52600300  1
  C  465  1  0.12023200  0.13584000  0.53434700  1
  C  469  1  0.16755100  0.10380900  0.54220000  1
  C  473  1  0.13945600  0.13580400  0.46113200  1
  C  475  1  0.11107000  0.13764600  0.55796600  1
  C  477  1  0.36523700  0.63966300  0.03394000  1
  C  478  1  0.34530700  0.62510900  0.01798700  1
  C  479  1  0.35184600  0.62494600  0.99324300  1
  C  480  1  0.37890300  0.64006100  0.98509200  1
  C  484  1  0.33096900  0.60884100  0.97690500  1
  C  488  1  0.35880900  0.64020700  0.05819100  1
  C  490  1  0.38846600  0.64155700  0.96154100  1
  C  492  1  0.63072600  0.33352800  0.03422000  1
  C  493  1  0.65089700  0.34802600  0.01841000  1
  C  494  1  0.64463900  0.34821900  0.99362100  1
  C  495  1  0.61761100  0.33319300  0.98527600  1
  C  499  1  0.66577300  0.36427100  0.97743800  1
  C  503  1  0.63691500  0.33291200  0.05850900  1
  C  505  1  0.60825500  0.33177800  0.96166700  1
  C  507  1  0.36441600  0.33620900  0.48532700  1
  C  508  1  0.34447900  0.35080200  0.50123900  1
  C  509  1  0.35102800  0.35098300  0.52598400  1
  C  510  1  0.37811100  0.33587600  0.53414400  1
  C  514  1  0.33010300  0.36704300  0.54231800  1
  C  518  1  0.35789600  0.33545200  0.46110600  1
  C  520  1  0.38755400  0.33419500  0.55769900  1
  C  522  1  0.63162400  0.63719800  0.48535400  1
  C  523  1  0.65169600  0.62253500  0.50113900  1
  C  524  1  0.64533800  0.62223000  0.52590500  1
  C  525  1  0.61830400  0.63727800  0.53421900  1
  C  529  1  0.66640700  0.60610300  0.54210200  1
  C  533  1  0.63794700  0.63806500  0.46111300  1
  C  535  1  0.60904600  0.63883600  0.55781100  1
  C  537  1  0.98651300  0.01488700  0.13894800  1
  C  538  1  0.01820500  0.00979600  0.13077500  1
  C  539  1  0.03198100  0.98321500  0.13158600  1
  C  540  1  0.01314000  0.96146000  0.14095900  1
  C  544  1  0.06535900  0.97889200  0.12294700  1
  C  548  1  0.97473100  0.04152500  0.14188500  1
  C  550  1  0.02236500  0.93413600  0.14458600  1
  C  552  1  0.98777300  0.95788100  0.37454500  1
  C  553  1  0.01931000  0.96378100  0.38264100  1
  C  554  1  0.03207100  0.99072200  0.38194400  1
  C  555  1  0.01239100  0.01206500  0.37273000  1
  C  559  1  0.06527800  0.99582400  0.39064100  1
  C  563  1  0.97676000  0.93091000  0.37212900  1
  C  565  1  0.02046800  0.03976500  0.36959000  1
  C  567  1  0.00963500  0.95839200  0.88085600  1
  C  568  1  0.97797800  0.96354700  0.88907300  1
  C  569  1  0.96427500  0.99014900  0.88824800  1
  C  570  1  0.98317400  0.01184400  0.87884100  1
  C  574  1  0.93094000  0.99457200  0.89693900  1
  C  578  1  0.02136500  0.93173300  0.87799900  1
  C  580  1  0.97404700  0.03918300  0.87529800  1
  C  582  1  0.00842800  0.01537200  0.64448700  1
  C  583  1  0.97693300  0.00940100  0.63633400  1
  C  584  1  0.96423600  0.98244400  0.63705100  1
  C  585  1  0.98394300  0.96117100  0.64634900  1
  C  589  1  0.93109800  0.97724000  0.62825600  1
  C  593  1  0.01936400  0.04236400  0.64683200  1
  C  595  1  0.97596000  0.93345700  0.64940500  1
  C  597  1  0.48643400  0.51483900  0.13860400  1
  C  598  1  0.51810800  0.50968100  0.13041700  1
  C  599  1  0.53185800  0.48308900  0.13128200  1
  C  600  1  0.51301700  0.46137500  0.14073000  1
  C  604  1  0.56522700  0.47871900  0.12264400  1
  C  608  1  0.47478700  0.54151800  0.14159500  1
  C  610  1  0.52221600  0.43405500  0.14445900  1
  C  612  1  0.48775000  0.45792900  0.37487700  1
  C  613  1  0.51927500  0.46385100  0.38299100  1
  C  614  1  0.53201400  0.49080400  0.38228800  1
  C  615  1  0.51231900  0.51214100  0.37307200  1
  C  619  1  0.56522600  0.49592100  0.39096500  1
  C  623  1  0.47681900  0.43093600  0.37240000  1
  C  625  1  0.52038600  0.53984600  0.36988000  1
  C  627  1  0.50954100  0.45833100  0.88126100  1
  C  628  1  0.47784500  0.46351700  0.88937800  1
  C  629  1  0.46422500  0.49015900  0.88859700  1
  C  630  1  0.48326100  0.51187300  0.87937400  1
  C  634  1  0.43081700  0.49459000  0.89713200  1
  C  638  1  0.52116100  0.43164400  0.87831000  1
  C  640  1  0.47422500  0.53924300  0.87580100  1
  C  642  1  0.50832500  0.51542900  0.64415200  1
  C  643  1  0.47682200  0.50942300  0.63604000  1
  C  644  1  0.46419400  0.48243700  0.63673700  1
  C  645  1  0.48398200  0.46117000  0.64595500  1
  C  649  1  0.43102200  0.47720200  0.62802300  1
  C  653  1  0.51920100  0.54244200  0.64653800  1
  C  655  1  0.47605400  0.43344000  0.64906100  1
  C  657  1  0.78061600  0.22377800  0.14174600  1
  C  658  1  0.78080700  0.25264500  0.14361600  1
  C  659  1  0.75190900  0.26822500  0.14326400  1
  C  660  1  0.72201300  0.25418200  0.14113800  1
  C  664  1  0.75392600  0.29853700  0.14381200  1
  C  668  1  0.80905200  0.20902200  0.13736100  1
  C  670  1  0.69149600  0.26581500  0.13659300  1
  C  672  1  0.21481900  0.74897100  0.14182700  1
  C  673  1  0.21461600  0.72010200  0.14365000  1
  C  674  1  0.24350600  0.70451200  0.14323400  1
  C  675  1  0.27340100  0.71854700  0.14108600  1
  C  679  1  0.24147000  0.67420000  0.14374200  1
  C  683  1  0.18638800  0.76374000  0.13745800  1
  C  685  1  0.30389800  0.70691200  0.13649000  1
  C  687  1  0.78042400  0.74975100  0.37858200  1
  C  688  1  0.78090400  0.72088900  0.37668900  1
  C  689  1  0.75216200  0.70512700  0.37708100  1
  C  690  1  0.72213200  0.71897300  0.37926200  1
  C  694  1  0.75447600  0.67482900  0.37653200  1
  C  698  1  0.80871500  0.76468800  0.38297500  1
  C  700  1  0.69179300  0.70710400  0.38392900  1
  C  702  1  0.21506900  0.22395700  0.37857400  1
  C  703  1  0.21456100  0.25282400  0.37669800  1
  C  704  1  0.24328500  0.26861300  0.37705600  1
  C  705  1  0.27333700  0.25479700  0.37923300  1
  C  709  1  0.24092600  0.29890700  0.37650500  1
  C  713  1  0.18679500  0.20905400  0.38308200  1
  C  715  1  0.30367600  0.26669500  0.38386400  1
  C  717  1  0.21606700  0.75006300  0.87504800  1
  C  718  1  0.21538300  0.72123500  0.87287100  1
  C  719  1  0.24401100  0.70530300  0.87329500  1
  C  720  1  0.27409700  0.71896100  0.87584500  1
  C  724  1  0.24146700  0.67502800  0.87250500  1
  C  728  1  0.18798100  0.76502800  0.87990700  1
  C  730  1  0.30421100  0.70689300  0.88085100  1
  C  732  1  0.78104400  0.22378600  0.87511000  1
  C  733  1  0.78172500  0.25261800  0.87299900  1
  C  734  1  0.75308200  0.26852600  0.87346500  1
  C  735  1  0.72300500  0.25483500  0.87593600  1
  C  739  1  0.75559800  0.29880800  0.87277400  1
  C  743  1  0.80917800  0.20881700  0.87985700  1
  C  745  1  0.69287300  0.26686400  0.88095100  1
  C  747  1  0.21624300  0.22303700  0.64304300  1
  C  748  1  0.21523000  0.25186400  0.64510400  1
  C  749  1  0.24370400  0.26796600  0.64469900  1
  C  750  1  0.27396000  0.25449300  0.64240600  1
  C  754  1  0.24087300  0.29823300  0.64528400  1
  C  758  1  0.18831400  0.20784600  0.63823000  1
  C  760  1  0.30389100  0.26674800  0.63723500  1
  C  762  1  0.78085900  0.74975200  0.64295400  1
  C  763  1  0.78186500  0.72093000  0.64505300  1
  C  764  1  0.75338800  0.70483000  0.64471000  1
  C  765  1  0.72315100  0.71831700  0.64233500  1
  C  769  1  0.75621300  0.67456900  0.64540200  1
  C  773  1  0.80878900  0.76491700  0.63811000  1
  C  775  1  0.69316700  0.70605900  0.63728600  1
  C  777  1  0.01732300  0.14318600  0.28043600  1
  C  778  1  0.02371500  0.12161500  0.26444800  1
  C  779  1  0.00568100  0.11847200  0.24323300  1
  C  780  1  0.98073700  0.13774800  0.23829300  1
  C  784  1  0.01332200  0.09470700  0.22779500  1
  C  788  1  0.03299700  0.14552800  0.30222400  1
  C  790  1  0.96027100  0.13819100  0.21841300  1
  C  792  1  0.97823600  0.83006200  0.28063100  1
  C  793  1  0.97093500  0.85081200  0.26403400  1
  C  794  1  0.98885600  0.85370600  0.24274600  1
  C  795  1  0.01468200  0.83509600  0.23843700  1
  C  799  1  0.98015900  0.87653200  0.22654000  1
  C  803  1  0.96267200  0.82803700  0.30246800  1
  C  805  1  0.03513400  0.83459000  0.21859000  1
  C  807  1  0.97928200  0.82989800  0.73866400  1
  C  808  1  0.97322700  0.85186900  0.75430500  1
  C  809  1  0.99108800  0.85510800  0.77558400  1
  C  810  1  0.01542600  0.83544600  0.78100700  1
  C  814  1  0.98389800  0.87934800  0.79056700  1
  C  818  1  0.96369000  0.82740300  0.71685800  1
  C  820  1  0.03575300  0.83504100  0.80097400  1
  C  822  1  0.01766000  0.14342900  0.73847500  1
  C  823  1  0.02478800  0.12235400  0.75479900  1
  C  824  1  0.00706600  0.11936500  0.77616400  1
  C  825  1  0.98166900  0.13827400  0.78087500  1
  C  829  1  0.01546300  0.09610200  0.79197600  1
  C  833  1  0.03310600  0.14557700  0.71660200  1
  C  835  1  0.96136000  0.13873700  0.80081300  1
  C  837  1  0.51752900  0.64276600  0.28028100  1
  C  838  1  0.52380000  0.62113200  0.26433000  1
  C  839  1  0.50567900  0.61797300  0.24316100  1
  C  840  1  0.48082900  0.63733300  0.23822300  1
  C  844  1  0.51314200  0.59411800  0.22777400  1
  C  848  1  0.53321800  0.64510100  0.30205300  1
  C  850  1  0.46037300  0.63781800  0.21836000  1
  C  852  1  0.47815300  0.33046500  0.28058300  1
  C  853  1  0.47060900  0.35097500  0.26381500  1
  C  854  1  0.48854000  0.35380900  0.24253000  1
  C  855  1  0.51457600  0.33536200  0.23840900  1
  C  859  1  0.47960500  0.37637000  0.22610500  1
  C  863  1  0.46261800  0.32853300  0.30242900  1
  C  865  1  0.53499500  0.33481100  0.21856900  1
  C  867  1  0.47919200  0.33028900  0.73878300  1
  C  868  1  0.47342400  0.35245000  0.75428100  1
  C  869  1  0.49131400  0.35567900  0.77554500  1
  C  870  1  0.51535000  0.33579600  0.78109400  1
  C  874  1  0.48444700  0.38010700  0.79038300  1
  C  878  1  0.46362200  0.32778700  0.71698300  1
  C  880  1  0.53558700  0.33530300  0.80109300  1
  C  882  1  0.51778800  0.64301100  0.73860900  1
  C  883  1  0.52414600  0.62134400  0.75451000  1
  C  884  1  0.50632500  0.61827100  0.77581100  1
  C  885  1  0.48168600  0.63775900  0.78092700  1
  C  889  1  0.51386100  0.59437700  0.79113600  1
  C  893  1  0.53330600  0.64530500  0.71678500  1
  C  895  1  0.46145600  0.63831400  0.80090300  1
  N  23  1  0.95587700  0.11727000  0.20497800  1
  N  24  1  0.94557700  0.04799000  0.14783100  1
  N  25  1  0.81291400  0.18279900  0.13910600  1
  N  26  1  0.87517900  0.15073700  0.07330800  1
  N  49  1  0.03970400  0.85559400  0.20529100  1
  N  50  1  0.05133100  0.92523100  0.14823700  1
  N  51  1  0.18248600  0.78995000  0.13931600  1
  N  52  1  0.12054400  0.82240200  0.07348400  1
  N  75  1  0.95482300  0.85012300  0.31334600  1
  N  76  1  0.94762500  0.92347800  0.36705900  1
  N  77  1  0.81251400  0.79086200  0.38070800  1
  N  78  1  0.87433100  0.82477700  0.44605100  1
  N  101  1  0.04041500  0.12361200  0.31353000  1
  N  102  1  0.04909400  0.04992600  0.36726400  1
  N  103  1  0.18289300  0.18290300  0.38072200  1
  N  104  1  0.12156100  0.14877400  0.44620100  1
  N  127  1  0.03962200  0.85581200  0.81466700  1
  N  128  1  0.05036300  0.92529900  0.87164000  1
  N  129  1  0.18439800  0.79124400  0.87788700  1
  N  130  1  0.13084600  0.82573600  0.94557000  1
  N  153  1  0.95726700  0.11786200  0.81435000  1
  N  154  1  0.94516800  0.04802400  0.87121200  1
  N  155  1  0.81272700  0.18260400  0.87778500  1
  N  156  1  0.86614600  0.14777400  0.94539200  1
  N  179  1  0.04060800  0.12353600  0.70552600  1
  N  180  1  0.04837800  0.04980500  0.65224600  1
  N  181  1  0.18478500  0.18169400  0.64080800  1
  N  182  1  0.13159600  0.14518700  0.57374400  1
  N  205  1  0.95664100  0.84924800  0.70532800  1
  N  206  1  0.94737800  0.92332900  0.65207100  1
  N  207  1  0.81234500  0.79106400  0.64070100  1
  N  208  1  0.86523000  0.82770500  0.57360700  1
  N  231  1  0.45588100  0.61686900  0.20498000  1
  N  232  1  0.44560800  0.54805900  0.14741500  1
  N  233  1  0.31235600  0.68152900  0.13888700  1
  N  234  1  0.37716800  0.65222500  0.07342000  1
  N  257  1  0.53970700  0.35587800  0.20538100  1
  N  258  1  0.55119400  0.42506600  0.14792100  1
  N  259  1  0.68301500  0.29118000  0.13907500  1
  N  260  1  0.61842600  0.32084100  0.07360800  1
  N  283  1  0.45456800  0.35068400  0.31311800  1
  N  284  1  0.44765700  0.42345700  0.36746200  1
  N  285  1  0.31203900  0.29201900  0.38090800  1
  N  286  1  0.37631800  0.32331900  0.44600300  1
  N  309  1  0.54065300  0.62316000  0.31330900  1
  N  310  1  0.54901200  0.55004400  0.36766400  1
  N  311  1  0.68337600  0.68180000  0.38094200  1
  N  312  1  0.61947400  0.65036800  0.44613700  1
  N  335  1  0.53958600  0.35609300  0.81474100  1
  N  336  1  0.55021200  0.42509500  0.87217000  1
  N  337  1  0.68475700  0.29228800  0.87830800  1
  N  338  1  0.62846200  0.32393800  0.94577700  1
  N  361  1  0.45729700  0.61747300  0.81446200  1
  N  362  1  0.44534800  0.54817500  0.87184200  1
  N  363  1  0.31234300  0.68148400  0.87812900  1
  N  364  1  0.36839500  0.64950900  0.94558800  1
  N  387  1  0.54044200  0.62335000  0.70545600  1
  N  388  1  0.54823300  0.54997900  0.65180200  1
  N  389  1  0.68511900  0.68071700  0.64052100  1
  N  390  1  0.62932900  0.64693000  0.57354600  1
  N  413  1  0.45674400  0.34961500  0.70537600  1
  N  414  1  0.44749100  0.42323400  0.65162900  1
  N  415  1  0.31202800  0.29205800  0.64053700  1
  N  416  1  0.36740000  0.32601500  0.57347700  1
  N  421  1  0.89497600  0.15223500  0.00141400  1
  N  423  1  0.88872500  0.15186100  0.02429700  1
  N  436  1  0.10138000  0.82128400  0.00147500  1
  N  438  1  0.10737500  0.82159700  0.02440000  1
  N  451  1  0.89422800  0.82355200  0.51778600  1
  N  453  1  0.88793300  0.82390600  0.49491200  1
  N  466  1  0.10209000  0.14938200  0.51800000  1
  N  468  1  0.10820000  0.14917100  0.49510100  1
  N  481  1  0.39716000  0.65325700  0.00157600  1
  N  483  1  0.39075000  0.65315200  0.02443500  1
  N  496  1  0.59911100  0.32005400  0.00163300  1
  N  498  1  0.60526300  0.32012000  0.02453500  1
  N  511  1  0.39637500  0.32264100  0.51769900  1
  N  513  1  0.38995000  0.32272000  0.49484600  1
  N  526  1  0.59990800  0.65059000  0.51788800  1
  N  528  1  0.60615700  0.65062900  0.49501600  1
  N  541  1  0.98282100  0.96822500  0.14823800  1
  N  543  1  0.97039300  0.99286200  0.14753700  1
  N  556  1  0.98229300  0.00451400  0.36549900  1
  N  558  1  0.97078100  0.97954300  0.36612500  1
  N  571  1  0.01346000  0.00503100  0.87153100  1
  N  573  1  0.02580800  0.98036700  0.87223400  1
  N  586  1  0.01398700  0.96877500  0.65364400  1
  N  588  1  0.02543000  0.99376400  0.65300400  1
  N  601  1  0.48272600  0.46820400  0.14802700  1
  N  603  1  0.47033000  0.49285300  0.14728100  1
  N  616  1  0.48222800  0.50456000  0.36584500  1
  N  618  1  0.47073600  0.47958100  0.36646400  1
  N  631  1  0.51357800  0.50501300  0.87215900  1
  N  633  1  0.52585200  0.48031800  0.87280500  1
  N  646  1  0.51404200  0.46881800  0.65318600  1
  N  648  1  0.52543000  0.49383000  0.65256700  1
  N  661  1  0.72418300  0.22636600  0.13945200  1
  N  663  1  0.75105600  0.21217800  0.13965800  1
  N  676  1  0.27124400  0.74636700  0.13944900  1
  N  678  1  0.24437800  0.76056300  0.13971200  1
  N  691  1  0.72402000  0.74679800  0.38097900  1
  N  693  1  0.75075300  0.76115600  0.38073700  1
  N  706  1  0.27148200  0.22697300  0.38097900  1
  N  708  1  0.24476300  0.21259800  0.38075400  1
  N  721  1  0.27240100  0.74676700  0.87778500  1
  N  723  1  0.24578000  0.76126500  0.87751400  1
  N  736  1  0.72472200  0.22701700  0.87775700  1
  N  738  1  0.75135200  0.21252700  0.87746300  1
  N  751  1  0.27254500  0.22666600  0.64052800  1
  N  753  1  0.24607100  0.21199100  0.64076000  1
  N  766  1  0.72454900  0.74614000  0.64044300  1
  N  768  1  0.75103200  0.76080700  0.64065700  1
  N  781  1  0.97683200  0.15827100  0.25449200  1
  N  783  1  0.99364700  0.16088000  0.27415800  1
  N  796  1  0.01946000  0.81532000  0.25520200  1
  N  798  1  0.00270500  0.81291400  0.27490100  1
  N  811  1  0.01902400  0.81456700  0.76511500  1
  N  813  1  0.00240900  0.81188700  0.74536500  1
  N  826  1  0.97704700  0.15834100  0.76434800  1
  N  828  1  0.99359400  0.16081900  0.74455900  1
  N  841  1  0.47703900  0.65791400  0.25437600  1
  N  843  1  0.49390700  0.66051600  0.27401100  1
  N  856  1  0.51957300  0.31579100  0.25531200  1
  N  858  1  0.50281800  0.31345600  0.27501400  1
  N  871  1  0.51866800  0.31475100  0.76534100  1
  N  873  1  0.50204400  0.31209000  0.74559900  1
  N  886  1  0.47779400  0.65835300  0.76479500  1
  N  888  1  0.49439500  0.66088600  0.74504100  1
  O  8  1  0.82602500  0.18252000  0.09104300  1
  O  15  1  0.96819900  0.06682900  0.18970900  1
  O  17  1  0.84968800  0.14920900  0.16970700  1
  O  18  1  0.89895800  0.07790400  0.12298600  1
  O  34  1  0.16959000  0.79051800  0.09124000  1
  O  41  1  0.02860600  0.90643500  0.19061800  1
  O  43  1  0.14555700  0.82334600  0.16997600  1
  O  44  1  0.09690300  0.89487600  0.12344600  1
  O  60  1  0.82511400  0.79271000  0.42884900  1
  O  67  1  0.97130600  0.90024000  0.32639800  1
  O  69  1  0.84989900  0.82302000  0.34951200  1
  O  70  1  0.90056300  0.89599300  0.39333200  1
  O  86  1  0.17069500  0.18086200  0.42891100  1
  O  93  1  0.02477800  0.07322400  0.32616600  1
  O  95  1  0.14519500  0.15091400  0.34957300  1
  O  96  1  0.09529700  0.07785300  0.39332600  1
  O  112  1  0.17650700  0.79413900  0.92613300  1
  O  119  1  0.02648500  0.90597400  0.83031000  1
  O  121  1  0.14511700  0.82354200  0.84803700  1
  O  122  1  0.09828600  0.89614700  0.89560300  1
  O  138  1  0.82051600  0.17943300  0.92599700  1
  O  145  1  0.96914300  0.06727000  0.82937400  1
  O  147  1  0.85211000  0.15048100  0.84784500  1
  O  148  1  0.89836300  0.07767700  0.89517600  1
  O  164  1  0.17736700  0.17709700  0.59260200  1
  O  171  1  0.02369700  0.07351800  0.69238900  1
  O  173  1  0.14488500  0.15092000  0.67126100  1
  O  174  1  0.09660000  0.07658100  0.62676500  1
  O  190  1  0.81950800  0.79578900  0.59249100  1
  O  197  1  0.97270300  0.89955100  0.69263300  1
  O  199  1  0.85248400  0.82168700  0.67113800  1
  O  200  1  0.90004700  0.89609000  0.62676200  1
  O  216  1  0.32713600  0.68348900  0.09116500  1
  O  223  1  0.46787200  0.56641000  0.18956900  1
  O  225  1  0.34917100  0.64817400  0.16923600  1
  O  226  1  0.39963100  0.57860800  0.12236300  1
  O  242  1  0.66838400  0.28950400  0.09134700  1
  O  249  1  0.52899300  0.40675800  0.19063000  1
  O  251  1  0.64606200  0.32432600  0.16951800  1
  O  252  1  0.59608500  0.39409900  0.12286900  1
  O  268  1  0.32625700  0.29173500  0.42878600  1
  O  275  1  0.47086600  0.40078900  0.32642100  1
  O  277  1  0.34942900  0.32399300  0.34993300  1
  O  278  1  0.40125700  0.39532600  0.39398400  1
  O  294  1  0.66947600  0.68194600  0.42885600  1
  O  301  1  0.52518900  0.57279100  0.32618900  1
  O  303  1  0.64571400  0.64997800  0.34999000  1
  O  304  1  0.59457900  0.57858900  0.39397200  1
  O  320  1  0.67502000  0.29313400  0.92646300  1
  O  327  1  0.52679000  0.40627900  0.83050400  1
  O  329  1  0.64551200  0.32437800  0.84864900  1
  O  330  1  0.59742700  0.39527200  0.89641800  1
  O  346  1  0.32190000  0.68037100  0.92627200  1
  O  353  1  0.46895000  0.56691200  0.82972000  1
  O  355  1  0.35171400  0.64954900  0.84842100  1
  O  356  1  0.39918000  0.57847900  0.89603300  1
  O  372  1  0.67595600  0.67809300  0.59231000  1
  O  379  1  0.52383400  0.57328800  0.69220900  1
  O  381  1  0.64526000  0.65011300  0.67077900  1
  O  382  1  0.59588600  0.57733600  0.62605700  1
  O  398  1  0.32085800  0.29485200  0.59230200  1
  O  405  1  0.47248500  0.39994100  0.69250300  1
  O  407  1  0.35213800  0.32253000  0.67074900  1
  O  408  1  0.40074700  0.39538000  0.62608100  1
