# generated using pymatgen
data_H13C20(N3O2)2
_symmetry_space_group_name_H-M   'P 1'
_cell_length_a   37.37865000
_cell_length_b   37.37860000
_cell_length_c   47.26190000
_cell_angle_alpha   90.00000000
_cell_angle_beta   90.00000000
_cell_angle_gamma   119.99986725
_symmetry_Int_Tables_number   1
_chemical_formula_structural   H13C20(N3O2)2
_chemical_formula_sum   'H312 C480 N144 O96'
_cell_volume   57185.90949177
_cell_formula_units_Z   24
loop_
 _symmetry_equiv_pos_site_id
 _symmetry_equiv_pos_as_xyz
  1  'x, y, z'
loop_
 _atom_site_type_symbol
 _atom_site_label
 _atom_site_symmetry_multiplicity
 _atom_site_fract_x
 _atom_site_fract_y
 _atom_site_fract_z
 _atom_site_occupancy
  H  7  1  0.81896900  0.17408800  0.95086200  1
  H  16  1  0.80300800  0.16277900  0.03220000  1
  H  19  1  0.77917900  0.22698600  0.02807200  1
  H  20  1  0.81532700  0.27582800  0.03034200  1
  H  21  1  0.70452100  0.15788300  0.94702400  1
  H  22  1  0.75387600  0.19279900  0.94838500  1
  H  23  1  0.64070000  0.05331800  0.02188900  1
  H  24  1  0.66809400  0.05444500  0.04927300  1
  H  25  1  0.93636300  0.33191700  0.96801500  1
  H  26  1  0.93916200  0.30307600  0.94300600  1
  H  37  1  0.32813600  0.15944900  0.28416200  1
  H  46  1  0.33281000  0.17541100  0.36552700  1
  H  49  1  0.42081700  0.19924900  0.36137800  1
  H  50  1  0.43350500  0.16310000  0.36365900  1
  H  51  1  0.42639200  0.27385200  0.28032600  1
  H  52  1  0.41194900  0.22449800  0.28170300  1
  H  53  1  0.38538000  0.33764100  0.35507500  1
  H  54  1  0.35925800  0.31030200  0.38251400  1
  H  55  1  0.36856800  0.04205100  0.30131900  1
  H  56  1  0.33699200  0.03925400  0.27627400  1
  H  67  1  0.80441300  0.65035300  0.61755500  1
  H  76  1  0.81570900  0.64566600  0.69891000  1
  H  79  1  0.75150500  0.55769400  0.69478600  1
  H  80  1  0.70265700  0.54498000  0.69703900  1
  H  81  1  0.82049100  0.55204100  0.61371000  1
  H  82  1  0.78556200  0.56645900  0.61511300  1
  H  83  1  0.92544000  0.59319800  0.68836900  1
  H  84  1  0.92425400  0.61934600  0.71580500  1
  H  85  1  0.64648300  0.60977300  0.63458100  1
  H  86  1  0.67531300  0.64138900  0.60957600  1
  H  97  1  0.14795300  0.81514300  0.95112600  1
  H  106  1  0.16484600  0.82623400  0.03222500  1
  H  109  1  0.18987900  0.76249900  0.02733100  1
  H  110  1  0.15419000  0.71347700  0.02951500  1
  H  111  1  0.26300900  0.83223100  0.94646800  1
  H  112  1  0.21365700  0.79730600  0.94783300  1
  H  113  1  0.32714500  0.93565600  0.02210700  1
  H  114  1  0.29979500  0.93410700  0.04960100  1
  H  115  1  0.03165900  0.65701800  0.96879200  1
  H  116  1  0.02812200  0.68571400  0.94394200  1
  H  127  1  0.64043600  0.83058500  0.28445600  1
  H  136  1  0.63464400  0.81365800  0.36556600  1
  H  139  1  0.54579800  0.78851900  0.36061900  1
  H  140  1  0.53245300  0.82419800  0.36283000  1
  H  141  1  0.54245600  0.71551700  0.27980300  1
  H  142  1  0.55693000  0.76488200  0.28115700  1
  H  143  1  0.58161800  0.65132500  0.35547300  1
  H  144  1  0.60748200  0.67868500  0.38295200  1
  H  145  1  0.59867000  0.94688800  0.30225200  1
  H  146  1  0.63087900  0.95043500  0.27737800  1
  H  157  1  0.16332500  0.33807300  0.61780200  1
  H  166  1  0.15222700  0.34390200  0.69891000  1
  H  169  1  0.21592700  0.43269900  0.69397600  1
  H  170  1  0.26494800  0.44603500  0.69618000  1
  H  171  1  0.14621100  0.43601000  0.61311600  1
  H  172  1  0.18112700  0.42157000  0.61448300  1
  H  173  1  0.04284300  0.39683100  0.68878100  1
  H  174  1  0.04440600  0.37106100  0.71629000  1
  H  175  1  0.32153600  0.38012100  0.63540000  1
  H  176  1  0.29290700  0.34791200  0.61052400  1
  H  187  1  0.95124500  0.37820600  0.01233200  1
  H  194  1  0.02623300  0.60954800  0.02175800  1
  H  195  1  0.09053000  0.57833900  0.96250700  1
  H  196  1  0.86976800  0.41235500  0.97576400  1
  H  197  1  0.03766500  0.50780700  0.96494400  1
  H  198  1  0.92260300  0.48304000  0.97706100  1
  H  207  1  0.85213100  0.33996500  0.97691000  1
  H  208  1  0.11587800  0.64980000  0.97413500  1
  H  215  1  0.39994100  0.02701200  0.34564300  1
  H  222  1  0.55656600  0.95234200  0.35506900  1
  H  223  1  0.46103500  0.88793200  0.29585200  1
  H  224  1  0.51552300  0.10858100  0.30904600  1
  H  225  1  0.44327200  0.94073200  0.29830600  1
  H  226  1  0.53348500  0.05581900  0.31039200  1
  H  235  1  0.46119500  0.12671400  0.31072000  1
  H  236  1  0.50705400  0.86249100  0.30761200  1
  H  243  1  0.60014800  0.57851900  0.67895100  1
  H  250  1  0.36887400  0.42206200  0.68851700  1
  H  251  1  0.40001200  0.51750000  0.62921500  1
  H  252  1  0.56611600  0.46288600  0.64243500  1
  H  253  1  0.47054300  0.53516400  0.63161700  1
  H  254  1  0.49539800  0.44493800  0.64376800  1
  H  263  1  0.63851000  0.51736000  0.64390800  1
  H  264  1  0.32865800  0.47139600  0.64084600  1
  H  271  1  0.56795300  0.61138200  0.30130000  1
  H  278  1  0.41315300  0.37997400  0.28829600  1
  H  279  1  0.50697200  0.41046700  0.34877000  1
  H  280  1  0.44942700  0.57573900  0.33320500  1
  H  281  1  0.52367100  0.48078600  0.34730600  1
  H  282  1  0.43250400  0.50532400  0.33259400  1
  H  291  1  0.50165700  0.64847500  0.33070700  1
  H  292  1  0.46611500  0.34014500  0.33271500  1
  H  299  1  0.36721800  0.96204300  0.96811500  1
  H  306  1  0.59856200  0.03887500  0.95472300  1
  H  307  1  0.56814100  0.10191200  0.01547000  1
  H  308  1  0.40286300  0.87906600  0.99981700  1
  H  309  1  0.49786900  0.04819100  0.01410300  1
  H  310  1  0.47329400  0.93254100  0.99918800  1
  H  319  1  0.33015000  0.85854500  0.99732200  1
  H  320  1  0.63836000  0.13143700  0.99938900  1
  H  327  1  0.01649200  0.41049500  0.63468300  1
  H  334  1  0.93991400  0.56534100  0.62162800  1
  H  335  1  0.87661800  0.47153900  0.68211600  1
  H  336  1  0.09941800  0.52904900  0.66652000  1
  H  337  1  0.93023800  0.45484000  0.68064200  1
  H  338  1  0.04594200  0.54600000  0.66589000  1
  H  347  1  0.11997100  0.47689400  0.66393900  1
  H  348  1  0.84714100  0.51238200  0.66606100  1
  H  355  1  0.70677100  0.92184000  0.21758600  1
  H  362  1  0.73314000  0.09601900  0.11428300  1
  H  363  1  0.73724800  0.99605400  0.07647900  1
  H  364  1  0.60225000  0.93398400  0.20256800  1
  H  365  1  0.71488900  0.95846700  0.11948400  1
  H  366  1  0.63637800  0.97896100  0.16402700  1
  H  375  1  0.59873100  0.88343200  0.23609300  1
  H  376  1  0.74479200  0.05204500  0.04742600  1
  H  383  1  0.18812300  0.27170100  0.55093900  1
  H  390  1  0.33599900  0.24539500  0.44764000  1
  H  391  1  0.23184000  0.24112800  0.40986100  1
  H  392  1  0.30475000  0.37624200  0.53587000  1
  H  393  1  0.21660900  0.26349300  0.45285100  1
  H  394  1  0.31561200  0.34208300  0.49735200  1
  H  403  1  0.25763300  0.37978500  0.56935300  1
  H  404  1  0.28034600  0.23373200  0.38080200  1
  H  411  1  0.05674900  0.79035100  0.88422500  1
  H  418  1  0.88243800  0.64257000  0.78097000  1
  H  419  1  0.98243000  0.74661800  0.74316500  1
  H  420  1  0.04449200  0.67363500  0.86923600  1
  H  421  1  0.02002900  0.76181400  0.78616400  1
  H  422  1  0.99948100  0.66278500  0.83071600  1
  H  431  1  0.09515200  0.72071500  0.90267500  1
  H  432  1  0.92633300  0.69828100  0.71410800  1
  H  439  1  0.26141500  0.06813500  0.21718800  1
  H  446  1  0.23528800  0.89355900  0.11434200  1
  H  447  1  0.23053100  0.99304400  0.07632000  1
  H  448  1  0.36617100  0.05644400  0.20205100  1
  H  449  1  0.25296700  0.03090500  0.11919800  1
  H  450  1  0.33195200  0.01112500  0.16368200  1
  H  459  1  0.36958400  0.10686800  0.23565500  1
  H  460  1  0.22361500  0.93722900  0.04736400  1
  H  467  1  0.77988000  0.71706900  0.55051400  1
  H  474  1  0.63149300  0.74328400  0.44766300  1
  H  475  1  0.73568000  0.74789200  0.40965600  1
  H  476  1  0.66337200  0.61235300  0.53545900  1
  H  477  1  0.75106800  0.72545100  0.45255500  1
  H  478  1  0.65226300  0.64655300  0.49707900  1
  H  487  1  0.71043000  0.60893900  0.56898700  1
  H  488  1  0.68690400  0.75498700  0.38071500  1
  H  495  1  0.91029600  0.19866400  0.88389400  1
  H  502  1  0.08488000  0.34708900  0.78103500  1
  H  503  1  0.98539800  0.24282800  0.74302800  1
  H  504  1  0.92201100  0.31511800  0.86873700  1
  H  505  1  0.94754000  0.22740900  0.78590600  1
  H  506  1  0.96733100  0.32620000  0.83037100  1
  H  515  1  0.87158600  0.26812800  0.90234300  1
  H  516  1  0.04114400  0.29175300  0.71408700  1
  H  523  1  0.68520300  0.12058200  0.46421200  1
  H  532  1  0.66924200  0.10927300  0.54555000  1
  H  535  1  0.64541300  0.17348000  0.54142200  1
  H  536  1  0.68156100  0.22232200  0.54369200  1
  H  537  1  0.57075500  0.10437700  0.46037400  1
  H  538  1  0.62011000  0.13929300  0.46173500  1
  H  539  1  0.50693400  0.99981200  0.53523900  1
  H  540  1  0.53432800  0.00093900  0.56262300  1
  H  541  1  0.80259700  0.27841100  0.48136500  1
  H  542  1  0.80539600  0.24957000  0.45635600  1
  H  553  1  0.19437000  0.10594300  0.79751200  1
  H  562  1  0.19904400  0.12190500  0.87887700  1
  H  565  1  0.28705100  0.14574300  0.87472800  1
  H  566  1  0.29973900  0.10959400  0.87700900  1
  H  567  1  0.29262600  0.22034600  0.79367600  1
  H  568  1  0.27818300  0.17099200  0.79505300  1
  H  569  1  0.25161400  0.28413480  0.86842500  1
  H  570  1  0.22549200  0.25679580  0.89586400  1
  H  571  1  0.23480200  0.98854500  0.81466900  1
  H  572  1  0.20322600  0.98574800  0.78962400  1
  H  583  1  0.67064700  0.59684700  0.13090500  1
  H  592  1  0.68194300  0.59216000  0.21226000  1
  H  595  1  0.61773900  0.50418800  0.20813600  1
  H  596  1  0.56889100  0.49147400  0.21038900  1
  H  597  1  0.68672500  0.49853500  0.12706000  1
  H  598  1  0.65179600  0.51295300  0.12846300  1
  H  599  1  0.79167400  0.53969200  0.20171900  1
  H  600  1  0.79048800  0.56584000  0.22915500  1
  H  601  1  0.51271700  0.55626680  0.14793100  1
  H  602  1  0.54154700  0.58788280  0.12292600  1
  H  613  1  0.01418700  0.76163700  0.46447600  1
  H  622  1  0.03108000  0.77272800  0.54557500  1
  H  625  1  0.05611300  0.70899300  0.54068100  1
  H  626  1  0.02042400  0.65997100  0.54286500  1
  H  627  1  0.12924300  0.77872500  0.45981800  1
  H  628  1  0.07989100  0.74380000  0.46118300  1
  H  629  1  0.19337900  0.88215000  0.53545700  1
  H  630  1  0.16602900  0.88060100  0.56295100  1
  H  631  1  0.89789300  0.60351200  0.48214200  1
  H  632  1  0.89435600  0.63220800  0.45729200  1
  H  643  1  0.50667000  0.77707900  0.79780600  1
  H  652  1  0.50087800  0.76015200  0.87891600  1
  H  655  1  0.41203200  0.73501300  0.87396900  1
  H  656  1  0.39868700  0.77069200  0.87618000  1
  H  657  1  0.40869000  0.66201100  0.79315300  1
  H  658  1  0.42316400  0.71137600  0.79450700  1
  H  659  1  0.44785200  0.59781900  0.86882300  1
  H  660  1  0.47371600  0.62517900  0.89630200  1
  H  661  1  0.46490400  0.89338200  0.81560200  1
  H  662  1  0.49711300  0.89692900  0.79072800  1
  H  673  1  0.02955900  0.28456700  0.13115200  1
  H  682  1  0.01846100  0.29039600  0.21226000  1
  H  685  1  0.08216100  0.37919300  0.20732600  1
  H  686  1  0.13118200  0.39252900  0.20953000  1
  H  687  1  0.01244500  0.38250400  0.12646600  1
  H  688  1  0.04736100  0.36806400  0.12783300  1
  H  689  1  0.90907700  0.34332500  0.20213100  1
  H  690  1  0.91064000  0.31755500  0.22964000  1
  H  691  1  0.18777000  0.32661500  0.14875000  1
  H  692  1  0.15914100  0.29440600  0.12387400  1
  H  703  1  0.81747900  0.32470000  0.52568200  1
  H  710  1  0.89246700  0.55604200  0.53510800  1
  H  711  1  0.95676400  0.52483300  0.47585700  1
  H  712  1  0.73600200  0.35884900  0.48911400  1
  H  713  1  0.90389900  0.45430100  0.47829400  1
  H  714  1  0.78883700  0.42953400  0.49041100  1
  H  723  1  0.71836500  0.28645900  0.49026000  1
  H  724  1  0.98211200  0.59629400  0.48748500  1
  H  731  1  0.26617500  0.97350600  0.85899300  1
  H  738  1  0.42280000  0.89883600  0.86841900  1
  H  739  1  0.32726900  0.83442600  0.80920200  1
  H  740  1  0.38175700  0.05507500  0.82239600  1
  H  741  1  0.30950600  0.88722600  0.81165600  1
  H  742  1  0.39971900  0.00231300  0.82374200  1
  H  751  1  0.32742900  0.07320800  0.82407000  1
  H  752  1  0.37328800  0.80898500  0.82096200  1
  H  759  1  0.46638200  0.52501280  0.19230100  1
  H  766  1  0.23510800  0.36855600  0.20186700  1
  H  767  1  0.26624600  0.46399400  0.14256500  1
  H  768  1  0.43235000  0.40938000  0.15578500  1
  H  769  1  0.33677700  0.48165800  0.14496700  1
  H  770  1  0.36163200  0.39143180  0.15711800  1
  H  779  1  0.50474400  0.46385400  0.15725800  1
  H  780  1  0.19489200  0.41789000  0.15419600  1
  H  787  1  0.43418700  0.55787600  0.81465000  1
  H  794  1  0.27938700  0.32646780  0.80164600  1
  H  795  1  0.37320600  0.35696100  0.86212000  1
  H  796  1  0.31566100  0.52223300  0.84655500  1
  H  797  1  0.38990500  0.42727980  0.86065600  1
  H  798  1  0.29873800  0.45181800  0.84594400  1
  H  807  1  0.36789100  0.59496900  0.84405700  1
  H  808  1  0.33234900  0.28663900  0.84606500  1
  H  815  1  0.23345200  0.90853700  0.48146500  1
  H  822  1  0.46479600  0.98536900  0.46807300  1
  H  823  1  0.43437500  0.04840600  0.52882000  1
  H  824  1  0.26909700  0.82556000  0.51316700  1
  H  825  1  0.36410300  0.99468500  0.52745300  1
  H  826  1  0.33952800  0.87903500  0.51253800  1
  H  835  1  0.19638400  0.80503900  0.51067200  1
  H  836  1  0.50459400  0.07793100  0.51273900  1
  H  843  1  0.88272600  0.35698900  0.14803300  1
  H  850  1  0.80614800  0.51183500  0.13497800  1
  H  851  1  0.74285200  0.41803300  0.19546600  1
  H  852  1  0.96565200  0.47554300  0.17987000  1
  H  853  1  0.79647200  0.40133400  0.19399200  1
  H  854  1  0.91217600  0.49249400  0.17924000  1
  H  863  1  0.98620500  0.42338800  0.17728900  1
  H  864  1  0.71337500  0.45887600  0.17941100  1
  H  871  1  0.57300500  0.86833400  0.73093600  1
  H  878  1  0.59937400  0.04251300  0.62763300  1
  H  879  1  0.60348200  0.94254800  0.58982900  1
  H  880  1  0.46848400  0.88047800  0.71591800  1
  H  881  1  0.58112300  0.90496100  0.63283400  1
  H  882  1  0.50261200  0.92545500  0.67737700  1
  H  891  1  0.46496500  0.82992600  0.74944300  1
  H  892  1  0.61102600  0.99853900  0.56077600  1
  H  899  1  0.05435700  0.21819500  0.06428900  1
  H  906  1  0.20223300  0.19188900  0.96099010  1
  H  907  1  0.09807400  0.18762180  0.92321110  1
  H  908  1  0.17098400  0.32273600  0.04922000  1
  H  909  1  0.08284300  0.20998700  0.96620110  1
  H  910  1  0.18184600  0.28857700  0.01070200  1
  H  919  1  0.12386700  0.32627900  0.08270300  1
  H  920  1  0.14658000  0.18022580  0.89415200  1
  H  927  1  0.92298300  0.73684500  0.39757500  1
  H  934  1  0.74867200  0.58906400  0.29432000  1
  H  935  1  0.84866400  0.69311200  0.25651500  1
  H  936  1  0.91072600  0.62012900  0.38258600  1
  H  937  1  0.88626300  0.70830800  0.29951400  1
  H  938  1  0.86571500  0.60927900  0.34406600  1
  H  947  1  0.96138600  0.66720900  0.41602500  1
  H  948  1  0.79256700  0.64477500  0.22745800  1
  H  955  1  0.12764900  0.01462900  0.73053800  1
  H  962  1  0.10152200  0.84005300  0.62769200  1
  H  963  1  0.09676500  0.93953800  0.58967000  1
  H  964  1  0.23240500  0.00293800  0.71540100  1
  H  965  1  0.11920100  0.97739900  0.63254800  1
  H  966  1  0.19818600  0.95761900  0.67703200  1
  H  975  1  0.23581800  0.05336200  0.74900500  1
  H  976  1  0.08984900  0.88372300  0.56071400  1
  H  983  1  0.64611400  0.66356280  0.06386400  1
  H  990  1  0.49772700  0.68977800  0.96101310  1
  H  991  1  0.60191400  0.69438580  0.92300610  1
  H  992  1  0.52960600  0.55884680  0.04880900  1
  H  993  1  0.61730200  0.67194480  0.96590510  1
  H  994  1  0.51849700  0.59304680  0.01042900  1
  H  1003  1  0.57666400  0.55543300  0.08233700  1
  H  1004  1  0.55313800  0.70148100  0.89406500  1
  H  1011  1  0.77653000  0.14515800  0.39724400  1
  H  1018  1  0.95111400  0.29358300  0.29438500  1
  H  1019  1  0.85163200  0.18932200  0.25637800  1
  H  1020  1  0.78824500  0.26161200  0.38208700  1
  H  1021  1  0.81377400  0.17390300  0.29925600  1
  H  1022  1  0.83356500  0.27269400  0.34372100  1
  H  1031  1  0.73782000  0.21462200  0.41569300  1
  H  1032  1  0.90737800  0.23824700  0.22743700  1
  C  1  1  0.81025300  0.20472500  0.98566700  1
  C  2  1  0.83078000  0.20175000  0.96126800  1
  C  3  1  0.86684000  0.23616600  0.95046200  1
  C  4  1  0.88475300  0.27438800  0.96533800  1
  C  5  1  0.86293400  0.27868500  0.98859500  1
  C  6  1  0.82582100  0.24412700  0.99898900  1
  C  9  1  0.77345600  0.16832700  0.99553600  1
  C  10  1  0.73450700  0.15153700  0.98140400  1
  C  11  1  0.69889000  0.11720500  0.99365900  1
  C  12  1  0.70160300  0.09927600  0.01963400  1
  C  13  1  0.74050000  0.11620200  0.03352700  1
  C  14  1  0.77549900  0.15041400  0.02152800  1
  C  31  1  0.36746700  0.16815100  0.31897800  1
  C  32  1  0.34397400  0.14762900  0.29457600  1
  C  33  1  0.34233700  0.11157300  0.28377200  1
  C  34  1  0.36262500  0.09365000  0.29866200  1
  C  35  1  0.38873100  0.11546800  0.32192600  1
  C  36  1  0.39129200  0.15258500  0.33231300  1
  C  39  1  0.36786800  0.20494500  0.32884500  1
  C  40  1  0.39002200  0.24388000  0.31469600  1
  C  41  1  0.39130200  0.27950000  0.32694200  1
  C  42  1  0.37064300  0.27679200  0.35290800  1
  C  43  1  0.34871500  0.23791300  0.36683100  1
  C  44  1  0.34794000  0.20291300  0.35484400  1
  C  61  1  0.77376300  0.61101000  0.65236300  1
  C  62  1  0.77675100  0.63451400  0.62796500  1
  C  63  1  0.74233400  0.63614500  0.61714400  1
  C  64  1  0.70411000  0.61583200  0.63201500  1
  C  65  1  0.69980600  0.58971800  0.65527600  1
  C  66  1  0.73436100  0.58716600  0.66567800  1
  C  69  1  0.81014800  0.61059100  0.66223100  1
  C  70  1  0.82693200  0.58844800  0.64806800  1
  C  71  1  0.86129200  0.58718600  0.66029300  1
  C  72  1  0.87927400  0.60786200  0.68625100  1
  C  73  1  0.86230300  0.62975600  0.70019200  1
  C  74  1  0.82807300  0.63053600  0.68822100  1
  C  91  1  0.15758200  0.78458200  0.98557400  1
  C  92  1  0.13651700  0.78745500  0.96144700  1
  C  93  1  0.10044800  0.75288400  0.95078000  1
  C  94  1  0.08309200  0.71462000  0.96556600  1
  C  95  1  0.10562500  0.71041900  0.98838200  1
  C  96  1  0.14269900  0.74512400  0.99865300  1
  C  99  1  0.19431800  0.82108000  0.99538400  1
  C  100  1  0.23318400  0.83813900  0.98110900  1
  C  101  1  0.26884000  0.87236200  0.99342700  1
  C  102  1  0.26620300  0.88990600  0.01960600  1
  C  103  1  0.22733000  0.87285500  0.03355400  1
  C  104  1  0.19232000  0.83873500  0.02149800  1
  C  121  1  0.60025900  0.82093000  0.31891700  1
  C  122  1  0.62417100  0.84200100  0.29478300  1
  C  123  1  0.62566500  0.87807600  0.28413800  1
  C  124  1  0.60477700  0.89542800  0.29895400  1
  C  125  1  0.57803700  0.87286500  0.32176100  1
  C  126  1  0.57566900  0.83578200  0.33201200  1
  C  129  1  0.60004000  0.78420300  0.32871100  1
  C  130  1  0.57819100  0.74533300  0.31444800  1
  C  131  1  0.57673100  0.70967000  0.32677100  1
  C  132  1  0.59689500  0.71229000  0.35295500  1
  C  133  1  0.61873800  0.75116000  0.36690100  1
  C  134  1  0.61966100  0.78618400  0.35483800  1
  C  151  1  0.19386800  0.37827200  0.65225300  1
  C  152  1  0.19101100  0.35434200  0.62812600  1
  C  153  1  0.22559400  0.35286300  0.61746400  1
  C  154  1  0.26385200  0.37378400  0.63225200  1
  C  155  1  0.26802600  0.40048900  0.65508200  1
  C  156  1  0.23331400  0.40285000  0.66534600  1
  C  159  1  0.15736000  0.37849200  0.66205100  1
  C  160  1  0.14031400  0.40030500  0.64777100  1
  C  161  1  0.10610100  0.40175000  0.66009000  1
  C  162  1  0.08856500  0.38159600  0.68628000  1
  C  163  1  0.10561000  0.35977400  0.70023400  1
  C  164  1  0.13972900  0.35887700  0.68818000  1
  C  181  1  0.90507900  0.38786200  0.99387300  1
  C  182  1  0.89790700  0.41950300  0.98402500  1
  C  183  1  0.92904800  0.46132600  0.98487600  1
  C  184  1  0.96884500  0.47328700  0.99546200  1
  C  185  1  0.97673200  0.44209800  0.00558400  1
  C  186  1  0.94480000  0.40010500  0.00495400  1
  C  188  1  0.00008500  0.51601200  0.99493700  1
  C  189  1  0.99711500  0.54631300  0.01129500  1
  C  190  1  0.02892700  0.58830400  0.00966600  1
  C  191  1  0.06376800  0.60137200  0.99184000  1
  C  192  1  0.06603500  0.57060600  0.97575200  1
  C  193  1  0.03488600  0.52884900  0.97723900  1
  C  205  1  0.09524100  0.64270000  0.98958200  1
  C  206  1  0.87371200  0.34649200  0.99157100  1
  C  209  1  0.45575400  0.07321100  0.32719600  1
  C  210  1  0.49458200  0.08044600  0.31734100  1
  C  211  1  0.50531600  0.04934300  0.31820400  1
  C  212  1  0.47752600  0.00955100  0.32881700  1
  C  213  1  0.43843200  0.00160900  0.33894200  1
  C  214  1  0.42830500  0.03349200  0.33828100  1
  C  216  1  0.48904800  0.97834300  0.32829700  1
  C  217  1  0.52235200  0.98137000  0.34464200  1
  C  218  1  0.53258900  0.94960300  0.34300200  1
  C  219  1  0.51081800  0.91474900  0.32519100  1
  C  220  1  0.47776000  0.91242300  0.30910600  1
  C  221  1  0.46709700  0.94353200  0.31060600  1
  C  233  1  0.52082000  0.88340300  0.32288200  1
  C  234  1  0.44554700  0.10439600  0.32482700  1
  C  237  1  0.59053000  0.52268100  0.66054700  1
  C  238  1  0.55892900  0.48384200  0.65071300  1
  C  239  1  0.51709200  0.47310700  0.65157800  1
  C  240  1  0.50509500  0.50092000  0.66215700  1
  C  241  1  0.53625400  0.54002500  0.67226100  1
  C  242  1  0.57826200  0.55014300  0.67160900  1
  C  244  1  0.46236600  0.48940500  0.66162600  1
  C  245  1  0.43208900  0.45615400  0.67800500  1
  C  246  1  0.39010100  0.44597900  0.67639900  1
  C  247  1  0.37700800  0.46772900  0.65856700  1
  C  248  1  0.40775500  0.50074200  0.64245600  1
  C  249  1  0.44951400  0.51134900  0.64392300  1
  C  261  1  0.33566700  0.45789200  0.65636600  1
  C  262  1  0.63193200  0.53288200  0.65817700  1
  C  265  1  0.51057200  0.60098700  0.31732600  1
  C  266  1  0.47126100  0.56898000  0.32609400  1
  C  267  1  0.46114200  0.52729300  0.32566400  1
  C  268  1  0.48994300  0.51574200  0.31646300  1
  C  269  1  0.52958400  0.54734400  0.30750000  1
  C  270  1  0.53919500  0.58921800  0.30785300  1
  C  272  1  0.47864900  0.47300700  0.31678400  1
  C  273  1  0.44608400  0.44291000  0.29982300  1
  C  274  1  0.43643700  0.40104000  0.30091500  1
  C  275  1  0.45812300  0.38786700  0.31872000  1
  C  276  1  0.49037600  0.41833800  0.33547400  1
  C  277  1  0.50037100  0.45996300  0.33457200  1
  C  289  1  0.44877800  0.34662000  0.32003800  1
  C  290  1  0.51993700  0.64226000  0.31885600  1
  C  293  1  0.37761900  0.91500700  0.98402200  1
  C  294  1  0.40963100  0.90767200  0.99273300  1
  C  295  1  0.45132400  0.93922900  0.99228800  1
  C  296  1  0.46287600  0.97961000  0.98315300  1
  C  297  1  0.43126800  0.98767600  0.97424500  1
  C  298  1  0.38939000  0.95542100  0.97460500  1
  C  300  1  0.50561800  0.01105400  0.98347900  1
  C  301  1  0.53569000  0.00868700  0.96642600  1
  C  302  1  0.57753800  0.04098000  0.96745600  1
  C  303  1  0.59074100  0.07579500  0.98531700  1
  C  304  1  0.56028400  0.07745300  0.00216900  1
  C  305  1  0.51867800  0.04576400  0.00132300  1
  C  317  1  0.63193200  0.10794400  0.98643700  1
  C  318  1  0.33632600  0.88316100  0.98560900  1
  C  321  1  0.06349700  0.46789200  0.65066200  1
  C  322  1  0.07082200  0.50722400  0.65940900  1
  C  323  1  0.03926300  0.51735400  0.65896900  1
  C  324  1  0.99890400  0.48855100  0.64978200  1
  C  325  1  0.99084900  0.44889400  0.64083800  1
  C  326  1  0.02310000  0.43927100  0.64120600  1
  C  328  1  0.96746300  0.49985000  0.65010700  1
  C  329  1  0.96992400  0.53241200  0.63314700  1
  C  330  1  0.93770300  0.54205900  0.63424700  1
  C  331  1  0.90285300  0.52037800  0.65206000  1
  C  332  1  0.90107900  0.48813200  0.66881400  1
  C  333  1  0.93271000  0.47813600  0.66790600  1
  C  345  1  0.87095000  0.52972200  0.65338500  1
  C  346  1  0.09534700  0.45845200  0.65223600  1
  C  349  1  0.65107500  0.92311300  0.21396400  1
  C  350  1  0.63172200  0.94066100  0.19788700  1
  C  351  1  0.65208800  0.96774200  0.17526000  1
  C  352  1  0.69285300  0.97862400  0.16758800  1
  C  353  1  0.71272300  0.96102600  0.18333200  1
  C  354  1  0.69189600  0.93398500  0.20639100  1
  C  356  1  0.71110000  0.00461900  0.14326800  1
  C  357  1  0.71695900  0.04520200  0.14128800  1
  C  358  1  0.73045900  0.06743500  0.11539400  1
  C  359  1  0.73806100  0.05033300  0.09091500  1
  C  360  1  0.73312900  0.01036600  0.09362800  1
  C  361  1  0.71993600  0.98803200  0.11913900  1
  C  373  1  0.74493400  0.06861400  0.06400400  1
  C  374  1  0.62950800  0.89720200  0.23665600  1
  C  377  1  0.24508200  0.32740400  0.54729300  1
  C  378  1  0.28196900  0.34675900  0.53120600  1
  C  379  1  0.28868300  0.32638000  0.50858500  1
  C  380  1  0.25881500  0.28559600  0.50093900  1
  C  381  1  0.22136000  0.26572500  0.51669600  1
  C  382  1  0.21513900  0.28657500  0.53973500  1
  C  384  1  0.26656500  0.26731100  0.47664000  1
  C  385  1  0.30132700  0.26152100  0.47465100  1
  C  386  1  0.31008100  0.24805200  0.44875500  1
  C  387  1  0.28531400  0.24032200  0.42429600  1
  C  388  1  0.25028300  0.24526200  0.42700600  1
  C  389  1  0.24110800  0.25841600  0.45252300  1
  C  401  1  0.29681400  0.23362000  0.39737100  1
  C  402  1  0.24070900  0.34900700  0.56994800  1
  C  405  1  0.05541900  0.73335300  0.88061600  1
  C  406  1  0.03782400  0.69643500  0.86455700  1
  C  407  1  0.01072600  0.68972300  0.84194100  1
  C  408  1  0.99986500  0.71962100  0.83426700  1
  C  409  1  0.01750600  0.75710400  0.84999800  1
  C  410  1  0.04456800  0.76331700  0.87304300  1
  C  412  1  0.97386700  0.71188300  0.80994800  1
  C  413  1  0.93327500  0.67717600  0.80796900  1
  C  414  1  0.91103200  0.66846100  0.78208000  1
  C  415  1  0.92813500  0.69317200  0.75760400  1
  C  416  1  0.96811500  0.72818800  0.76031500  1
  C  417  1  0.99045900  0.73731000  0.78582100  1
  C  429  1  0.90985100  0.68179300  0.73069700  1
  C  430  1  0.08138600  0.73772400  0.90328400  1
  C  433  1  0.31724900  0.06714600  0.21347900  1
  C  434  1  0.33664400  0.04962800  0.19741800  1
  C  435  1  0.31622800  0.02234800  0.17489200  1
  C  436  1  0.27536300  0.01121700  0.16731700  1
  C  437  1  0.25544900  0.02878700  0.18304200  1
  C  438  1  0.27633900  0.05604700  0.20598700  1
  C  440  1  0.25703300  0.98500300  0.14310300  1
  C  441  1  0.25135600  0.94448300  0.14122400  1
  C  442  1  0.23784400  0.92209600  0.11539000  1
  C  443  1  0.22995000  0.93893100  0.09089200  1
  C  444  1  0.23477900  0.97887200  0.09349900  1
  C  445  1  0.24797400  0.00135900  0.11895100  1
  C  457  1  0.22325900  0.92064000  0.06400400  1
  C  458  1  0.33881100  0.09313500  0.23614400  1
  C  461  1  0.72303500  0.66125000  0.54684000  1
  C  462  1  0.68609200  0.64186900  0.53080800  1
  C  463  1  0.67921700  0.66228100  0.50828300  1
  C  464  1  0.70897200  0.70312300  0.50067800  1
  C  465  1  0.74647600  0.72302800  0.51637800  1
  C  466  1  0.75285000  0.70215200  0.53933300  1
  C  468  1  0.70109700  0.72141300  0.47643900  1
  C  469  1  0.66629600  0.72716000  0.47455200  1
  C  470  1  0.65745900  0.74070700  0.44871700  1
  C  471  1  0.68214500  0.74847700  0.42420900  1
  C  472  1  0.71725900  0.74365800  0.42683300  1
  C  473  1  0.72649500  0.73041400  0.45228200  1
  C  485  1  0.67064000  0.75534300  0.39732900  1
  C  486  1  0.72747900  0.63971400  0.56951800  1
  C  489  1  0.91129500  0.25549100  0.88017500  1
  C  490  1  0.92882100  0.29240100  0.86410800  1
  C  491  1  0.95610400  0.29925500  0.84158600  1
  C  492  1  0.96722900  0.26951600  0.83401800  1
  C  493  1  0.94965100  0.23203600  0.84974700  1
  C  494  1  0.92238900  0.22567400  0.87269000  1
  C  496  1  0.99344500  0.27738900  0.80980600  1
  C  497  1  0.03396500  0.31223300  0.80792200  1
  C  498  1  0.05634800  0.32110400  0.78208500  1
  C  499  1  0.03951000  0.29636700  0.75759100  1
  C  500  1  0.99957200  0.26125100  0.76020400  1
  C  501  1  0.97708600  0.25196500  0.78565600  1
  C  513  1  0.05780400  0.30799200  0.73070300  1
  C  514  1  0.88530500  0.25107600  0.90283600  1
  C  517  1  0.67648700  0.15121900  0.49901700  1
  C  518  1  0.69701400  0.14824400  0.47461800  1
  C  519  1  0.73307400  0.18266000  0.46381200  1
  C  520  1  0.75098700  0.22088200  0.47868800  1
  C  521  1  0.72916800  0.22517900  0.50194500  1
  C  522  1  0.69205500  0.19062100  0.51233900  1
  C  525  1  0.63969000  0.11482100  0.50888600  1
  C  526  1  0.60074100  0.09803100  0.49475400  1
  C  527  1  0.56512400  0.06369900  0.50700900  1
  C  528  1  0.56783700  0.04577000  0.53298400  1
  C  529  1  0.60673400  0.06269600  0.54687700  1
  C  530  1  0.64173300  0.09690800  0.53487800  1
  C  547  1  0.23370100  0.11464500  0.83232800  1
  C  548  1  0.21020800  0.09412300  0.80792600  1
  C  549  1  0.20857100  0.05806700  0.79712200  1
  C  550  1  0.22885900  0.04014400  0.81201200  1
  C  551  1  0.25496500  0.06196200  0.83527600  1
  C  552  1  0.25752600  0.09907900  0.84566300  1
  C  555  1  0.23410200  0.15143900  0.84219500  1
  C  556  1  0.25625600  0.19037400  0.82804600  1
  C  557  1  0.25753600  0.22599400  0.84029200  1
  C  558  1  0.23687700  0.22328600  0.86625800  1
  C  559  1  0.21494900  0.18440700  0.88018100  1
  C  560  1  0.21417400  0.14940700  0.86819400  1
  C  577  1  0.63999700  0.55750400  0.16571300  1
  C  578  1  0.64298500  0.58100800  0.14131500  1
  C  579  1  0.60856800  0.58263900  0.13049400  1
  C  580  1  0.57034400  0.56232600  0.14536500  1
  C  581  1  0.56604000  0.53621200  0.16862600  1
  C  582  1  0.60059500  0.53366000  0.17902800  1
  C  585  1  0.67638200  0.55708500  0.17558100  1
  C  586  1  0.69316600  0.53494200  0.16141800  1
  C  587  1  0.72752600  0.53368000  0.17364300  1
  C  588  1  0.74550800  0.55435600  0.19960100  1
  C  589  1  0.72853700  0.57625000  0.21354200  1
  C  590  1  0.69430700  0.57703000  0.20157100  1
  C  607  1  0.02381600  0.73107600  0.49892400  1
  C  608  1  0.00275100  0.73394900  0.47479700  1
  C  609  1  0.96668200  0.69937800  0.46413000  1
  C  610  1  0.94932600  0.66111400  0.47891600  1
  C  611  1  0.97185900  0.65691300  0.50173200  1
  C  612  1  0.00893300  0.69161800  0.51200300  1
  C  615  1  0.06055200  0.76757400  0.50873400  1
  C  616  1  0.09941800  0.78463300  0.49445900  1
  C  617  1  0.13507400  0.81885600  0.50677700  1
  C  618  1  0.13243700  0.83640000  0.53295600  1
  C  619  1  0.09356400  0.81934900  0.54690400  1
  C  620  1  0.05855400  0.78522900  0.53484800  1
  C  637  1  0.46649300  0.76742400  0.83226700  1
  C  638  1  0.49040500  0.78849500  0.80813300  1
  C  639  1  0.49189900  0.82457000  0.79748800  1
  C  640  1  0.47101100  0.84192200  0.81230400  1
  C  641  1  0.44427100  0.81935900  0.83511100  1
  C  642  1  0.44190300  0.78227600  0.84536200  1
  C  645  1  0.46627400  0.73069700  0.84206100  1
  C  646  1  0.44442500  0.69182700  0.82779800  1
  C  647  1  0.44296500  0.65616400  0.84012100  1
  C  648  1  0.46312900  0.65878400  0.86630500  1
  C  649  1  0.48497200  0.69765400  0.88025100  1
  C  650  1  0.48589500  0.73267800  0.86818800  1
  C  667  1  0.06010200  0.32476600  0.16560300  1
  C  668  1  0.05724500  0.30083600  0.14147600  1
  C  669  1  0.09182800  0.29935700  0.13081400  1
  C  670  1  0.13008600  0.32027800  0.14560200  1
  C  671  1  0.13426000  0.34698300  0.16843200  1
  C  672  1  0.09954800  0.34934400  0.17869600  1
  C  675  1  0.02359400  0.32498600  0.17540100  1
  C  676  1  0.00654800  0.34679900  0.16112100  1
  C  677  1  0.97233500  0.34824400  0.17344000  1
  C  678  1  0.95479900  0.32809000  0.19963000  1
  C  679  1  0.97184400  0.30626800  0.21358400  1
  C  680  1  0.00596300  0.30537100  0.20153000  1
  C  697  1  0.77131300  0.33435600  0.50722300  1
  C  698  1  0.76414100  0.36599700  0.49737500  1
  C  699  1  0.79528200  0.40782000  0.49822600  1
  C  700  1  0.83507900  0.41978100  0.50881200  1
  C  701  1  0.84296600  0.38859200  0.51893400  1
  C  702  1  0.81103400  0.34659900  0.51830400  1
  C  704  1  0.86631900  0.46250600  0.50828700  1
  C  705  1  0.86334900  0.49280700  0.52464500  1
  C  706  1  0.89516100  0.53479800  0.52301600  1
  C  707  1  0.93000200  0.54786600  0.50519000  1
  C  708  1  0.93226900  0.51710000  0.48910200  1
  C  709  1  0.90112000  0.47534300  0.49058900  1
  C  721  1  0.96147500  0.58919400  0.50293200  1
  C  722  1  0.73994600  0.29298600  0.50492100  1
  C  725  1  0.32198800  0.01970500  0.84054600  1
  C  726  1  0.36081600  0.02694000  0.83069100  1
  C  727  1  0.37155000  0.99583700  0.83155400  1
  C  728  1  0.34376000  0.95604500  0.84216700  1
  C  729  1  0.30466600  0.94810300  0.85229200  1
  C  730  1  0.29453900  0.97998600  0.85163100  1
  C  732  1  0.35528200  0.92483700  0.84164700  1
  C  733  1  0.38858600  0.92786400  0.85799200  1
  C  734  1  0.39882300  0.89609700  0.85635200  1
  C  735  1  0.37705200  0.86124300  0.83854100  1
  C  736  1  0.34399400  0.85891700  0.82245600  1
  C  737  1  0.33333333  0.89002833  0.82395600  1
  C  749  1  0.38705400  0.82989700  0.83623200  1
  C  750  1  0.31178100  0.05089000  0.83817700  1
  C  753  1  0.45676400  0.46917480  0.17389700  1
  C  754  1  0.42516300  0.43033583  0.16406300  1
  C  755  1  0.38332600  0.41960080  0.16492800  1
  C  756  1  0.37132900  0.44741380  0.17550700  1
  C  757  1  0.40248800  0.48651880  0.18561100  1
  C  758  1  0.44449600  0.49663680  0.18495900  1
  C  760  1  0.32860000  0.43589900  0.17497600  1
  C  761  1  0.29832300  0.40264800  0.19135500  1
  C  762  1  0.25633500  0.39247300  0.18974900  1
  C  763  1  0.24324200  0.41422300  0.17191700  1
  C  764  1  0.27398900  0.44723600  0.15580600  1
  C  765  1  0.31574800  0.45784300  0.15727300  1
  C  777  1  0.20190100  0.40438600  0.16971600  1
  C  778  1  0.49816600  0.47937600  0.17152700  1
  C  781  1  0.37680600  0.54748100  0.83067600  1
  C  782  1  0.33749500  0.51547400  0.83944400  1
  C  783  1  0.32737600  0.47378700  0.83901400  1
  C  784  1  0.35617700  0.46223600  0.82981300  1
  C  785  1  0.39581800  0.49383780  0.82085000  1
  C  786  1  0.40542900  0.53571200  0.82120300  1
  C  788  1  0.34488300  0.41950080  0.83013400  1
  C  789  1  0.31231800  0.38940380  0.81317300  1
  C  790  1  0.30267100  0.34753380  0.81426500  1
  C  791  1  0.32435700  0.33436080  0.83207000  1
  C  792  1  0.35661000  0.36483183  0.84882400  1
  C  793  1  0.36660500  0.40645680  0.84792200  1
  C  805  1  0.31501200  0.29311400  0.83338800  1
  C  806  1  0.38617100  0.58875400  0.83220600  1
  C  809  1  0.24385300  0.86150100  0.49737200  1
  C  810  1  0.27586500  0.85416600  0.50608300  1
  C  811  1  0.31755800  0.88572300  0.50563800  1
  C  812  1  0.32911000  0.92610400  0.49650300  1
  C  813  1  0.29750200  0.93417000  0.48759500  1
  C  814  1  0.25562400  0.90191500  0.48795500  1
  C  816  1  0.37185200  0.95754800  0.49682900  1
  C  817  1  0.40192400  0.95518100  0.47977600  1
  C  818  1  0.44377200  0.98747400  0.48080600  1
  C  819  1  0.45697500  0.02228900  0.49866700  1
  C  820  1  0.42651800  0.02394700  0.51551900  1
  C  821  1  0.38491200  0.99225800  0.51467300  1
  C  833  1  0.49816600  0.05443800  0.49978700  1
  C  834  1  0.20256000  0.82965500  0.49895900  1
  C  837  1  0.92973100  0.41438600  0.16401200  1
  C  838  1  0.93705600  0.45371800  0.17275900  1
  C  839  1  0.90549700  0.46384800  0.17231900  1
  C  840  1  0.86513800  0.43504500  0.16313200  1
  C  841  1  0.85708300  0.39538800  0.15418800  1
  C  842  1  0.88933400  0.38576500  0.15455600  1
  C  844  1  0.83369700  0.44634400  0.16345700  1
  C  845  1  0.83615800  0.47890600  0.14649700  1
  C  846  1  0.80393700  0.48855300  0.14759700  1
  C  847  1  0.76908700  0.46687200  0.16541000  1
  C  848  1  0.76731300  0.43462600  0.18216400  1
  C  849  1  0.79894400  0.42463000  0.18125600  1
  C  861  1  0.73718400  0.47621600  0.16673500  1
  C  862  1  0.96158100  0.40494600  0.16558600  1
  C  865  1  0.51730900  0.86960700  0.72731400  1
  C  866  1  0.49795600  0.88715500  0.71123700  1
  C  867  1  0.51832200  0.91423600  0.68861000  1
  C  868  1  0.55908700  0.92511800  0.68093800  1
  C  869  1  0.57895700  0.90752000  0.69668200  1
  C  870  1  0.55813000  0.88047900  0.71974100  1
  C  872  1  0.57733400  0.95111300  0.65661800  1
  C  873  1  0.58319300  0.99169600  0.65463800  1
  C  874  1  0.59669300  0.01392900  0.62874400  1
  C  875  1  0.60429500  0.99682700  0.60426500  1
  C  876  1  0.59936300  0.95686000  0.60697800  1
  C  877  1  0.58617000  0.93452600  0.63248900  1
  C  889  1  0.61116800  0.01510800  0.57735400  1
  C  890  1  0.49574200  0.84369600  0.75000600  1
  C  893  1  0.11131600  0.27389800  0.06064300  1
  C  894  1  0.14820300  0.29325300  0.04455600  1
  C  895  1  0.15491700  0.27287400  0.02193500  1
  C  896  1  0.12504900  0.23209000  0.01428900  1
  C  897  1  0.08759400  0.21221900  0.03004600  1
  C  898  1  0.08137300  0.23306900  0.05308500  1
  C  900  1  0.13279900  0.21380480  0.98999010  1
  C  901  1  0.16756100  0.20801480  0.98800110  1
  C  902  1  0.17631500  0.19454580  0.96210510  1
  C  903  1  0.15154800  0.18681580  0.93764610  1
  C  904  1  0.11651700  0.19175580  0.94035610  1
  C  905  1  0.10734200  0.20490980  0.96587310  1
  C  917  1  0.16304800  0.18011380  0.91072110  1
  C  918  1  0.10694300  0.29550100  0.08329800  1
  C  921  1  0.92165300  0.67984700  0.39396600  1
  C  922  1  0.90405800  0.64292900  0.37790700  1
  C  923  1  0.87696000  0.63621700  0.35529100  1
  C  924  1  0.86609900  0.66611500  0.34761700  1
  C  925  1  0.88374000  0.70359800  0.36334800  1
  C  926  1  0.91080200  0.70981100  0.38639300  1
  C  928  1  0.84010100  0.65837700  0.32329800  1
  C  929  1  0.79950900  0.62367000  0.32131900  1
  C  930  1  0.77726600  0.61495500  0.29543000  1
  C  931  1  0.79436900  0.63966600  0.27095400  1
  C  932  1  0.83434900  0.67468200  0.27366500  1
  C  933  1  0.85669300  0.68380400  0.29917100  1
  C  945  1  0.77608500  0.62828700  0.24404700  1
  C  946  1  0.94762000  0.68421800  0.41663400  1
  C  949  1  0.18348300  0.01364000  0.72682900  1
  C  950  1  0.20287800  0.99612200  0.71076800  1
  C  951  1  0.18246200  0.96884200  0.68824200  1
  C  952  1  0.14159700  0.95771100  0.68066700  1
  C  953  1  0.12168300  0.97528100  0.69639200  1
  C  954  1  0.14257300  0.00254100  0.71933700  1
  C  956  1  0.12326700  0.93149700  0.65645300  1
  C  957  1  0.11759000  0.89097700  0.65457400  1
  C  958  1  0.10407800  0.86859000  0.62874000  1
  C  959  1  0.09618400  0.88542500  0.60424200  1
  C  960  1  0.10101300  0.92536600  0.60684900  1
  C  961  1  0.11420800  0.94785300  0.63230100  1
  C  973  1  0.08949300  0.86713400  0.57735400  1
  C  974  1  0.20504500  0.03962900  0.74949400  1
  C  977  1  0.58926900  0.60774380  0.06019000  1
  C  978  1  0.55232600  0.58836280  0.04415800  1
  C  979  1  0.54545100  0.60877480  0.02163300  1
  C  980  1  0.57520600  0.64961680  0.01402800  1
  C  981  1  0.61271000  0.66952180  0.02972800  1
  C  982  1  0.61908400  0.64864580  0.05268300  1
  C  984  1  0.56733100  0.66790700  0.98978910  1
  C  985  1  0.53253000  0.67365400  0.98790210  1
  C  986  1  0.52369300  0.68720100  0.96206710  1
  C  987  1  0.54837900  0.69497100  0.93755910  1
  C  988  1  0.58349300  0.69015200  0.94018310  1
  C  989  1  0.59272900  0.67690780  0.96563210  1
  C  1001  1  0.53687400  0.70183700  0.91067910  1
  C  1002  1  0.59371300  0.58620800  0.08286800  1
  C  1005  1  0.77752900  0.20198500  0.39352500  1
  C  1006  1  0.79505500  0.23889500  0.37745800  1
  C  1007  1  0.82233800  0.24574900  0.35493600  1
  C  1008  1  0.83346300  0.21601000  0.34736800  1
  C  1009  1  0.81588500  0.17853000  0.36309700  1
  C  1010  1  0.78862300  0.17216800  0.38604000  1
  C  1012  1  0.85967900  0.22388300  0.32315600  1
  C  1013  1  0.90019900  0.25872700  0.32127200  1
  C  1014  1  0.92258200  0.26759800  0.29543500  1
  C  1015  1  0.90574400  0.24286100  0.27094100  1
  C  1016  1  0.86580600  0.20774500  0.27355400  1
  C  1017  1  0.84332000  0.19845900  0.29900600  1
  C  1029  1  0.92403800  0.25448600  0.24405300  1
  C  1030  1  0.75153900  0.19757000  0.41618600  1
  N  8  1  0.92246100  0.30638700  0.95737600  1
  N  15  1  0.66733200  0.06649100  0.03125200  1
  N  17  1  0.80537400  0.24924300  0.02118700  1
  N  18  1  0.73074300  0.16866500  0.95684700  1
  N  27  1  0.74302600  0.10154600  0.05890000  1
  N  28  1  0.66210200  0.10101900  0.98075800  1
  N  29  1  0.87809600  0.31593500  0.00065700  1
  N  30  1  0.88443300  0.23312600  0.92642400  1
  N  38  1  0.35687200  0.05592400  0.29071500  1
  N  45  1  0.37205300  0.31104900  0.36449100  1
  N  47  1  0.41686200  0.17304300  0.35450800  1
  N  48  1  0.41093200  0.24763300  0.29015000  1
  N  57  1  0.33158100  0.23539800  0.39222100  1
  N  58  1  0.41195300  0.31626400  0.31402100  1
  N  59  1  0.41077900  0.10029800  0.33402400  1
  N  60  1  0.32171500  0.09398100  0.25973200  1
  N  68  1  0.67213400  0.62158100  0.62406700  1
  N  75  1  0.91216500  0.60650300  0.69780100  1
  N  77  1  0.72923600  0.56159000  0.68787100  1
  N  78  1  0.80976200  0.56753700  0.62352400  1
  N  87  1  0.87697700  0.64691400  0.72556800  1
  N  88  1  0.87740500  0.56654100  0.64736100  1
  N  89  1  0.66257800  0.56766400  0.66736400  1
  N  90  1  0.74538700  0.65679100  0.59311200  1
  N  98  1  0.04526800  0.68245900  0.95796900  1
  N  105  1  0.30048700  0.92247300  0.03139000  1
  N  107  1  0.16376200  0.74008000  0.02047800  1
  N  108  1  0.23682400  0.82134100  0.95635700  1
  N  117  1  0.22477300  0.88747700  0.05894200  1
  N  118  1  0.30542500  0.88905800  0.98019400  1
  N  119  1  0.09145200  0.67300600  0.99995600  1
  N  120  1  0.08249800  0.75578300  0.92687300  1
  N  128  1  0.61046300  0.93327200  0.29139400  1
  N  135  1  0.59514100  0.67799000  0.36474200  1
  N  137  1  0.54956500  0.81469400  0.35383100  1
  N  138  1  0.55774900  0.74169700  0.28969900  1
  N  147  1  0.63590500  0.75370500  0.39228900  1
  N  148  1  0.55682900  0.67308600  0.31354500  1
  N  149  1  0.55478300  0.88700200  0.33333333  1
  N  150  1  0.64647900  0.89602700  0.26022100  1
  N  158  1  0.29602300  0.36814700  0.62464700  1
  N  165  1  0.05601600  0.38334800  0.69806600  1
  N  167  1  0.23833200  0.42893600  0.68717700  1
  N  168  1  0.15711000  0.42073400  0.62301800  1
  N  177  1  0.09101200  0.34262100  0.72563300  1
  N  178  1  0.08941100  0.42163600  0.64685100  1
  N  179  1  0.30542100  0.42371100  0.66666667  1
  N  180  1  0.22272000  0.33204000  0.59355200  1
  N  199  1  0.01638100  0.45349700  0.01635800  1
  N  200  1  0.96270900  0.53393900  0.02939400  1
  N  227  1  0.41022500  0.96195900  0.34973200  1
  N  228  1  0.54437100  0.01579200  0.36273200  1
  N  255  1  0.52482000  0.56825300  0.68302400  1
  N  256  1  0.44448300  0.43414200  0.69611100  1
  N  283  1  0.55882300  0.53649000  0.29795500  1
  N  284  1  0.42426500  0.45537000  0.28158000  1
  N  311  1  0.44212400  0.02779000  0.96475100  1
  N  312  1  0.52321800  0.97445100  0.94814200  1
  N  339  1  0.95074800  0.41965500  0.63130400  1
  N  340  1  0.00419600  0.55422500  0.61489700  1
  N  367  1  0.75350200  0.97147100  0.17595200  1
  N  368  1  0.70893500  0.06279100  0.16529200  1
  N  395  1  0.19104000  0.22492900  0.50934100  1
  N  396  1  0.32697300  0.26960800  0.49864900  1
  N  423  1  0.00708300  0.78745200  0.84261800  1
  N  424  1  0.91568100  0.65155900  0.83197400  1
  N  451  1  0.21456800  0.01808700  0.17576600  1
  N  452  1  0.25958700  0.92712300  0.16526900  1
  N  479  1  0.77667600  0.76389200  0.50907400  1
  N  480  1  0.64072100  0.71898900  0.49859600  1
  N  507  1  0.96034500  0.20184600  0.84247700  1
  N  508  1  0.05132500  0.33783300  0.83196200  1
  N  524  1  0.78869500  0.25288100  0.47072600  1
  N  531  1  0.53356600  0.01298500  0.54460200  1
  N  533  1  0.67160800  0.19573700  0.53453700  1
  N  534  1  0.59697700  0.11515900  0.47019700  1
  N  543  1  0.60926000  0.04804000  0.57225000  1
  N  544  1  0.52833600  0.04751300  0.49410800  1
  N  545  1  0.74433000  0.26242900  0.51400700  1
  N  546  1  0.75066700  0.17962000  0.43977400  1
  N  554  1  0.22310600  0.00241800  0.80406500  1
  N  561  1  0.23828700  0.25754280  0.87784100  1
  N  563  1  0.28309600  0.11953700  0.86785800  1
  N  564  1  0.27716600  0.19412700  0.80350000  1
  N  573  1  0.19781500  0.18189200  0.90557110  1
  N  574  1  0.27818700  0.26275800  0.82737100  1
  N  575  1  0.27701300  0.04679200  0.84737400  1
  N  576  1  0.18794900  0.04047500  0.77308200  1
  N  584  1  0.53836800  0.56807480  0.13741700  1
  N  591  1  0.77839900  0.55299700  0.21115100  1
  N  593  1  0.59547000  0.50808400  0.20122100  1
  N  594  1  0.67599600  0.51403100  0.13687400  1
  N  603  1  0.74321100  0.59340800  0.23891800  1
  N  604  1  0.74363900  0.51303500  0.16071100  1
  N  605  1  0.52881200  0.51415800  0.18071400  1
  N  606  1  0.61162100  0.60328500  0.10646200  1
  N  614  1  0.91150200  0.62895300  0.47131900  1
  N  621  1  0.16672100  0.86896700  0.54474000  1
  N  623  1  0.02999600  0.68657400  0.53382800  1
  N  624  1  0.10305800  0.76783500  0.46970700  1
  N  633  1  0.09100700  0.83397100  0.57229200  1
  N  634  1  0.17165900  0.83555200  0.49354400  1
  N  635  1  0.95768600  0.61950000  0.51330600  1
  N  636  1  0.94873200  0.70227700  0.44022300  1
  N  644  1  0.47669700  0.87976600  0.80474400  1
  N  651  1  0.46137500  0.62448400  0.87809200  1
  N  653  1  0.41579900  0.76118800  0.86718100  1
  N  654  1  0.42398300  0.68819100  0.80304900  1
  N  663  1  0.50213900  0.70019900  0.90563910  1
  N  664  1  0.42306300  0.61958000  0.82689500  1
  N  665  1  0.42101700  0.83349600  0.84670400  1
  N  666  1  0.51271300  0.84252100  0.77357100  1
  N  674  1  0.16225700  0.31464100  0.13799700  1
  N  681  1  0.92225000  0.32984200  0.21141600  1
  N  683  1  0.10456600  0.37543000  0.20052700  1
  N  684  1  0.02334400  0.36722800  0.13636800  1
  N  693  1  0.95724600  0.28911500  0.23898300  1
  N  694  1  0.95564500  0.36813000  0.16020100  1
  N  695  1  0.17165500  0.37020500  0.18002300  1
  N  696  1  0.08895400  0.27853400  0.10690200  1
  N  715  1  0.88261500  0.39999100  0.52970800  1
  N  716  1  0.82894300  0.48043300  0.54274400  1
  N  743  1  0.27645900  0.90845300  0.86308200  1
  N  744  1  0.41060500  0.96228600  0.87608200  1
  N  771  1  0.39105400  0.51474700  0.19637400  1
  N  772  1  0.31071700  0.38063580  0.20946100  1
  N  799  1  0.42505700  0.48298380  0.81130500  1
  N  800  1  0.29049900  0.40186400  0.79493000  1
  N  827  1  0.30835800  0.97428400  0.47810100  1
  N  828  1  0.38945200  0.92094500  0.46149200  1
  N  855  1  0.81698200  0.36614900  0.14465400  1
  N  856  1  0.87043000  0.50071900  0.12824700  1
  N  883  1  0.61973600  0.91796500  0.68930200  1
  N  884  1  0.57516900  0.00928500  0.67864200  1
  N  911  1  0.05727400  0.17142300  0.02269100  1
  N  912  1  0.19320700  0.21610180  0.01199900  1
  N  939  1  0.87331700  0.73394600  0.35596800  1
  N  940  1  0.78191500  0.59805300  0.34532400  1
  N  967  1  0.08080200  0.96458100  0.68911600  1
  N  968  1  0.12582100  0.87361700  0.67861900  1
  N  995  1  0.64291000  0.71038580  0.02242400  1
  N  996  1  0.50695500  0.66548300  0.01194600  1
  N  1023  1  0.82657900  0.14834000  0.35582700  1
  N  1024  1  0.91755900  0.28432700  0.34531200  1
  O  201  1  0.94246400  0.55125300  0.02276300  1
  O  202  1  0.03317000  0.43737600  0.00224800  1
  O  203  1  0.01464900  0.44310600  0.04182300  1
  O  204  1  0.97365900  0.54207200  0.05481400  1
  O  229  1  0.58192000  0.03607300  0.35608200  1
  O  230  1  0.37731400  0.94511500  0.33562400  1
  O  231  1  0.40155600  0.96370400  0.37519300  1
  O  232  1  0.54159200  0.00485800  0.38815000  1
  O  257  1  0.42716500  0.39657800  0.68949600  1
  O  258  1  0.54089400  0.60114600  0.66889600  1
  O  259  1  0.53523100  0.57694800  0.70848200  1
  O  260  1  0.43637800  0.43698800  0.72153100  1
  O  285  1  0.38647400  0.43739100  0.28763400  1
  O  286  1  0.59083800  0.55283000  0.31299900  1
  O  287  1  0.56895400  0.54706000  0.27266600  1
  O  288  1  0.42809800  0.44819800  0.25612200  1
  O  313  1  0.54127600  0.95468800  0.95410200  1
  O  314  1  0.42580300  0.04344200  0.97983900  1
  O  315  1  0.43153100  0.02740400  0.93947400  1
  O  316  1  0.53027900  0.98550000  0.92268700  1
  O  341  1  0.02401300  0.59201800  0.62094700  1
  O  342  1  0.93506800  0.38765400  0.64636400  1
  O  343  1  0.95117700  0.40949700  0.60602100  1
  O  344  1  0.99318100  0.55038600  0.58944100  1
  O  369  1  0.68101500  0.07138500  0.16044300  1
  O  370  1  0.75536500  0.94000700  0.16895700  1
  O  371  1  0.77820100  0.98916800  0.19601500  1
  O  372  1  0.74083900  0.09509000  0.17317600  1
  O  397  1  0.36346500  0.29756800  0.49378100  1
  O  398  1  0.15769800  0.22303200  0.50234600  1
  O  399  1  0.18406400  0.20026200  0.52942000  1
  O  400  1  0.32743500  0.23774200  0.50653700  1
  O  425  1  0.90706500  0.61503900  0.82711600  1
  O  426  1  0.03855200  0.82076200  0.83560700  1
  O  427  1  0.98941800  0.79448500  0.86268700  1
  O  428  1  0.88339600  0.65118300  0.83986500  1
  O  453  1  0.28759600  0.91865500  0.16041900  1
  O  454  1  0.21247400  0.04939700  0.16869200  1
  O  455  1  0.19003600  0.00045700  0.19592400  1
  O  456  1  0.22779700  0.89479500  0.17325000  1
  O  481  1  0.60422400  0.69102100  0.49375500  1
  O  482  1  0.81005700  0.76594200  0.50198800  1
  O  483  1  0.78362200  0.78845500  0.52921700  1
  O  484  1  0.64024800  0.75081700  0.50656900  1
  O  509  1  0.05979500  0.37431000  0.82710800  1
  O  510  1  0.92903300  0.16844500  0.83540500  1
  O  511  1  0.97797200  0.19494600  0.86263700  1
  O  512  1  0.08365500  0.33837200  0.83994500  1
  O  717  1  0.80869800  0.49774700  0.53611300  1
  O  718  1  0.89940400  0.38387000  0.51559800  1
  O  719  1  0.88088300  0.38960000  0.55517300  1
  O  720  1  0.83989300  0.48856600  0.56816400  1
  O  745  1  0.44815400  0.98256700  0.86943200  1
  O  746  1  0.24354800  0.89160900  0.84897400  1
  O  747  1  0.26779000  0.91019800  0.88854300  1
  O  748  1  0.40782600  0.95135200  0.90150010  1
  O  773  1  0.29339900  0.34307180  0.20284600  1
  O  774  1  0.40712800  0.54764000  0.18224600  1
  O  775  1  0.40146500  0.52344200  0.22183200  1
  O  776  1  0.30261200  0.38348180  0.23488100  1
  O  801  1  0.25270800  0.38388500  0.80098400  1
  O  802  1  0.45707200  0.49932380  0.82634900  1
  O  803  1  0.43518800  0.49355380  0.78601600  1
  O  804  1  0.29433200  0.39469200  0.76947200  1
  O  829  1  0.40751000  0.90118200  0.46745200  1
  O  830  1  0.29203700  0.98993600  0.49318900  1
  O  831  1  0.29776500  0.97389800  0.45282400  1
  O  832  1  0.39651300  0.93199400  0.43603700  1
  O  857  1  0.89024700  0.53851200  0.13429700  1
  O  858  1  0.80130200  0.33414800  0.15971400  1
  O  859  1  0.81741100  0.35599100  0.11937100  1
  O  860  1  0.85941500  0.49688000  0.10279100  1
  O  885  1  0.54724900  0.01787900  0.67379300  1
  O  886  1  0.62159900  0.88650100  0.68230700  1
  O  887  1  0.64443500  0.93566200  0.70936500  1
  O  888  1  0.60707300  0.04158400  0.68652600  1
  O  913  1  0.22969900  0.24406180  0.00713100  1
  O  914  1  0.02393200  0.16952600  0.01569600  1
  O  915  1  0.05029800  0.14675580  0.04277000  1
  O  916  1  0.19366900  0.18423600  0.01988700  1
  O  941  1  0.77329900  0.56153300  0.34046600  1
  O  942  1  0.90478600  0.76725600  0.34895700  1
  O  943  1  0.85565200  0.74097900  0.37603700  1
  O  944  1  0.74963000  0.59767700  0.35321500  1
  O  969  1  0.15383000  0.86514900  0.67376900  1
  O  970  1  0.07870800  0.99589100  0.68204200  1
  O  971  1  0.05627000  0.94695100  0.70927400  1
  O  972  1  0.09403100  0.84128900  0.68660000  1
  O  997  1  0.47045800  0.63751500  0.00710500  1
  O  998  1  0.67629100  0.71243580  0.01533800  1
  O  999  1  0.64985600  0.73494880  0.04256700  1
  O  1000  1  0.50648200  0.69731100  0.01991900  1
  O  1025  1  0.92602900  0.32080400  0.34045800  1
  O  1026  1  0.79526700  0.11493900  0.34875500  1
  O  1027  1  0.84420600  0.14144000  0.37598700  1
  O  1028  1  0.94988900  0.28486600  0.35329500  1
