# generated using pymatgen
data_H31(C17N2)2
_symmetry_space_group_name_H-M   'P 1'
_cell_length_a   10.00620000
_cell_length_b   67.67770000
_cell_length_c   67.67770000
_cell_angle_alpha   60.00000000
_cell_angle_beta   89.97640000
_cell_angle_gamma   89.97760000
_symmetry_Int_Tables_number   1
_chemical_formula_structural   H31(C17N2)2
_chemical_formula_sum   'H372 C408 N48'
_cell_volume   39690.89993176
_cell_formula_units_Z   12
loop_
 _symmetry_equiv_pos_site_id
 _symmetry_equiv_pos_as_xyz
  1  'x, y, z'
loop_
 _atom_site_type_symbol
 _atom_site_label
 _atom_site_symmetry_multiplicity
 _atom_site_fract_x
 _atom_site_fract_y
 _atom_site_fract_z
 _atom_site_occupancy
  C  1  1  0.99712600  0.62674533  0.13875667  1
  C  2  1  0.00633800  0.62947533  0.15759300  1
  C  3  1  0.00976200  0.60783433  0.17707867  1
  C  5  1  0.99641400  0.60337933  0.14631333  1
  C  6  1  0.98935900  0.59370600  0.13192167  1
  C  7  1  0.99424100  0.57003267  0.13946033  1
  C  9  1  0.00505900  0.53217400  0.16216200  1
  C  10  1  0.00242700  0.53682167  0.13959833  1
  C  11  1  0.99397500  0.56017100  0.12560000  1
  C  12  1  0.01033900  0.51025333  0.18197133  1
  C  13  1  0.00549000  0.50597867  0.20478900  1
  C  15  1  0.99433400  0.51043367  0.23563200  1
  C  16  1  0.99582400  0.48707267  0.24315933  1
  C  17  1  0.00413100  0.48434867  0.22429600  1
  C  18  1  0.98946400  0.52010367  0.25006867  1
  C  19  1  0.99606600  0.54378033  0.24247800  1
  C  21  1  0.00953600  0.58162467  0.21971567  1
  C  22  1  0.00787700  0.57700300  0.24227500  1
  C  23  1  0.99801800  0.55367133  0.25630800  1
  C  24  1  0.01507400  0.60353767  0.19988133  1
  C  25  1  0.02383000  0.62268567  0.20312000  1
  C  26  1  0.90697900  0.63274533  0.20588600  1
  C  27  1  0.91635400  0.65139100  0.20955200  1
  C  28  1  0.04227100  0.66039233  0.21045067  1
  C  29  1  0.15881800  0.65047267  0.20728633  1
  C  30  1  0.14981600  0.63179100  0.20365900  1
  C  31  1  0.97580700  0.50496433  0.27394533  1
  C  32  1  0.84733200  0.49880067  0.28381933  1
  C  33  1  0.83276600  0.48328567  0.30728167  1
  C  34  1  0.94612500  0.47358067  0.32134867  1
  C  35  1  0.07455600  0.47998700  0.31139633  1
  C  36  1  0.08947300  0.49556467  0.28794567  1
  C  37  1  0.02387800  0.49120167  0.17863100  1
  C  38  1  0.15240800  0.48311933  0.17765067  1
  C  39  1  0.16708700  0.46412533  0.17464767  1
  C  40  1  0.05383500  0.45283633  0.17251267  1
  C  41  1  0.92536800  0.46111933  0.17333567  1
  C  42  1  0.91031700  0.48011900  0.17635400  1
  C  43  1  0.97278800  0.60884600  0.10814733  1
  C  44  1  0.08449200  0.61720533  0.09348433  1
  C  45  1  0.84310000  0.61551100  0.09897367  1
  C  46  1  0.82534600  0.63013833  0.07541833  1
  C  47  1  0.93665900  0.63840367  0.06058433  1
  C  48  1  0.06634100  0.63184567  0.06992233  1
  C  75  1  0.93180300  0.45589233  0.34579400  1
  C  78  1  0.05094100  0.67877600  0.21632033  1
  C  81  1  0.91865400  0.65305733  0.03557733  1
  C  84  1  0.06838200  0.43217767  0.17030533  1
  C  87  1  0.99596000  0.13860900  0.17240933  1
  C  88  1  0.00534800  0.15744433  0.15084300  1
  C  89  1  0.00861900  0.17693033  0.15299833  1
  C  91  1  0.99524400  0.14616533  0.18821833  1
  C  92  1  0.98823100  0.13177267  0.21228467  1
  C  93  1  0.99329800  0.13931033  0.22841867  1
  C  95  1  0.00428100  0.16201067  0.24357500  1
  C  96  1  0.00161200  0.13944700  0.26149133  1
  C  97  1  0.99312700  0.12544967  0.25214067  1
  C  98  1  0.00953200  0.18182033  0.24568533  1
  C  99  1  0.00466100  0.20463867  0.22714467  1
  C  101  1  0.99339600  0.23548167  0.19184967  1
  C  102  1  0.99466400  0.24300567  0.20768633  1
  C  103  1  0.00301200  0.22414233  0.22927200  1
  C  104  1  0.98857900  0.24992133  0.16774400  1
  C  105  1  0.99510000  0.24233133  0.15165600  1
  C  107  1  0.00837300  0.21956767  0.13657133  1
  C  108  1  0.00679700  0.24212733  0.11863467  1
  C  109  1  0.99720400  0.25616267  0.12793500  1
  C  110  1  0.01402600  0.19973333  0.13449300  1
  C  111  1  0.02279900  0.20297267  0.11210600  1
  C  112  1  0.90594900  0.20573533  0.09929400  1
  C  113  1  0.91535300  0.20940933  0.07697833  1
  C  114  1  0.04126900  0.21029967  0.06706800  1
  C  115  1  0.15781100  0.20715233  0.08013433  1
  C  116  1  0.14879100  0.20350867  0.10245067  1
  C  117  1  0.97493700  0.27379867  0.15900833  1
  C  118  1  0.84646800  0.28367933  0.15528867  1
  C  119  1  0.83191500  0.30714033  0.14734967  1
  C  120  1  0.94528400  0.32119833  0.14301367  1
  C  121  1  0.07370200  0.31124167  0.14656000  1
  C  122  1  0.08860800  0.28779167  0.15442400  1
  C  123  1  0.02301800  0.17847967  0.26807633  1
  C  124  1  0.15152900  0.17753433  0.27711500  1
  C  125  1  0.16616900  0.17453867  0.29910767  1
  C  126  1  0.05289500  0.17238033  0.31254967  1
  C  127  1  0.92444900  0.17316433  0.30346967  1
  C  128  1  0.90943700  0.17617433  0.28145567  1
  C  129  1  0.97167800  0.10799733  0.22092200  1
  C  130  1  0.08339200  0.09333633  0.22722733  1
  C  131  1  0.84201000  0.09881967  0.22343133  1
  C  132  1  0.82428600  0.07526367  0.23236167  1
  C  133  1  0.93561100  0.06043133  0.23893567  1
  C  134  1  0.06527200  0.06977133  0.23616467  1
  C  161  1  0.93094500  0.34564333  0.13625933  1
  C  164  1  0.04996100  0.21616167  0.04281667  1
  C  167  1  0.91764300  0.03542267  0.24929500  1
  C  170  1  0.06739300  0.17018767  0.33540733  1
  C  173  1  0.99868100  0.17225367  0.62689567  1
  C  174  1  0.00811700  0.15068833  0.62962533  1
  C  175  1  0.01119500  0.15284133  0.60798333  1
  C  177  1  0.99789300  0.18806267  0.60352967  1
  C  178  1  0.99079700  0.21212867  0.59385600  1
  C  179  1  0.99559400  0.22826267  0.57018267  1
  C  181  1  0.00633900  0.24341967  0.53232267  1
  C  182  1  0.00362900  0.26133633  0.53697000  1
  C  183  1  0.99531600  0.25198467  0.56032100  1
  C  184  1  0.01147600  0.24553133  0.51040100  1
  C  185  1  0.00659400  0.22698833  0.50612700  1
  C  187  1  0.99518500  0.19169333  0.51058333  1
  C  188  1  0.99644500  0.20752767  0.48722267  1
  C  189  1  0.00491200  0.22911367  0.48449700  1
  C  190  1  0.99017600  0.16758800  0.52025467  1
  C  191  1  0.99686300  0.15150033  0.54393000  1
  C  193  1  0.01035700  0.13641367  0.58177500  1
  C  194  1  0.00838900  0.11847633  0.57715367  1
  C  195  1  0.99876300  0.12777867  0.55382000  1
  C  196  1  0.01622400  0.13433367  0.60368600  1
  C  197  1  0.02494300  0.11194367  0.62283233  1
  C  198  1  0.90805900  0.09914433  0.63289867  1
  C  199  1  0.91740400  0.07682667  0.65153867  1
  C  200  1  0.04330500  0.06689567  0.66052800  1
  C  201  1  0.15988300  0.07994833  0.65058833  1
  C  202  1  0.15091700  0.10226967  0.63192500  1
  C  203  1  0.97621700  0.15885267  0.50511967  1
  C  204  1  0.84761200  0.15515267  0.49900567  1
  C  205  1  0.83272600  0.14719000  0.48350933  1
  C  206  1  0.94589700  0.14283867  0.47374533  1
  C  207  1  0.07445700  0.14637500  0.48010133  1
  C  208  1  0.08969200  0.15424033  0.49567867  1
  C  209  1  0.02496800  0.26792167  0.49134833  1
  C  210  1  0.15347600  0.27697133  0.48325300  1
  C  211  1  0.16810900  0.29896833  0.46426033  1
  C  212  1  0.05483000  0.31240067  0.45297800  1
  C  213  1  0.92638700  0.30330933  0.46127533  1
  C  214  1  0.91137700  0.28129033  0.48027433  1
  C  215  1  0.97409600  0.22076367  0.60899600  1
  C  216  1  0.08572500  0.22706667  0.61735800  1
  C  217  1  0.84436700  0.22327867  0.61565133  1
  C  218  1  0.82649100  0.23221933  0.63026733  1
  C  219  1  0.93773000  0.23878133  0.63854100  1
  C  220  1  0.06745300  0.23600133  0.63198700  1
  C  247  1  0.93122400  0.13608967  0.45605733  1
  C  250  1  0.05189200  0.04263867  0.67890733  1
  C  253  1  0.91961000  0.24913733  0.65319267  1
  C  256  1  0.06932500  0.33526033  0.43231167  1
  C  259  1  0.99584400  0.33165133  0.81997400  1
  C  260  1  0.00554900  0.32891600  0.80114433  1
  C  261  1  0.00856700  0.35055533  0.78165233  1
  C  263  1  0.99492600  0.35501833  0.81241133  1
  C  264  1  0.98770000  0.36469667  0.82679833  1
  C  265  1  0.99257700  0.38837100  0.81925533  1
  C  267  1  0.00358100  0.42622667  0.79654967  1
  C  268  1  0.00074600  0.42158433  0.81911167  1
  C  269  1  0.99225600  0.39823600  0.83311233  1
  C  270  1  0.00900900  0.44814400  0.77673867  1
  C  271  1  0.00426000  0.45241600  0.75392167  1
  C  273  1  0.99310600  0.44795400  0.72308467  1
  C  274  1  0.99440600  0.47131567  0.71555500  1
  C  275  1  0.00283100  0.47404400  0.73441367  1
  C  276  1  0.98817800  0.43828067  0.70865200  1
  C  277  1  0.99476300  0.41460267  0.71624467  1
  C  279  1  0.00808900  0.37675633  0.73901333  1
  C  280  1  0.00633900  0.38137267  0.71645667  1
  C  281  1  0.99676500  0.40470800  0.70241800  1
  C  282  1  0.01378500  0.35484667  0.75885033  1
  C  283  1  0.02282400  0.33569733  0.75561600  1
  C  284  1  0.90614100  0.32562333  0.75283833  1
  C  285  1  0.91581900  0.30697367  0.74918100  1
  C  286  1  0.04186200  0.29798467  0.74829833  1
  C  287  1  0.15823400  0.30792800  0.75146233  1
  C  288  1  0.14893200  0.32659900  0.75510400  1
  C  289  1  0.97447000  0.45341733  0.68477667  1
  C  290  1  0.84597900  0.45957367  0.67491733  1
  C  291  1  0.83136600  0.47509233  0.65145733  1
  C  292  1  0.94470200  0.48480967  0.63738000  1
  C  293  1  0.07315000  0.47840333  0.64731400  1
  C  294  1  0.08810700  0.46283167  0.67076600  1
  C  295  1  0.02248900  0.46719733  0.78007567  1
  C  296  1  0.15100000  0.47528067  0.78103667  1
  C  297  1  0.16563900  0.49427633  0.78403533  1
  C  298  1  0.05236300  0.50556500  0.78618600  1
  C  299  1  0.92391800  0.49727767  0.78538767  1
  C  300  1  0.90890800  0.47827833  0.78237000  1
  C  301  1  0.97109500  0.34956033  0.85057433  1
  C  302  1  0.08278700  0.34121533  0.86523200  1
  C  303  1  0.84141100  0.34288933  0.85975433  1
  C  304  1  0.82365200  0.32826333  0.88331100  1
  C  305  1  0.93495200  0.32000867  0.89814000  1
  C  306  1  0.06462400  0.32658033  0.88879633  1
  C  333  1  0.93032500  0.50250633  0.61293867  1
  C  336  1  0.05086200  0.27959833  0.74243500  1
  C  339  1  0.91695200  0.30535533  0.92314833  1
  C  342  1  0.06686100  0.52622800  0.78838267  1
  C  345  1  0.99484500  0.81979933  0.78629300  1
  C  346  1  0.00409600  0.80096467  0.80786100  1
  C  347  1  0.00739900  0.78147533  0.80571067  1
  C  349  1  0.99397500  0.81223733  0.77048767  1
  C  350  1  0.98691500  0.82662567  0.74642233  1
  C  351  1  0.99166200  0.81907933  0.73029300  1
  C  353  1  0.00230100  0.79636567  0.71514700  1
  C  354  1  0.99976600  0.81892833  0.69722633  1
  C  355  1  0.99142700  0.83293400  0.70657067  1
  C  356  1  0.00749800  0.77655167  0.71304400  1
  C  357  1  0.00262100  0.75373633  0.73159033  1
  C  359  1  0.99153700  0.72290033  0.76689267  1
  C  360  1  0.99291700  0.71536733  0.75106333  1
  C  361  1  0.00118200  0.73422667  0.72947267  1
  C  362  1  0.98679900  0.70846800  0.79100067  1
  C  363  1  0.99352500  0.71606467  0.80708067  1
  C  365  1  0.00716900  0.73883633  0.82214967  1
  C  366  1  0.00561400  0.71627867  0.84009233  1
  C  367  1  0.99564500  0.70224067  0.83080200  1
  C  368  1  0.01279500  0.75867467  0.82422033  1
  C  369  1  0.02188000  0.75544333  0.84660100  1
  C  370  1  0.90522000  0.75267233  0.85946967  1
  C  371  1  0.91494000  0.74901967  0.88177300  1
  C  372  1  0.04100600  0.74813967  0.89162133  1
  C  373  1  0.15735600  0.75130900  0.87849433  1
  C  374  1  0.14801200  0.75492233  0.85619367  1
  C  375  1  0.97321700  0.68458967  0.79974500  1
  C  376  1  0.84477300  0.67471267  0.80346600  1
  C  377  1  0.83027800  0.65124967  0.81141300  1
  C  378  1  0.94368600  0.63718733  0.81576233  1
  C  379  1  0.07208600  0.64714167  0.81220800  1
  C  380  1  0.08692700  0.67059333  0.80433467  1
  C  381  1  0.02111000  0.77988267  0.69065700  1
  C  382  1  0.14967000  0.78082667  0.68162033  1
  C  383  1  0.16443100  0.78382233  0.65962767  1
  C  384  1  0.05123100  0.78598633  0.64618233  1
  C  385  1  0.92273200  0.78519967  0.65526133  1
  C  386  1  0.90759900  0.78218900  0.67727500  1
  C  387  1  0.97068900  0.85041000  0.73777933  1
  C  388  1  0.08262200  0.86501600  0.73147833  1
  C  389  1  0.84116100  0.85965100  0.73526000  1
  C  390  1  0.82378300  0.88321600  0.72632500  1
  C  391  1  0.93532300  0.89799400  0.71975867  1
  C  392  1  0.06484800  0.88858800  0.72254933  1
  C  419  1  0.92943500  0.61274133  0.82251967  1
  C  422  1  0.05004700  0.74228267  0.91586767  1
  C  425  1  0.91772900  0.92301100  0.70940000  1
  C  428  1  0.06587000  0.78819033  0.62331933  1
  C  431  1  0.99646400  0.78613900  0.33182833  1
  C  432  1  0.00582000  0.80770367  0.32909867  1
  C  433  1  0.00909700  0.80554733  0.35074033  1
  C  435  1  0.99578000  0.77032767  0.35519433  1
  C  436  1  0.98880400  0.74626200  0.36486633  1
  C  437  1  0.99389700  0.73012567  0.38853800  1
  C  439  1  0.00486100  0.71496667  0.42639567  1
  C  440  1  0.00225200  0.69705167  0.42174600  1
  C  441  1  0.99377100  0.70640433  0.39839767  1
  C  442  1  0.01004200  0.71285333  0.44831700  1
  C  443  1  0.00508000  0.73139333  0.45259500  1
  C  445  1  0.99362700  0.76668767  0.44814333  1
  C  446  1  0.99484500  0.75085067  0.47150333  1
  C  447  1  0.00332100  0.72926533  0.47422600  1
  C  448  1  0.98870800  0.79079367  0.43847600  1
  C  449  1  0.99529500  0.80688333  0.41479967  1
  C  451  1  0.00871900  0.82197133  0.37695267  1
  C  452  1  0.00705400  0.83990600  0.38157833  1
  C  453  1  0.99735900  0.83060400  0.40491200  1
  C  454  1  0.01445500  0.82405133  0.35504000  1
  C  455  1  0.02322400  0.84644000  0.33589300  1
  C  456  1  0.90638200  0.85926700  0.32584733  1
  C  457  1  0.91579400  0.88158300  0.30720767  1
  C  458  1  0.04170700  0.89147900  0.29818567  1
  C  459  1  0.15824300  0.87839700  0.30810200  1
  C  460  1  0.14921500  0.85608100  0.32677267  1
  C  461  1  0.97477800  0.79952733  0.45361500  1
  C  462  1  0.84619000  0.80325767  0.45972767  1
  C  463  1  0.83133600  0.81119967  0.47524300  1
  C  464  1  0.94452500  0.81552933  0.48500433  1
  C  465  1  0.07306900  0.81197167  0.47864267  1
  C  466  1  0.08827300  0.80410533  0.46306333  1
  C  467  1  0.02352900  0.69046100  0.46736767  1
  C  468  1  0.15203900  0.68140267  0.47545400  1
  C  469  1  0.16667000  0.65940733  0.49445067  1
  C  470  1  0.05339000  0.64598267  0.50574133  1
  C  471  1  0.92494300  0.65508367  0.49745267  1
  C  472  1  0.90993900  0.67709867  0.47844767  1
  C  473  1  0.97222400  0.73762667  0.34972767  1
  C  474  1  0.08392600  0.73131533  0.34137067  1
  C  475  1  0.84254500  0.73512267  0.34306300  1
  C  476  1  0.82479100  0.72619133  0.32843933  1
  C  477  1  0.93610100  0.71961067  0.32018067  1
  C  478  1  0.06577200  0.72237633  0.32674533  1
  C  505  1  0.92986000  0.82228333  0.50269100  1
  C  508  1  0.05041100  0.91572800  0.27979300  1
  C  511  1  0.91811300  0.70925367  0.30552967  1
  C  514  1  0.06787200  0.62312433  0.52640900  1
  C  517  1  0.00678000  0.37563800  0.41596200  1
  C  518  1  0.12278600  0.38896533  0.40516300  1
  C  519  1  0.11106300  0.40845633  0.38288967  1
  C  520  1  0.98346700  0.41472767  0.37217067  1
  C  521  1  0.86660400  0.40200867  0.38344000  1
  C  522  1  0.87823300  0.38269833  0.40582667  1
  C  523  1  0.22936200  0.42265033  0.36977133  1
  C  527  1  0.25562500  0.38288467  0.41694933  1
  C  531  1  0.73268700  0.40792133  0.37191333  1
  C  535  1  0.75558400  0.36959567  0.41831933  1
  C  543  1  0.00586800  0.41584533  0.14626467  1
  C  544  1  0.12189500  0.40503533  0.14374967  1
  C  545  1  0.11019000  0.38275267  0.14655467  1
  C  546  1  0.98260800  0.37202733  0.15103233  1
  C  547  1  0.86572600  0.38330200  0.15248200  1
  C  548  1  0.87733300  0.40569733  0.14938267  1
  C  549  1  0.22851100  0.36962633  0.14548833  1
  C  553  1  0.25472400  0.41682667  0.13801967  1
  C  557  1  0.73182800  0.37176967  0.15812433  1
  C  561  1  0.75467300  0.41819367  0.14999267  1
  C  569  1  0.00528100  0.14613733  0.37580067  1
  C  570  1  0.12142900  0.14362400  0.38908600  1
  C  571  1  0.10994000  0.14641667  0.40857467  1
  C  572  1  0.98243400  0.15087733  0.41487667  1
  C  573  1  0.86542400  0.15231733  0.40219933  1
  C  574  1  0.87682700  0.14922900  0.38289233  1
  C  575  1  0.22841000  0.14535533  0.42272367  1
  C  579  1  0.25419000  0.13791367  0.38296767  1
  C  583  1  0.73158900  0.15793733  0.40814900  1
  C  587  1  0.75402600  0.14983467  0.36983133  1
  C  595  1  0.00532500  0.58275067  0.54277067  1
  C  596  1  0.12132300  0.56941600  0.55356367  1
  C  597  1  0.10959000  0.54992767  0.57583833  1
  C  598  1  0.98199400  0.54367167  0.58656933  1
  C  599  1  0.86512700  0.55639467  0.57530467  1
  C  600  1  0.87676800  0.57570067  0.55291467  1
  C  601  1  0.22788700  0.53572733  0.58895200  1
  C  605  1  0.25417400  0.57548433  0.54176733  1
  C  609  1  0.73120000  0.55048833  0.58683800  1
  C  613  1  0.75412500  0.58880833  0.54042800  1
  C  621  1  0.00436000  0.54257533  0.81241800  1
  C  622  1  0.12037700  0.55336267  0.81495067  1
  C  623  1  0.10866500  0.57563433  0.81217433  1
  C  624  1  0.98106900  0.58636433  0.80772700  1
  C  625  1  0.86419500  0.57510533  0.80627400  1
  C  626  1  0.87581900  0.55271967  0.80934400  1
  C  627  1  0.22697100  0.58874133  0.81325567  1
  C  631  1  0.25321700  0.54156567  0.82065500  1
  C  635  1  0.73028100  0.58664233  0.80066067  1
  C  639  1  0.75316100  0.54023933  0.80872933  1
  C  647  1  0.00380000  0.81225633  0.58292800  1
  C  648  1  0.11997900  0.81475133  0.56964367  1
  C  649  1  0.10851700  0.81195167  0.55016100  1
  C  650  1  0.98102400  0.80749933  0.54386633  1
  C  651  1  0.86398800  0.80607133  0.55654867  1
  C  652  1  0.87535000  0.80916467  0.57585167  1
  C  653  1  0.22701200  0.81299667  0.53601000  1
  C  657  1  0.25272500  0.82045367  0.57575467  1
  C  661  1  0.73017000  0.80045667  0.55060967  1
  C  665  1  0.75253600  0.80857367  0.58891667  1
  C  673  1  0.00295200  0.68547667  0.24860333  1
  C  674  1  0.12118800  0.69071833  0.25687000  1
  C  675  1  0.11156900  0.70506967  0.26666933  1
  C  676  1  0.98420100  0.71321933  0.26874633  1
  C  677  1  0.86786400  0.70936000  0.25900567  1
  C  678  1  0.87690900  0.69486567  0.24936800  1
  C  679  1  0.23068100  0.71156133  0.27570200  1
  C  683  1  0.25340700  0.68038667  0.25668133  1
  C  687  1  0.73660500  0.72021333  0.25877200  1
  C  691  1  0.75274500  0.68932700  0.24060833  1
  C  699  1  0.00194100  0.24844033  0.00383667  1
  C  700  1  0.12016700  0.25670433  0.99030967  1
  C  701  1  0.11051000  0.26650133  0.96616167  1
  C  702  1  0.98312800  0.26858033  0.95595367  1
  C  703  1  0.86682000  0.25882967  0.96957400  1
  C  704  1  0.87589000  0.24919567  0.99370467  1
  C  705  1  0.22961000  0.27553267  0.95061767  1
  C  709  1  0.25240400  0.25651733  0.00080933  1
  C  713  1  0.73555500  0.25858633  0.95897700  1
  C  717  1  0.75174700  0.24043267  0.00802300  1
  C  725  1  0.00348100  0.00367133  0.68560833  1
  C  726  1  0.12158600  0.99011600  0.69085433  1
  C  727  1  0.11173500  0.96597000  0.70520867  1
  C  728  1  0.98430300  0.95579400  0.71337667  1
  C  729  1  0.86811400  0.96944300  0.70950667  1
  C  730  1  0.87736900  0.99356900  0.69500100  1
  C  731  1  0.23069900  0.95039800  0.71170967  1
  C  735  1  0.25387500  0.00058367  0.68052433  1
  C  739  1  0.73680500  0.95887800  0.72036767  1
  C  743  1  0.75334600  0.00791667  0.68945400  1
  C  751  1  0.00344200  0.27288767  0.71014667  1
  C  752  1  0.12184800  0.26766000  0.70189033  1
  C  753  1  0.11251300  0.25331200  0.69208600  1
  C  754  1  0.98527100  0.24515433  0.68999067  1
  C  755  1  0.86876300  0.24900167  0.69971967  1
  C  756  1  0.87751300  0.26349367  0.70936200  1
  C  757  1  0.23181900  0.24683233  0.68306367  1
  C  761  1  0.25395400  0.27799300  0.70210767  1
  C  765  1  0.73762400  0.23814133  0.69993300  1
  C  769  1  0.75317400  0.26902033  0.71810800  1
  C  777  1  0.00260100  0.71000167  0.95487500  1
  C  778  1  0.12099900  0.70175167  0.96834800  1
  C  779  1  0.11163400  0.69194967  0.99250133  1
  C  780  1  0.98437300  0.68985600  0.00276433  1
  C  781  1  0.86788500  0.69958533  0.98919867  1
  C  782  1  0.87666800  0.70922267  0.96506433  1
  C  783  1  0.23091900  0.68293067  0.00799367  1
  C  787  1  0.25311600  0.70196233  0.95778933  1
  C  791  1  0.73673700  0.69980400  0.99985533  1
  C  795  1  0.75233700  0.71796567  0.95080233  1
  C  803  1  0.00248200  0.95472000  0.27307833  1
  C  804  1  0.12073300  0.96823000  0.26782567  1
  C  805  1  0.11112900  0.99238100  0.25347267  1
  C  806  1  0.98377100  0.00260667  0.24533267  1
  C  807  1  0.86744000  0.98900100  0.24919267  1
  C  808  1  0.87646000  0.96487000  0.26368967  1
  C  809  1  0.23025400  0.00790867  0.24697000  1
  C  813  1  0.25294600  0.95771300  0.27814767  1
  C  817  1  0.73620500  0.99961600  0.23834067  1
  C  821  1  0.75229100  0.95056800  0.26923333  1
  H  49  1  0.14854200  0.63742367  0.05956467  1
  H  50  1  0.17926700  0.61251067  0.09981767  1
  H  51  1  0.73026400  0.63451933  0.06916967  1
  H  52  1  0.76082000  0.60960233  0.10932867  1
  H  53  1  0.99264600  0.63990233  0.12228667  1
  H  54  1  0.00779800  0.64491733  0.15688800  1
  H  55  1  0.00613900  0.57659367  0.17911533  1
  H  56  1  0.99889800  0.53720100  0.20278400  1
  H  57  1  0.99062700  0.56837833  0.10818133  1
  H  58  1  0.00381200  0.52531833  0.13400133  1
  H  59  1  0.23607100  0.49088233  0.17930133  1
  H  60  1  0.26136100  0.45849167  0.17422767  1
  H  61  1  0.81625600  0.48568333  0.17706867  1
  H  62  1  0.84169100  0.45315133  0.17205400  1
  H  63  1  0.00681000  0.46891233  0.22499767  1
  H  64  1  0.99379500  0.47391133  0.25964333  1
  H  65  1  0.01079600  0.58851733  0.24785067  1
  H  66  1  0.99508000  0.54548633  0.27372867  1
  H  67  1  0.76359800  0.50529167  0.27394267  1
  H  68  1  0.73854200  0.47872467  0.31390500  1
  H  69  1  0.18347400  0.49970067  0.28109900  1
  H  70  1  0.15825700  0.47304933  0.32113100  1
  H  71  1  0.23570800  0.62468267  0.20175600  1
  H  72  1  0.25138200  0.65637367  0.20821133  1
  H  73  1  0.83048700  0.65811433  0.21195900  1
  H  74  1  0.81471600  0.62636733  0.20558267  1
  H  76  1  0.82821900  0.45458567  0.35140233  1
  H  77  1  0.99102900  0.46101433  0.35605300  1
  H  79  1  0.98734500  0.69297700  0.20460367  1
  H  80  1  0.15273300  0.68538333  0.21411533  1
  H  82  1  0.81285800  0.65462233  0.03106167  1
  H  83  1  0.96721700  0.64455133  0.02735267  1
  H  85  1  0.01389500  0.41828000  0.18444033  1
  H  86  1  0.17298700  0.42692367  0.17208967  1
  H  135  1  0.14748200  0.05941767  0.24093667  1
  H  136  1  0.17815700  0.09967033  0.22559333  1
  H  137  1  0.72921500  0.06901267  0.23422700  1
  H  138  1  0.75972000  0.10917400  0.21898233  1
  H  139  1  0.99141700  0.12213967  0.17572133  1
  H  140  1  0.00659400  0.15674133  0.13610500  1
  H  141  1  0.00497200  0.17896633  0.18220233  1
  H  142  1  0.99862200  0.20263767  0.19792433  1
  H  143  1  0.98922100  0.10803433  0.26135433  1
  H  144  1  0.00262600  0.13385367  0.27859100  1
  H  145  1  0.23520500  0.17920767  0.26768633  1
  H  146  1  0.26042900  0.17414867  0.30514200  1
  H  147  1  0.81538800  0.17687133  0.27519100  1
  H  148  1  0.84076100  0.17187067  0.31273100  1
  H  149  1  0.00520000  0.22484033  0.24401033  1
  H  150  1  0.99213700  0.25948633  0.20436967  1
  H  151  1  0.01024800  0.24770567  0.10154667  1
  H  152  1  0.99461400  0.27358533  0.11870133  1
  H  153  1  0.76272800  0.27380533  0.15867600  1
  H  154  1  0.73769300  0.31376267  0.14530100  1
  H  155  1  0.18260100  0.28094100  0.15714033  1
  H  156  1  0.15740500  0.32097133  0.14377467  1
  H  157  1  0.23467700  0.20160700  0.11145233  1
  H  158  1  0.25037700  0.20804967  0.07330867  1
  H  159  1  0.82948000  0.21179533  0.06786367  1
  H  160  1  0.81368600  0.20543333  0.10598433  1
  H  162  1  0.82735700  0.35125033  0.13197133  1
  H  163  1  0.99016800  0.35590333  0.12087067  1
  H  165  1  0.98636000  0.20444267  0.04034267  1
  H  166  1  0.15175000  0.21395533  0.03840467  1
  H  168  1  0.81184000  0.03090300  0.25224000  1
  H  169  1  0.96610300  0.02720433  0.26602767  1
  H  171  1  0.01276500  0.18431167  0.33517367  1
  H  172  1  0.17197400  0.17200267  0.33885533  1
  H  221  1  0.14961000  0.24076533  0.63758067  1
  H  222  1  0.18053200  0.22542133  0.61267233  1
  H  223  1  0.73137900  0.23408233  0.63465000  1
  H  224  1  0.76213500  0.21883633  0.60973600  1
  H  225  1  0.99407700  0.17556567  0.64005300  1
  H  226  1  0.00905700  0.13594733  0.64506500  1
  H  227  1  0.00737300  0.18204500  0.57674267  1
  H  228  1  0.00036300  0.19777033  0.53735067  1
  H  229  1  0.99176600  0.26119767  0.56852600  1
  H  230  1  0.00486000  0.27843600  0.52546567  1
  H  231  1  0.23715600  0.26755367  0.49101333  1
  H  232  1  0.26237200  0.30501233  0.45861633  1
  H  233  1  0.81733400  0.27501833  0.48584433  1
  H  234  1  0.84269100  0.31255833  0.45330400  1
  H  235  1  0.00710400  0.24385133  0.46905933  1
  H  236  1  0.99384600  0.20420967  0.47406033  1
  H  237  1  0.01158700  0.10138633  0.58866467  1
  H  238  1  0.99561500  0.11854433  0.54563500  1
  H  239  1  0.76400900  0.15854267  0.50553033  1
  H  240  1  0.73841400  0.14515667  0.47896833  1
  H  241  1  0.18377900  0.15695833  0.49976567  1
  H  242  1  0.15802400  0.14358633  0.47311967  1
  H  243  1  0.23682700  0.11126033  0.62480933  1
  H  244  1  0.25242700  0.07310833  0.65649467  1
  H  245  1  0.83150600  0.06772133  0.65827433  1
  H  246  1  0.81580600  0.10584833  0.62653300  1
  H  248  1  0.82758800  0.13179833  0.45478867  1
  H  249  1  0.99042800  0.12070433  0.46115267  1
  H  251  1  0.98838400  0.04016867  0.69311633  1
  H  252  1  0.15369800  0.03820767  0.68550367  1
  H  254  1  0.81378800  0.25209067  0.65475367  1
  H  255  1  0.96812000  0.26586667  0.64468767  1
  H  257  1  0.01481000  0.33501833  0.41842233  1
  H  258  1  0.17391700  0.33872067  0.42704833  1
  H  307  1  0.14682200  0.32100800  0.89914833  1
  H  308  1  0.17756300  0.34591467  0.85889400  1
  H  309  1  0.72857100  0.32387067  0.88956400  1
  H  310  1  0.75914200  0.34878433  0.84940100  1
  H  311  1  0.99144600  0.31849667  0.83644633  1
  H  312  1  0.00674400  0.31347367  0.80184967  1
  H  313  1  0.00422100  0.38179967  0.77960433  1
  H  314  1  0.99809300  0.42119033  0.75593200  1
  H  315  1  0.98860400  0.39003467  0.85052900  1
  H  316  1  0.00203200  0.43308967  0.82470567  1
  H  317  1  0.23468200  0.46751467  0.77938100  1
  H  318  1  0.25990300  0.49990733  0.78444700  1
  H  319  1  0.81485800  0.47272067  0.78165667  1
  H  320  1  0.84022200  0.50525633  0.78666233  1
  H  321  1  0.00482900  0.48948233  0.73371300  1
  H  322  1  0.99184700  0.48447700  0.69907367  1
  H  323  1  0.00945600  0.36985667  0.71088267  1
  H  324  1  0.99371700  0.41288967  0.68499900  1
  H  325  1  0.76226100  0.45307033  0.68480100  1
  H  326  1  0.73713000  0.47964833  0.64484467  1
  H  327  1  0.18212100  0.45870133  0.67760067  1
  H  328  1  0.15683500  0.48536133  0.63757400  1
  H  329  1  0.23471200  0.33372600  0.75700167  1
  H  330  1  0.25088200  0.30202733  0.75056333  1
  H  331  1  0.83006800  0.30023833  0.74676767  1
  H  332  1  0.81379400  0.33199233  0.75312867  1
  H  334  1  0.82673200  0.50381867  0.60734400  1
  H  335  1  0.98954400  0.49738900  0.60266667  1
  H  337  1  0.98726000  0.26539400  0.75414167  1
  H  338  1  0.15269900  0.27299833  0.74466067  1
  H  340  1  0.81114400  0.30377567  0.92767300  1
  H  341  1  0.96539400  0.31386867  0.93136833  1
  H  343  1  0.01232500  0.54012233  0.77425300  1
  H  344  1  0.17145200  0.53148467  0.78658133  1
  H  393  1  0.14721200  0.89890300  0.71777200  1
  H  394  1  0.17729200  0.85863400  0.73312467  1
  H  395  1  0.72881000  0.88951467  0.72444967  1
  H  396  1  0.75872100  0.84933700  0.73970467  1
  H  397  1  0.99046800  0.83627200  0.78297533  1
  H  398  1  0.00570400  0.80167467  0.82259500  1
  H  399  1  0.00353100  0.77942967  0.77651367  1
  H  400  1  0.99619400  0.75575067  0.76080300  1
  H  401  1  0.98818400  0.85035300  0.69735467  1
  H  402  1  0.00117300  0.82451967  0.68012800  1
  H  403  1  0.23329800  0.77915567  0.69104933  1
  H  404  1  0.25873100  0.78421767  0.65359267  1
  H  405  1  0.81351900  0.78150167  0.68353467  1
  H  406  1  0.83909200  0.78650467  0.64599467  1
  H  407  1  0.00380900  0.73352033  0.71474033  1
  H  408  1  0.99088700  0.69888167  0.75439033  1
  H  409  1  0.00868700  0.71070833  0.85718067  1
  H  410  1  0.99276700  0.68481967  0.84004233  1
  H  411  1  0.76100900  0.68458633  0.80008733  1
  H  412  1  0.73607700  0.64462333  0.81348267  1
  H  413  1  0.18090100  0.67744200  0.80161500  1
  H  414  1  0.15581700  0.63740967  0.81499633  1
  H  415  1  0.23377000  0.75683033  0.84715033  1
  H  416  1  0.25002300  0.75039733  0.88528233  1
  H  417  1  0.82920800  0.74660967  0.89093467  1
  H  418  1  0.81285800  0.75296400  0.85282500  1
  H  420  1  0.82586900  0.60713100  0.82682633  1
  H  421  1  0.98870900  0.60248267  0.83789833  1
  H  423  1  0.98646100  0.75399100  0.91837300  1
  H  424  1  0.15189900  0.74450833  0.92022533  1
  H  426  1  0.81199000  0.92758233  0.70644900  1
  H  427  1  0.96627200  0.93120700  0.69266933  1
  H  429  1  0.01130600  0.77407167  0.62354367  1
  H  430  1  0.17047800  0.78637433  0.61987333  1
  H  479  1  0.14797600  0.71760000  0.32116300  1
  H  480  1  0.17870000  0.73294467  0.34606967  1
  H  481  1  0.72971200  0.72433000  0.32405633  1
  H  482  1  0.76026100  0.73957567  0.34897000  1
  H  483  1  0.99191700  0.78282767  0.31867100  1
  H  484  1  0.00702800  0.82244267  0.31365800  1
  H  485  1  0.00553000  0.77634200  0.38197967  1
  H  486  1  0.99906400  0.76061533  0.42137300  1
  H  487  1  0.98988300  0.69719233  0.39019467  1
  H  488  1  0.00326100  0.67995167  0.43325100  1
  H  489  1  0.23571700  0.69081833  0.46769433  1
  H  490  1  0.26093000  0.65335867  0.50009100  1
  H  491  1  0.81589500  0.68337833  0.47288567  1
  H  492  1  0.84125000  0.64583667  0.50542600  1
  H  493  1  0.00549100  0.71452667  0.48966233  1
  H  494  1  0.99220800  0.75416667  0.48466800  1
  H  495  1  0.01049800  0.85699500  0.37007033  1
  H  496  1  0.99469100  0.83983500  0.41310367  1
  H  497  1  0.76257000  0.79987567  0.45321133  1
  H  498  1  0.73702600  0.81325633  0.47978167  1
  H  499  1  0.18234900  0.80138200  0.45896333  1
  H  500  1  0.15664600  0.81475167  0.48561667  1
  H  501  1  0.23509800  0.84706800  0.33387033  1
  H  502  1  0.25080700  0.88521200  0.30217067  1
  H  503  1  0.82992800  0.89070800  0.30048100  1
  H  504  1  0.81411800  0.85258800  0.33223600  1
  H  506  1  0.82622900  0.82658667  0.50396633  1
  H  507  1  0.98907900  0.83766300  0.49758833  1
  H  509  1  0.98679800  0.91820600  0.26559933  1
  H  510  1  0.15220000  0.92012800  0.27317667  1
  H  512  1  0.81230900  0.70631267  0.30395800  1
  H  513  1  0.96659400  0.69251833  0.31404200  1
  H  515  1  0.01335000  0.62337367  0.54030133  1
  H  516  1  0.17246600  0.61965667  0.53166500  1
  H  524  1  0.32545600  0.41679633  0.37819467  1
  H  525  1  0.21621900  0.44008633  0.36635567  1
  H  526  1  0.23736500  0.42295033  0.35353267  1
  H  528  1  0.25399600  0.36869867  0.43436900  1
  H  529  1  0.29487100  0.39743033  0.41790767  1
  H  530  1  0.32551100  0.37836467  0.40745500  1
  H  532  1  0.73360800  0.42167167  0.35428767  1
  H  533  1  0.66454900  0.41303333  0.38114167  1
  H  534  1  0.69105900  0.39315967  0.37164833  1
  H  536  1  0.77317200  0.35651233  0.43598600  1
  H  537  1  0.71240200  0.36118533  0.40964300  1
  H  538  1  0.68165000  0.38113667  0.41891533  1
  H  540  1  0.93956900  0.42898967  0.33833067  1
  H  542  1  0.05660800  0.35416033  0.44952367  1
  H  550  1  0.32459600  0.37805367  0.14290233  1
  H  551  1  0.21540800  0.36618933  0.13148367  1
  H  552  1  0.23649700  0.35339800  0.16143833  1
  H  554  1  0.25305100  0.43425300  0.13476500  1
  H  555  1  0.29399900  0.41776733  0.12252000  1
  H  556  1  0.32459600  0.40734767  0.15203000  1
  H  558  1  0.73276800  0.35413833  0.16201767  1
  H  559  1  0.66367600  0.38098367  0.14379133  1
  H  560  1  0.69019500  0.37152133  0.17314767  1
  H  562  1  0.77223800  0.43586833  0.14538367  1
  H  563  1  0.71151100  0.40953367  0.16708667  1
  H  564  1  0.68072500  0.41876967  0.13787600  1
  H  566  1  0.93871500  0.33818667  0.17062233  1
  H  568  1  0.05566900  0.44940333  0.13419567  1
  H  576  1  0.32443100  0.14278167  0.41684200  1
  H  577  1  0.21545900  0.13134267  0.44016833  1
  H  578  1  0.23643500  0.16130067  0.42300767  1
  H  580  1  0.25238100  0.13467233  0.36878767  1
  H  581  1  0.29358000  0.12241400  0.39750467  1
  H  582  1  0.32404300  0.15193033  0.37841767  1
  H  584  1  0.73267800  0.16182067  0.42189400  1
  H  585  1  0.66347900  0.14359567  0.41328967  1
  H  586  1  0.68982000  0.17295967  0.39339667  1
  H  588  1  0.77144500  0.14524267  0.35674800  1
  H  589  1  0.71079300  0.16692233  0.36142700  1
  H  590  1  0.68019000  0.13770233  0.38139800  1
  H  592  1  0.93872100  0.17045567  0.42915233  1
  H  594  1  0.05485900  0.13407467  0.35429333  1
  H  602  1  0.32398200  0.54157333  0.58052233  1
  H  603  1  0.21475000  0.51829133  0.59237200  1
  H  604  1  0.23586600  0.53543133  0.60518733  1
  H  606  1  0.25254700  0.58966700  0.52434733  1
  H  607  1  0.29342100  0.56093367  0.54081000  1
  H  608  1  0.32404700  0.58000167  0.55125433  1
  H  610  1  0.73211700  0.53674167  0.60446533  1
  H  611  1  0.66310200  0.54537333  0.57761700  1
  H  612  1  0.68952600  0.56525333  0.58710000  1
  H  614  1  0.77172200  0.60188833  0.52275900  1
  H  615  1  0.71092300  0.59722533  0.54910400  1
  H  616  1  0.68020100  0.57727067  0.53984033  1
  H  618  1  0.93805100  0.52940067  0.62041300  1
  H  620  1  0.05516900  0.60421867  0.50920500  1
  H  628  1  0.32306100  0.58031067  0.81582500  1
  H  629  1  0.21384000  0.59215533  0.82727700  1
  H  630  1  0.23496600  0.60498133  0.79731833  1
  H  632  1  0.25158500  0.52414933  0.82388267  1
  H  633  1  0.29248200  0.54059933  0.83616133  1
  H  634  1  0.32309000  0.55105833  0.80664200  1
  H  636  1  0.73120700  0.60426633  0.79679033  1
  H  637  1  0.66215100  0.57741633  0.81499967  1
  H  638  1  0.68863500  0.58691467  0.78563133  1
  H  640  1  0.77074400  0.52257233  0.81330800  1
  H  641  1  0.70996100  0.54892233  0.79164300  1
  H  642  1  0.67924100  0.53964467  0.82086833  1
  H  644  1  0.93716200  0.62020700  0.78815300  1
  H  646  1  0.05418800  0.50901067  0.82449600  1
  H  654  1  0.32302100  0.81556367  0.54188700  1
  H  655  1  0.21408800  0.82700667  0.51856367  1
  H  656  1  0.23503800  0.79704733  0.53573167  1
  H  658  1  0.25087800  0.82370367  0.58992967  1
  H  659  1  0.29214100  0.83594700  0.56121233  1
  H  660  1  0.32257200  0.80643033  0.58030800  1
  H  662  1  0.73128800  0.79656767  0.53686833  1
  H  663  1  0.66205200  0.81480300  0.54546867  1
  H  664  1  0.68839500  0.78543933  0.56536667  1
  H  666  1  0.76993600  0.81317333  0.60199300  1
  H  667  1  0.70931300  0.79148833  0.59733033  1
  H  668  1  0.67870300  0.82070700  0.57735167  1
  H  670  1  0.93734200  0.78791833  0.52959967  1
  H  672  1  0.05334000  0.82430367  0.60444300  1
  H  680  1  0.32703900  0.70696333  0.27173733  1
  H  681  1  0.22370000  0.70338967  0.29423300  1
  H  682  1  0.23276800  0.73003933  0.26851833  1
  H  684  1  0.25107600  0.66827967  0.25059667  1
  H  685  1  0.29371700  0.67111633  0.27397367  1
  H  686  1  0.32302300  0.69385767  0.24570033  1
  H  688  1  0.74054300  0.73210367  0.26512633  1
  H  689  1  0.66374200  0.70709500  0.26916900  1
  H  690  1  0.69922800  0.72997567  0.24133200  1
  H  692  1  0.76730200  0.67742967  0.23442133  1
  H  693  1  0.71133000  0.70486767  0.22642500  1
  H  694  1  0.67836300  0.68161333  0.25418000  1
  H  696  1  0.94026900  0.73989933  0.27393667  1
  H  698  1  0.04439400  0.65451167  0.25179833  1
  H  706  1  0.32597200  0.27156633  0.95916533  1
  H  707  1  0.22263500  0.29406367  0.94026000  1
  H  708  1  0.23165400  0.26834833  0.93932367  1
  H  710  1  0.25009700  0.25043567  0.01900033  1
  H  711  1  0.29271200  0.27381033  0.99277800  1
  H  712  1  0.32200300  0.24553533  0.99831067  1
  H  714  1  0.73947300  0.26493767  0.94073267  1
  H  715  1  0.66268100  0.26898067  0.96170767  1
  H  716  1  0.69820400  0.24114467  0.96666333  1
  H  718  1  0.76632500  0.23425067  0.02610433  1
  H  719  1  0.71035100  0.22624433  0.00667667  1
  H  720  1  0.67734700  0.25400133  0.00217367  1
  H  722  1  0.93917100  0.27376333  0.92409233  1
  H  724  1  0.04342600  0.25164133  0.03159667  1
  H  732  1  0.32713000  0.95892200  0.70709667  1
  H  733  1  0.22350300  0.94002300  0.70355833  1
  H  734  1  0.23278700  0.93912000  0.73019033  1
  H  736  1  0.25170500  0.01877667  0.66841633  1
  H  737  1  0.29402500  0.99254500  0.67125400  1
  H  738  1  0.32354100  0.99806600  0.69399500  1
  H  740  1  0.74059800  0.94063400  0.73226733  1
  H  741  1  0.66388200  0.96161700  0.70725500  1
  H  742  1  0.69958900  0.96658100  0.73012033  1
  H  744  1  0.76804600  0.02599200  0.67754267  1
  H  745  1  0.71203000  0.00659033  0.70498933  1
  H  746  1  0.67884000  0.00207567  0.68175233  1
  H  748  1  0.94012900  0.92394000  0.74004967  1
  H  750  1  0.04510500  0.03142667  0.65464433  1
  H  758  1  0.32806800  0.25144400  0.68703333  1
  H  759  1  0.22495200  0.25499933  0.66453233  1
  H  760  1  0.23404700  0.22835367  0.69025167  1
  H  762  1  0.25140700  0.29009133  0.70820267  1
  H  763  1  0.29439900  0.28727367  0.68482233  1
  H  764  1  0.32356200  0.26452133  0.71309467  1
  H  766  1  0.74177100  0.22625667  0.69357267  1
  H  767  1  0.66474000  0.25125533  0.68953133  1
  H  768  1  0.70013700  0.22837133  0.71736800  1
  H  770  1  0.76751100  0.28091400  0.72430333  1
  H  771  1  0.71175000  0.25347467  0.73228400  1
  H  772  1  0.67888100  0.27673200  0.70452800  1
  H  774  1  0.94167900  0.21848133  0.68478100  1
  H  776  1  0.04457500  0.30385767  0.70695467  1
  H  784  1  0.32718100  0.68689867  0.99940467  1
  H  785  1  0.22404500  0.66439967  0.01836233  1
  H  786  1  0.23311800  0.69012267  0.01928033  1
  H  788  1  0.25059200  0.70805300  0.93959633  1
  H  789  1  0.29354500  0.68467633  0.96579433  1
  H  790  1  0.32272400  0.71294967  0.96026400  1
  H  792  1  0.74086300  0.69344600  0.01810000  1
  H  793  1  0.66385200  0.68940200  0.99715167  1
  H  794  1  0.69926900  0.71724033  0.99219100  1
  H  796  1  0.76669200  0.72415467  0.93271400  1
  H  797  1  0.71090100  0.73214333  0.95217167  1
  H  798  1  0.67804300  0.70438333  0.95668200  1
  H  800  1  0.94073000  0.68464000  0.03465267  1
  H  802  1  0.04377600  0.70679967  0.92709933  1
  H  810  1  0.32660200  0.99934800  0.25156433  1
  H  811  1  0.22327400  0.01827267  0.25513700  1
  H  812  1  0.23235000  0.01919833  0.22849100  1
  H  814  1  0.25060700  0.93952133  0.29025467  1
  H  815  1  0.29326300  0.96573700  0.28741333  1
  H  816  1  0.32256300  0.96020433  0.26467100  1
  H  818  1  0.74015400  0.01786067  0.22644933  1
  H  819  1  0.66330600  0.99689400  0.25145867  1
  H  820  1  0.69885900  0.99193600  0.22858000  1
  H  822  1  0.76682800  0.93248467  0.28113167  1
  H  823  1  0.71091200  0.95192200  0.25369433  1
  H  824  1  0.67789200  0.95642600  0.27694767  1
  H  826  1  0.93988000  0.03447267  0.21865067  1
  H  828  1  0.04390500  0.92695800  0.30404533  1
  N  4  1  0.00460000  0.59285300  0.16935133  1
  N  8  1  0.00048100  0.55258633  0.16117267  1
  N  14  1  0.99968200  0.52094233  0.21255500  1
  N  20  1  0.00290600  0.56120000  0.22075000  1
  N  90  1  0.00347200  0.16920267  0.17570700  1
  N  94  1  0.99964300  0.16102167  0.22415200  1
  N  100  1  0.99899400  0.21240667  0.20441500  1
  N  106  1  0.00176100  0.22060233  0.15596267  1
  N  176  1  0.00606900  0.17555133  0.59300267  1
  N  180  1  0.00183200  0.22399667  0.55273600  1
  N  186  1  0.00085100  0.20425967  0.52109133  1
  N  192  1  0.00381200  0.15580567  0.56135033  1
  N  262  1  0.00315600  0.36554033  0.78937400  1
  N  266  1  0.99900400  0.40581300  0.79754333  1
  N  272  1  0.99863900  0.43744900  0.74615967  1
  N  278  1  0.00154300  0.39718433  0.73797400  1
  N  348  1  0.00208100  0.78919733  0.78300533  1
  N  352  1  0.99776300  0.79736333  0.73456633  1
  N  358  1  0.99687900  0.74597667  0.75431933  1
  N  364  1  0.00036300  0.73779500  0.80276467  1
  N  434  1  0.00400100  0.78283767  0.36572100  1
  N  438  1  0.00021100  0.73439067  0.40598433  1
  N  444  1  0.99938100  0.75412367  0.43763300  1
  N  450  1  0.00207300  0.80257933  0.39737600  1
  N  539  1  0.97985400  0.43351700  0.34946100  1
  N  541  1  0.01522900  0.35370433  0.43589900  1
  N  565  1  0.97899600  0.34931533  0.15495933  1
  N  567  1  0.01428900  0.43577367  0.14827700  1
  N  591  1  0.97903500  0.15479833  0.43366667  1
  N  593  1  0.01346600  0.14814967  0.35385800  1
  N  617  1  0.97835500  0.52487567  0.60927667  1
  N  619  1  0.01377600  0.60468233  0.52283000  1
  N  643  1  0.97746600  0.60907267  0.80381133  1
  N  645  1  0.01279500  0.52264000  0.81041567  1
  N  669  1  0.97765500  0.80357333  0.52508067  1
  N  671  1  0.01196100  0.81023433  0.60487533  1
  N  695  1  0.97797100  0.72363733  0.28254000  1
  N  697  1  0.00482500  0.67005133  0.24014567  1
  N  721  1  0.97686500  0.28236933  0.93174433  1
  N  723  1  0.00385100  0.23998633  0.02771800  1
  N  747  1  0.97782500  0.93158700  0.72378700  1
  N  749  1  0.00557100  0.02755367  0.67018367  1
  N  773  1  0.97932700  0.23474533  0.67618900  1
  N  775  1  0.00501500  0.28831733  0.71860133  1
  N  799  1  0.97839600  0.67605100  0.02697500  1
  N  801  1  0.00420000  0.71844967  0.93099267  1
  N  825  1  0.97755600  0.02681700  0.23491033  1
  N  827  1  0.00433900  0.93083800  0.28851067  1
