# generated using pymatgen
data_H32C43N8
_symmetry_space_group_name_H-M   'P 1'
_cell_length_a   40.51250000
_cell_length_b   40.51250000
_cell_length_c   40.51250000
_cell_angle_alpha   90.00000000
_cell_angle_beta   90.00000000
_cell_angle_gamma   90.00000000
_symmetry_Int_Tables_number   1
_chemical_formula_structural   H32C43N8
_chemical_formula_sum   'H512 C688 N128'
_cell_volume   66491.65336133
_cell_formula_units_Z   16
loop_
 _symmetry_equiv_pos_site_id
 _symmetry_equiv_pos_as_xyz
  1  'x, y, z'
loop_
 _atom_site_type_symbol
 _atom_site_label
 _atom_site_symmetry_multiplicity
 _atom_site_fract_x
 _atom_site_fract_y
 _atom_site_fract_z
 _atom_site_occupancy
  H  25  1  0.93130800  0.00739800  0.11674900  1
  H  26  1  0.96405800  0.05432100  0.10387400  1
  H  27  1  0.04683400  0.11228200  0.03791000  1
  H  28  1  0.08117000  0.11781000  0.99075100  1
  H  29  1  0.05276200  0.02353300  0.95819300  1
  H  30  1  0.96560600  0.95944000  0.03141300  1
  H  31  1  0.05270800  0.99222200  0.05747500  1
  H  32  1  0.08128500  0.89801400  0.02484600  1
  H  33  1  0.04698900  0.90354400  0.97765700  1
  H  34  1  0.96555900  0.05627300  0.98425200  1
  H  35  1  0.96414500  0.96144400  0.91171600  1
  H  36  1  0.93134000  0.00834000  0.89886900  1
  H  39  1  0.99002100  0.08577200  0.05314900  1
  H  40  1  0.02147600  0.06724400  0.07730800  1
  H  42  1  0.02159600  0.94859600  0.93828600  1
  H  43  1  0.99015100  0.92998200  0.96239200  1
  H  72  1  0.58436500  0.00833300  0.61686200  1
  H  73  1  0.55155600  0.96144400  0.60401600  1
  H  74  1  0.46871500  0.90354400  0.53807900  1
  H  75  1  0.43441400  0.89801200  0.49088800  1
  H  76  1  0.46300000  0.99221800  0.45825600  1
  H  77  1  0.55015900  0.05626300  0.53147100  1
  H  78  1  0.46296600  0.02354300  0.55754400  1
  H  79  1  0.43456700  0.11782100  0.52497900  1
  H  80  1  0.46888500  0.11228400  0.47781800  1
  H  81  1  0.55010700  0.95943500  0.48431500  1
  H  82  1  0.55165000  0.05431500  0.41185100  1
  H  83  1  0.58440500  0.00739300  0.39897800  1
  H  86  1  0.52555400  0.92998000  0.55333800  1
  H  87  1  0.49411200  0.94859900  0.57744200  1
  H  89  1  0.49422800  0.06723700  0.43841500  1
  H  90  1  0.52568500  0.08576400  0.46256800  1
  H  119  1  0.26164000  0.68154300  0.36712400  1
  H  120  1  0.21457000  0.71475500  0.35586100  1
  H  121  1  0.15387700  0.79587600  0.28997000  1
  H  122  1  0.14710900  0.82992400  0.24272600  1
  H  123  1  0.24134700  0.80265600  0.20891300  1
  H  124  1  0.30637700  0.71445400  0.27951400  1
  H  125  1  0.27438900  0.80264900  0.30680400  1
  H  126  1  0.36860500  0.82994200  0.27295000  1
  H  127  1  0.36182400  0.79590500  0.22570500  1
  H  128  1  0.20934200  0.71445600  0.23620100  1
  H  129  1  0.30112400  0.71477500  0.15982800  1
  H  130  1  0.25405700  0.68155800  0.14857400  1
  H  133  1  0.18133400  0.73985800  0.30569300  1
  H  134  1  0.20049600  0.77170300  0.32881500  1
  H  136  1  0.31519700  0.77173200  0.18687600  1
  H  137  1  0.33437100  0.73987800  0.20997800  1
  H  166  1  0.25413400  0.33415100  0.86708800  1
  H  167  1  0.30119600  0.30093700  0.85581000  1
  H  168  1  0.36189600  0.21985500  0.78988000  1
  H  169  1  0.36867600  0.18584400  0.74262500  1
  H  170  1  0.27437500  0.21298600  0.70889500  1
  H  171  1  0.20934000  0.30119100  0.77953000  1
  H  172  1  0.24130000  0.21300200  0.80683800  1
  H  173  1  0.14706000  0.18577300  0.77300400  1
  H  174  1  0.15386900  0.21976000  0.72573900  1
  H  175  1  0.30635700  0.30120600  0.73620300  1
  H  176  1  0.21457900  0.30084100  0.65982900  1
  H  177  1  0.26163000  0.33407700  0.64857300  1
  H  180  1  0.33439600  0.27582600  0.80563100  1
  H  181  1  0.31527600  0.24397300  0.82877900  1
  H  183  1  0.20051300  0.24389500  0.68689200  1
  H  184  1  0.18134000  0.27575200  0.70998800  1
  H  213  1  0.75786300  0.33504700  0.64908100  1
  H  214  1  0.80522800  0.30326200  0.66281500  1
  H  215  1  0.86416600  0.22252300  0.73077000  1
  H  216  1  0.86882100  0.18719700  0.77740500  1
  H  217  1  0.77211000  0.21162300  0.80612200  1
  H  218  1  0.70915200  0.29988300  0.73357100  1
  H  219  1  0.74362700  0.21160600  0.70960300  1
  H  220  1  0.64691400  0.18717100  0.73831100  1
  H  221  1  0.65156000  0.22250500  0.78494300  1
  H  222  1  0.80657100  0.29987500  0.78215900  1
  H  223  1  0.71048700  0.30324200  0.85290700  1
  H  224  1  0.75785000  0.33503200  0.86664600  1
  H  227  1  0.83618200  0.27836800  0.71474500  1
  H  228  1  0.81951500  0.24651900  0.68977200  1
  H  230  1  0.69621500  0.24650100  0.82594800  1
  H  231  1  0.67953900  0.27834900  0.80097800  1
  H  260  1  0.75788000  0.68071600  0.14908000  1
  H  261  1  0.71052200  0.71251900  0.16279800  1
  H  262  1  0.65158200  0.79327900  0.23071000  1
  H  263  1  0.64689700  0.82859100  0.27734900  1
  H  264  1  0.74357300  0.80411700  0.30614800  1
  H  265  1  0.80657600  0.71586600  0.23358600  1
  H  266  1  0.77213700  0.80413500  0.20960000  1
  H  267  1  0.86882600  0.82858200  0.23838300  1
  H  268  1  0.86414300  0.79325900  0.28501300  1
  H  269  1  0.70913900  0.71587100  0.28214300  1
  H  270  1  0.80518900  0.71251900  0.35293800  1
  H  271  1  0.75782800  0.68072100  0.36665200  1
  H  274  1  0.67955800  0.73742000  0.21470700  1
  H  275  1  0.69625000  0.76926700  0.18974700  1
  H  277  1  0.81946600  0.76926200  0.32598300  1
  H  278  1  0.83616200  0.73741500  0.30102800  1
  H  307  1  0.43189600  0.50355300  0.61736300  1
  H  308  1  0.46497800  0.55085200  0.60608700  1
  H  309  1  0.54424500  0.61280100  0.53851000  1
  H  310  1  0.57877200  0.61911300  0.49144100  1
  H  311  1  0.55352600  0.52363900  0.45956900  1
  H  312  1  0.46417300  0.45952300  0.52921000  1
  H  313  1  0.55353500  0.49208800  0.55609300  1
  H  314  1  0.57875200  0.39658600  0.52428500  1
  H  315  1  0.54422500  0.40288100  0.47721100  1
  H  316  1  0.46417300  0.55616900  0.48647200  1
  H  317  1  0.46496000  0.46481700  0.40961700  1
  H  318  1  0.43188200  0.51211900  0.39833900  1
  H  321  1  0.48895300  0.58438500  0.55517000  1
  H  322  1  0.52125700  0.56602300  0.57828600  1
  H  324  1  0.52124700  0.44965100  0.43741100  1
  H  325  1  0.48894600  0.43129700  0.46053500  1
  H  354  1  0.08380200  0.51213800  0.11740200  1
  H  355  1  0.05072100  0.46483700  0.10612400  1
  H  356  1  0.97146800  0.40289100  0.03851400  1
  H  357  1  0.93694100  0.39660100  0.99143800  1
  H  358  1  0.96217700  0.49209500  0.95962000  1
  H  359  1  0.05153800  0.55617200  0.02924800  1
  H  360  1  0.96220700  0.52364800  0.05615900  1
  H  361  1  0.93695600  0.61912000  0.02429000  1
  H  362  1  0.97147600  0.61280600  0.97721500  1
  H  363  1  0.05154200  0.45952300  0.98650600  1
  H  364  1  0.05073800  0.55086000  0.90963300  1
  H  365  1  0.08381600  0.50355800  0.89835800  1
  H  368  1  0.02675100  0.43130400  0.05519900  1
  H  369  1  0.99444600  0.44966900  0.07831600  1
  H  371  1  0.99445900  0.56603000  0.93743400  1
  H  372  1  0.02676300  0.58439000  0.96055100  1
  H  379  1  0.89428700  0.90342300  0.22310800  1
  H  380  1  0.85377900  0.88739800  0.22316400  1
  H  381  1  0.86023100  0.92912600  0.21327500  1
  H  386  1  0.88852100  0.90129500  0.05792400  1
  H  387  1  0.88644500  0.85835800  0.06547700  1
  H  388  1  0.92450800  0.87927500  0.07014300  1
  H  392  1  0.94145800  0.94788800  0.13186900  1
  H  394  1  0.85465700  0.81877700  0.16244100  1
  H  397  1  0.62153200  0.11233700  0.72318200  1
  H  398  1  0.66204500  0.12834200  0.72315500  1
  H  399  1  0.65555100  0.08661900  0.71327100  1
  H  404  1  0.62720200  0.11434000  0.55796100  1
  H  405  1  0.62934200  0.15728400  0.56546500  1
  H  406  1  0.59124500  0.13642900  0.57015300  1
  H  410  1  0.57421800  0.06786200  0.63192100  1
  H  412  1  0.66105000  0.19696400  0.66254600  1
  H  415  1  0.38807500  0.65322800  0.46092900  1
  H  416  1  0.40201200  0.61240900  0.46509600  1
  H  417  1  0.35924200  0.62061600  0.46548100  1
  H  422  1  0.34246500  0.62030700  0.30615500  1
  H  423  1  0.38434300  0.60864900  0.30246200  1
  H  424  1  0.37379800  0.65099400  0.30326700  1
  H  428  1  0.32306800  0.68920500  0.37895700  1
  H  430  1  0.43918600  0.57455400  0.38776900  1
  H  433  1  0.12758900  0.36241400  0.96089900  1
  H  434  1  0.11367200  0.40323900  0.96510700  1
  H  435  1  0.15643500  0.39499900  0.96554200  1
  H  440  1  0.17331700  0.39542100  0.80619300  1
  H  441  1  0.13144000  0.40709200  0.80249100  1
  H  442  1  0.14197700  0.36474400  0.80328600  1
  H  446  1  0.19271600  0.32653400  0.87898800  1
  H  448  1  0.07654200  0.44112800  0.88778800  1
  H  451  1  0.62149200  0.90346000  0.29262800  1
  H  452  1  0.66199300  0.88741500  0.29258400  1
  H  453  1  0.65555600  0.92914300  0.30248500  1
  H  458  1  0.62714500  0.90124800  0.45781200  1
  H  459  1  0.62921600  0.85831300  0.45023400  1
  H  460  1  0.59116300  0.87924200  0.44554900  1
  H  464  1  0.57429000  0.94790300  0.38384200  1
  H  466  1  0.66107800  0.81873500  0.35326100  1
  H  469  1  0.89423800  0.11238500  0.79254100  1
  H  470  1  0.85371700  0.12837500  0.79255300  1
  H  471  1  0.86022100  0.08665300  0.80242700  1
  H  476  1  0.88848200  0.11432900  0.95775900  1
  H  477  1  0.88633900  0.15727500  0.95026700  1
  H  478  1  0.92444100  0.13642800  0.94559500  1
  H  482  1  0.94150700  0.06788500  0.88380900  1
  H  484  1  0.85463800  0.19696100  0.85325500  1
  H  487  1  0.12757100  0.65329200  0.05483000  1
  H  488  1  0.11361200  0.61248000  0.05063500  1
  H  489  1  0.15638400  0.62067300  0.05020400  1
  H  494  1  0.17325400  0.62028800  0.20954900  1
  H  495  1  0.13137500  0.60863200  0.21325300  1
  H  496  1  0.14192400  0.65097700  0.21245400  1
  H  500  1  0.19262100  0.68921000  0.13676100  1
  H  502  1  0.07651800  0.57455900  0.12795900  1
  H  505  1  0.38816400  0.36238700  0.55482400  1
  H  506  1  0.40206900  0.40321400  0.55061000  1
  H  507  1  0.35930900  0.39496500  0.55017100  1
  H  512  1  0.34241000  0.39540900  0.70951900  1
  H  513  1  0.38428600  0.40708700  0.71322500  1
  H  514  1  0.37375600  0.36473400  0.71243000  1
  H  518  1  0.32305300  0.32648900  0.63673700  1
  H  520  1  0.43915800  0.44114300  0.62794200  1
  H  523  1  0.09985200  0.12611300  0.80576100  1
  H  524  1  0.14238400  0.13108200  0.79679600  1
  H  525  1  0.12741400  0.09220900  0.80907400  1
  H  530  1  0.14182400  0.12700800  0.96589700  1
  H  531  1  0.15448400  0.16724600  0.95464600  1
  H  532  1  0.11194500  0.15847800  0.95873400  1
  H  536  1  0.06675500  0.11598700  0.92425300  1
  H  538  1  0.14691700  0.19656600  0.83838100  1
  H  541  1  0.41574100  0.89020500  0.30577700  1
  H  542  1  0.37326500  0.88482800  0.29682200  1
  H  543  1  0.38783600  0.92380200  0.30928500  1
  H  548  1  0.37387000  0.88817300  0.46593500  1
  H  549  1  0.36147600  0.84789900  0.45451400  1
  H  550  1  0.40395700  0.85693300  0.45865900  1
  H  554  1  0.44920000  0.90004100  0.42410600  1
  H  556  1  0.36812600  0.81856200  0.33909100  1
  H  559  1  0.65406700  0.37004600  0.54130200  1
  H  560  1  0.63714900  0.41019000  0.54101600  1
  H  561  1  0.67893100  0.40467800  0.55127900  1
  H  566  1  0.65057500  0.37654100  0.70643600  1
  H  567  1  0.60765000  0.37791300  0.69865600  1
  H  568  1  0.62915700  0.34013500  0.69438300  1
  H  572  1  0.69868100  0.32407800  0.63304400  1
  H  574  1  0.56821000  0.40831600  0.60075100  1
  H  577  1  0.86162600  0.64560300  0.04132700  1
  H  578  1  0.87853400  0.60545500  0.04103600  1
  H  579  1  0.83674900  0.61097200  0.05129100  1
  H  584  1  0.86525900  0.63928900  0.20644900  1
  H  585  1  0.90817400  0.63792900  0.19860400  1
  H  586  1  0.88663300  0.67568500  0.19428900  1
  H  590  1  0.81703400  0.69160400  0.13303500  1
  H  592  1  0.94755200  0.60730200  0.10087400  1
  H  595  1  0.41562700  0.12591600  0.70997400  1
  H  596  1  0.37309700  0.13104400  0.71884000  1
  H  597  1  0.38794000  0.09213000  0.70653500  1
  H  602  1  0.37410200  0.12726700  0.54973200  1
  H  603  1  0.36152800  0.16751800  0.56102500  1
  H  604  1  0.40405300  0.15863900  0.55703300  1
  H  608  1  0.44899000  0.11600900  0.59146200  1
  H  610  1  0.36868600  0.19664700  0.67721100  1
  H  613  1  0.10010800  0.89031600  0.20995900  1
  H  614  1  0.14258800  0.88486300  0.21885500  1
  H  615  1  0.12807500  0.92385600  0.20638000  1
  H  620  1  0.14172300  0.88805500  0.04973800  1
  H  621  1  0.15407400  0.84777600  0.06118100  1
  H  622  1  0.11160100  0.85686700  0.05709100  1
  H  626  1  0.06649300  0.90005100  0.09162600  1
  H  628  1  0.14763300  0.81854500  0.17658200  1
  H  631  1  0.86158400  0.37011300  0.97442800  1
  H  632  1  0.87853700  0.41024100  0.97469000  1
  H  633  1  0.83675400  0.40475700  0.96440400  1
  H  638  1  0.86517300  0.37648900  0.80928600  1
  H  639  1  0.90809500  0.37785400  0.81708400  1
  H  640  1  0.88657400  0.34008300  0.82137100  1
  H  644  1  0.81700000  0.32410000  0.88269300  1
  H  646  1  0.94752000  0.40830900  0.91504100  1
  H  649  1  0.65408200  0.64561300  0.47439400  1
  H  650  1  0.63718600  0.60545800  0.47468800  1
  H  651  1  0.67897100  0.61098900  0.46443500  1
  H  656  1  0.65046100  0.63928400  0.30927300  1
  H  657  1  0.60754600  0.63791700  0.31711500  1
  H  658  1  0.62908000  0.67567800  0.32142900  1
  H  662  1  0.69867100  0.69161900  0.38268700  1
  H  664  1  0.56817000  0.60728700  0.41484500  1
  H  689  1  0.93130800  0.00739800  0.41295400  1
  H  690  1  0.96405800  0.05432100  0.40007900  1
  H  691  1  0.04683400  0.11228200  0.33411500  1
  H  692  1  0.08117000  0.11781000  0.28695600  1
  H  693  1  0.05276200  0.02353300  0.25439800  1
  H  694  1  0.96560600  0.95944000  0.32761800  1
  H  695  1  0.05270800  0.99222200  0.35368000  1
  H  696  1  0.08128500  0.89801400  0.32105100  1
  H  697  1  0.04698900  0.90354400  0.27386200  1
  H  698  1  0.96555900  0.05627300  0.28045700  1
  H  699  1  0.96414500  0.96144400  0.20792100  1
  H  700  1  0.93134000  0.00834000  0.19507400  1
  H  703  1  0.99002100  0.08577200  0.34935400  1
  H  704  1  0.02147600  0.06724400  0.37351300  1
  H  706  1  0.02159600  0.94859600  0.23449100  1
  H  707  1  0.99015100  0.92998200  0.25859700  1
  H  736  1  0.58436500  0.00833300  0.91306700  1
  H  737  1  0.55155600  0.96144400  0.90022100  1
  H  738  1  0.46871500  0.90354400  0.83428400  1
  H  739  1  0.43441400  0.89801200  0.78709300  1
  H  740  1  0.46300000  0.99221800  0.75446100  1
  H  741  1  0.55015900  0.05626300  0.82767600  1
  H  742  1  0.46296600  0.02354300  0.85374900  1
  H  743  1  0.43456700  0.11782100  0.82118400  1
  H  744  1  0.46888500  0.11228400  0.77402300  1
  H  745  1  0.55010700  0.95943500  0.78052000  1
  H  746  1  0.55165000  0.05431500  0.70805600  1
  H  747  1  0.58440500  0.00739300  0.69518300  1
  H  750  1  0.52555400  0.92998000  0.84954300  1
  H  751  1  0.49411200  0.94859900  0.87364700  1
  H  753  1  0.49422800  0.06723700  0.73462000  1
  H  754  1  0.52568500  0.08576400  0.75877300  1
  H  783  1  0.26164000  0.68154300  0.66332900  1
  H  784  1  0.21457000  0.71475500  0.65206600  1
  H  785  1  0.15387700  0.79587600  0.58617500  1
  H  786  1  0.14710900  0.82992400  0.53893100  1
  H  787  1  0.24134700  0.80265600  0.50511800  1
  H  788  1  0.30637700  0.71445400  0.57571900  1
  H  789  1  0.27438900  0.80264900  0.60300900  1
  H  790  1  0.36860500  0.82994200  0.56915500  1
  H  791  1  0.36182400  0.79590500  0.52191000  1
  H  792  1  0.20934200  0.71445600  0.53240600  1
  H  793  1  0.30112400  0.71477500  0.45603300  1
  H  794  1  0.25405700  0.68155800  0.44477900  1
  H  797  1  0.18133400  0.73985800  0.60189800  1
  H  798  1  0.20049600  0.77170300  0.62502000  1
  H  800  1  0.31519700  0.77173200  0.48308100  1
  H  801  1  0.33437100  0.73987800  0.50618300  1
  H  830  1  0.25413400  0.33415100  0.16329300  1
  H  831  1  0.30119600  0.30093700  0.15201500  1
  H  832  1  0.36189600  0.21985500  0.08608490  1
  H  833  1  0.36867600  0.18584400  0.03882990  1
  H  834  1  0.27437500  0.21298600  0.00509988  1
  H  835  1  0.20934000  0.30119100  0.07573490  1
  H  836  1  0.24130000  0.21300200  0.10304300  1
  H  837  1  0.14706000  0.18577300  0.06920890  1
  H  838  1  0.15386900  0.21976000  0.02194390  1
  H  839  1  0.30635700  0.30120600  0.03240790  1
  H  840  1  0.21457900  0.30084100  0.95603400  1
  H  841  1  0.26163000  0.33407700  0.94477800  1
  H  844  1  0.33439600  0.27582600  0.10183600  1
  H  845  1  0.31527600  0.24397300  0.12498400  1
  H  847  1  0.20051300  0.24389500  0.98309700  1
  H  848  1  0.18134000  0.27575200  0.00619288  1
  H  877  1  0.75786300  0.33504700  0.94528600  1
  H  878  1  0.80522800  0.30326200  0.95902000  1
  H  879  1  0.86416600  0.22252300  0.02697490  1
  H  880  1  0.86882100  0.18719700  0.07360990  1
  H  881  1  0.77211000  0.21162300  0.10232700  1
  H  882  1  0.70915200  0.29988300  0.02977590  1
  H  883  1  0.74362700  0.21160600  0.00580788  1
  H  884  1  0.64691400  0.18717100  0.03451590  1
  H  885  1  0.65156000  0.22250500  0.08114790  1
  H  886  1  0.80657100  0.29987500  0.07836390  1
  H  887  1  0.71048700  0.30324200  0.14911200  1
  H  888  1  0.75785000  0.33503200  0.16285100  1
  H  891  1  0.83618200  0.27836800  0.01094990  1
  H  892  1  0.81951500  0.24651900  0.98597700  1
  H  894  1  0.69621500  0.24650100  0.12215300  1
  H  895  1  0.67953900  0.27834900  0.09718290  1
  H  924  1  0.75788000  0.68071600  0.44528500  1
  H  925  1  0.71052200  0.71251900  0.45900300  1
  H  926  1  0.65158200  0.79327900  0.52691500  1
  H  927  1  0.64689700  0.82859100  0.57355400  1
  H  928  1  0.74357300  0.80411700  0.60235300  1
  H  929  1  0.80657600  0.71586600  0.52979100  1
  H  930  1  0.77213700  0.80413500  0.50580500  1
  H  931  1  0.86882600  0.82858200  0.53458800  1
  H  932  1  0.86414300  0.79325900  0.58121800  1
  H  933  1  0.70913900  0.71587100  0.57834800  1
  H  934  1  0.80518900  0.71251900  0.64914300  1
  H  935  1  0.75782800  0.68072100  0.66285700  1
  H  938  1  0.67955800  0.73742000  0.51091200  1
  H  939  1  0.69625000  0.76926700  0.48595200  1
  H  941  1  0.81946600  0.76926200  0.62218800  1
  H  942  1  0.83616200  0.73741500  0.59723300  1
  H  971  1  0.43189600  0.50355300  0.91356800  1
  H  972  1  0.46497800  0.55085200  0.90229200  1
  H  973  1  0.54424500  0.61280100  0.83471500  1
  H  974  1  0.57877200  0.61911300  0.78764600  1
  H  975  1  0.55352600  0.52363900  0.75577400  1
  H  976  1  0.46417300  0.45952300  0.82541500  1
  H  977  1  0.55353500  0.49208800  0.85229800  1
  H  978  1  0.57875200  0.39658600  0.82049000  1
  H  979  1  0.54422500  0.40288100  0.77341600  1
  H  980  1  0.46417300  0.55616900  0.78267700  1
  H  981  1  0.46496000  0.46481700  0.70582200  1
  H  982  1  0.43188200  0.51211900  0.69454400  1
  H  985  1  0.48895300  0.58438500  0.85137500  1
  H  986  1  0.52125700  0.56602300  0.87449100  1
  H  988  1  0.52124700  0.44965100  0.73361600  1
  H  989  1  0.48894600  0.43129700  0.75674000  1
  H  1018  1  0.08380200  0.51213800  0.41360700  1
  H  1019  1  0.05072100  0.46483700  0.40232900  1
  H  1020  1  0.97146800  0.40289100  0.33471900  1
  H  1021  1  0.93694100  0.39660100  0.28764300  1
  H  1022  1  0.96217700  0.49209500  0.25582500  1
  H  1023  1  0.05153800  0.55617200  0.32545300  1
  H  1024  1  0.96220700  0.52364800  0.35236400  1
  H  1025  1  0.93695600  0.61912000  0.32049500  1
  H  1026  1  0.97147600  0.61280600  0.27342000  1
  H  1027  1  0.05154200  0.45952300  0.28271100  1
  H  1028  1  0.05073800  0.55086000  0.20583800  1
  H  1029  1  0.08381600  0.50355800  0.19456300  1
  H  1032  1  0.02675100  0.43130400  0.35140400  1
  H  1033  1  0.99444600  0.44966900  0.37452100  1
  H  1035  1  0.99445900  0.56603000  0.23363900  1
  H  1036  1  0.02676300  0.58439000  0.25675600  1
  H  1043  1  0.89428700  0.90342300  0.51931300  1
  H  1044  1  0.85377900  0.88739800  0.51936900  1
  H  1045  1  0.86023100  0.92912600  0.50948000  1
  H  1050  1  0.88852100  0.90129500  0.35412900  1
  H  1051  1  0.88644500  0.85835800  0.36168200  1
  H  1052  1  0.92450800  0.87927500  0.36634800  1
  H  1056  1  0.94145800  0.94788800  0.42807400  1
  H  1058  1  0.85465700  0.81877700  0.45864600  1
  H  1061  1  0.62153200  0.11233700  0.01938690  1
  H  1062  1  0.66204500  0.12834200  0.01935990  1
  H  1063  1  0.65555100  0.08661900  0.00947588  1
  H  1068  1  0.62720200  0.11434000  0.85416600  1
  H  1069  1  0.62934200  0.15728400  0.86167000  1
  H  1070  1  0.59124500  0.13642900  0.86635800  1
  H  1074  1  0.57421800  0.06786200  0.92812600  1
  H  1076  1  0.66105000  0.19696400  0.95875100  1
  H  1079  1  0.38807500  0.65322800  0.75713400  1
  H  1080  1  0.40201200  0.61240900  0.76130100  1
  H  1081  1  0.35924200  0.62061600  0.76168600  1
  H  1086  1  0.34246500  0.62030700  0.60236000  1
  H  1087  1  0.38434300  0.60864900  0.59866700  1
  H  1088  1  0.37379800  0.65099400  0.59947200  1
  H  1092  1  0.32306800  0.68920500  0.67516200  1
  H  1094  1  0.43918600  0.57455400  0.68397400  1
  H  1097  1  0.12758900  0.36241400  0.25710400  1
  H  1098  1  0.11367200  0.40323900  0.26131200  1
  H  1099  1  0.15643500  0.39499900  0.26174700  1
  H  1104  1  0.17331700  0.39542100  0.10239800  1
  H  1105  1  0.13144000  0.40709200  0.09869590  1
  H  1106  1  0.14197700  0.36474400  0.09949090  1
  H  1110  1  0.19271600  0.32653400  0.17519300  1
  H  1112  1  0.07654200  0.44112800  0.18399300  1
  H  1115  1  0.62149200  0.90346000  0.58883300  1
  H  1116  1  0.66199300  0.88741500  0.58878900  1
  H  1117  1  0.65555600  0.92914300  0.59869000  1
  H  1122  1  0.62714500  0.90124800  0.75401700  1
  H  1123  1  0.62921600  0.85831300  0.74643900  1
  H  1124  1  0.59116300  0.87924200  0.74175400  1
  H  1128  1  0.57429000  0.94790300  0.68004700  1
  H  1130  1  0.66107800  0.81873500  0.64946600  1
  H  1133  1  0.89423800  0.11238500  0.08874590  1
  H  1134  1  0.85371700  0.12837500  0.08875790  1
  H  1135  1  0.86022100  0.08665300  0.09863190  1
  H  1140  1  0.88848200  0.11432900  0.25396400  1
  H  1141  1  0.88633900  0.15727500  0.24647200  1
  H  1142  1  0.92444100  0.13642800  0.24180000  1
  H  1146  1  0.94150700  0.06788500  0.18001400  1
  H  1148  1  0.85463800  0.19696100  0.14946000  1
  H  1151  1  0.12757100  0.65329200  0.35103500  1
  H  1152  1  0.11361200  0.61248000  0.34684000  1
  H  1153  1  0.15638400  0.62067300  0.34640900  1
  H  1158  1  0.17325400  0.62028800  0.50575400  1
  H  1159  1  0.13137500  0.60863200  0.50945800  1
  H  1160  1  0.14192400  0.65097700  0.50865900  1
  H  1164  1  0.19262100  0.68921000  0.43296600  1
  H  1166  1  0.07651800  0.57455900  0.42416400  1
  H  1169  1  0.38816400  0.36238700  0.85102900  1
  H  1170  1  0.40206900  0.40321400  0.84681500  1
  H  1171  1  0.35930900  0.39496500  0.84637600  1
  H  1176  1  0.34241000  0.39540900  0.00572388  1
  H  1177  1  0.38428600  0.40708700  0.00942988  1
  H  1178  1  0.37375600  0.36473400  0.00863488  1
  H  1182  1  0.32305300  0.32648900  0.93294200  1
  H  1184  1  0.43915800  0.44114300  0.92414700  1
  H  1187  1  0.09985200  0.12611300  0.10196600  1
  H  1188  1  0.14238400  0.13108200  0.09300090  1
  H  1189  1  0.12741400  0.09220900  0.10527900  1
  H  1194  1  0.14182400  0.12700800  0.26210200  1
  H  1195  1  0.15448400  0.16724600  0.25085100  1
  H  1196  1  0.11194500  0.15847800  0.25493900  1
  H  1200  1  0.06675500  0.11598700  0.22045800  1
  H  1202  1  0.14691700  0.19656600  0.13458600  1
  H  1205  1  0.41574100  0.89020500  0.60198200  1
  H  1206  1  0.37326500  0.88482800  0.59302700  1
  H  1207  1  0.38783600  0.92380200  0.60549000  1
  H  1212  1  0.37387000  0.88817300  0.76214000  1
  H  1213  1  0.36147600  0.84789900  0.75071900  1
  H  1214  1  0.40395700  0.85693300  0.75486400  1
  H  1218  1  0.44920000  0.90004100  0.72031100  1
  H  1220  1  0.36812600  0.81856200  0.63529600  1
  H  1223  1  0.65406700  0.37004600  0.83750700  1
  H  1224  1  0.63714900  0.41019000  0.83722100  1
  H  1225  1  0.67893100  0.40467800  0.84748400  1
  H  1230  1  0.65057500  0.37654100  0.00264088  1
  H  1231  1  0.60765000  0.37791300  0.99486100  1
  H  1232  1  0.62915700  0.34013500  0.99058800  1
  H  1236  1  0.69868100  0.32407800  0.92924900  1
  H  1238  1  0.56821000  0.40831600  0.89695600  1
  H  1241  1  0.86162600  0.64560300  0.33753200  1
  H  1242  1  0.87853400  0.60545500  0.33724100  1
  H  1243  1  0.83674900  0.61097200  0.34749600  1
  H  1248  1  0.86525900  0.63928900  0.50265400  1
  H  1249  1  0.90817400  0.63792900  0.49480900  1
  H  1250  1  0.88663300  0.67568500  0.49049400  1
  H  1254  1  0.81703400  0.69160400  0.42924000  1
  H  1256  1  0.94755200  0.60730200  0.39707900  1
  H  1259  1  0.41562700  0.12591600  0.00617888  1
  H  1260  1  0.37309700  0.13104400  0.01504490  1
  H  1261  1  0.38794000  0.09213000  0.00273988  1
  H  1266  1  0.37410200  0.12726700  0.84593700  1
  H  1267  1  0.36152800  0.16751800  0.85723000  1
  H  1268  1  0.40405300  0.15863900  0.85323800  1
  H  1272  1  0.44899000  0.11600900  0.88766700  1
  H  1274  1  0.36868600  0.19664700  0.97341600  1
  H  1277  1  0.10010800  0.89031600  0.50616400  1
  H  1278  1  0.14258800  0.88486300  0.51506000  1
  H  1279  1  0.12807500  0.92385600  0.50258500  1
  H  1284  1  0.14172300  0.88805500  0.34594300  1
  H  1285  1  0.15407400  0.84777600  0.35738600  1
  H  1286  1  0.11160100  0.85686700  0.35329600  1
  H  1290  1  0.06649300  0.90005100  0.38783100  1
  H  1292  1  0.14763300  0.81854500  0.47278700  1
  H  1295  1  0.86158400  0.37011300  0.27063300  1
  H  1296  1  0.87853700  0.41024100  0.27089500  1
  H  1297  1  0.83675400  0.40475700  0.26060900  1
  H  1302  1  0.86517300  0.37648900  0.10549100  1
  H  1303  1  0.90809500  0.37785400  0.11328900  1
  H  1304  1  0.88657400  0.34008300  0.11757600  1
  H  1308  1  0.81700000  0.32410000  0.17889800  1
  H  1310  1  0.94752000  0.40830900  0.21124600  1
  H  1313  1  0.65408200  0.64561300  0.77059900  1
  H  1314  1  0.63718600  0.60545800  0.77089300  1
  H  1315  1  0.67897100  0.61098900  0.76064000  1
  H  1320  1  0.65046100  0.63928400  0.60547800  1
  H  1321  1  0.60754600  0.63791700  0.61332000  1
  H  1322  1  0.62908000  0.67567800  0.61763400  1
  H  1326  1  0.69867100  0.69161900  0.67889200  1
  H  1328  1  0.56817000  0.60728700  0.71105000  1
  C  1  1  0.98541000  0.00808600  0.97769900  1
  C  2  1  0.98518500  0.98086300  0.95564900  1
  C  3  1  0.02879000  0.95133600  0.98927300  1
  C  4  1  0.03050900  0.97790300  0.01207800  1
  C  5  1  0.05173000  0.97392200  0.04010800  1
  C  6  1  0.06993100  0.94449900  0.04596200  1
  C  7  1  0.06829600  0.91940800  0.02192500  1
  C  8  1  0.04817900  0.92276000  0.99404200  1
  C  9  1  0.96458700  0.98116900  0.92752100  1
  C  10  1  0.94537300  0.00886200  0.91986200  1
  C  11  1  0.94612800  0.03732400  0.93994200  1
  C  12  1  0.96516200  0.03588800  0.96936500  1
  C  13  1  0.98539500  0.00765500  0.03793100  1
  C  14  1  0.98513300  0.03489600  0.05996000  1
  C  15  1  0.02872200  0.06444800  0.02633100  1
  C  16  1  0.03050000  0.03786000  0.00355700  1
  C  17  1  0.04805000  0.09306000  0.02153200  1
  C  18  1  0.06820300  0.09640700  0.99367400  1
  C  19  1  0.06991600  0.07128900  0.96967400  1
  C  20  1  0.05174100  0.04184900  0.97554100  1
  C  21  1  0.96516400  0.97984100  0.04627400  1
  C  22  1  0.94612800  0.97840200  0.07569600  1
  C  23  1  0.94533300  0.00688000  0.09575200  1
  C  24  1  0.96451200  0.03459000  0.08807500  1
  C  37  1  0.00806400  0.00787700  0.00781800  1
  C  38  1  0.00628000  0.06428700  0.05516400  1
  C  41  1  0.00637600  0.95149900  0.96042000  1
  C  48  1  0.53030300  0.00764500  0.47778800  1
  C  49  1  0.53057000  0.03488600  0.45576100  1
  C  50  1  0.48698800  0.06444400  0.48939200  1
  C  51  1  0.48521600  0.03785800  0.51217000  1
  C  52  1  0.46398000  0.04185400  0.54019100  1
  C  53  1  0.44580800  0.07129700  0.54605600  1
  C  54  1  0.44749900  0.09640000  0.52203900  1
  C  55  1  0.46764600  0.09304900  0.49417800  1
  C  56  1  0.55117600  0.03457400  0.42763600  1
  C  57  1  0.57036000  0.00686700  0.41996200  1
  C  58  1  0.56957300  0.97839000  0.44002200  1
  C  59  1  0.55052700  0.97982600  0.46943800  1
  C  60  1  0.53030600  0.00807700  0.53801900  1
  C  61  1  0.53052500  0.98085600  0.56007400  1
  C  62  1  0.48691900  0.95133100  0.52645200  1
  C  63  1  0.48518900  0.97790300  0.50365500  1
  C  64  1  0.46754500  0.92274800  0.52167600  1
  C  65  1  0.44741500  0.91939800  0.49380300  1
  C  66  1  0.44577400  0.94449100  0.46976900  1
  C  67  1  0.46396300  0.97392200  0.47562900  1
  C  68  1  0.55054100  0.03588400  0.54636700  1
  C  69  1  0.56959200  0.03731300  0.57577800  1
  C  70  1  0.57036500  0.00884300  0.59584600  1
  C  71  1  0.55113600  0.98115900  0.58819600  1
  C  84  1  0.50764300  0.00787000  0.50790800  1
  C  85  1  0.50933200  0.95149700  0.55530500  1
  C  88  1  0.50942600  0.06428000  0.46055700  1
  C  95  1  0.25688600  0.73506700  0.22773400  1
  C  96  1  0.28330000  0.73519100  0.20472100  1
  C  97  1  0.31400700  0.77825600  0.23801600  1
  C  98  1  0.28793800  0.78007300  0.26137400  1
  C  99  1  0.29245300  0.80142900  0.28920200  1
  C  100  1  0.32205100  0.81948600  0.29453400  1
  C  101  1  0.34692800  0.81730600  0.27028000  1
  C  102  1  0.34290900  0.79724800  0.24242600  1
  C  103  1  0.28199700  0.71494700  0.17635500  1
  C  104  1  0.25422300  0.69548200  0.16964400  1
  C  105  1  0.22672900  0.69554400  0.19103100  1
  C  106  1  0.22906500  0.71448100  0.22044000  1
  C  107  1  0.25882400  0.73506000  0.28796800  1
  C  108  1  0.23240100  0.73517100  0.31097100  1
  C  109  1  0.20170600  0.77824900  0.27767700  1
  C  110  1  0.22779000  0.78008500  0.25433600  1
  C  111  1  0.17280400  0.79724100  0.27326400  1
  C  112  1  0.16878900  0.81729900  0.24541000  1
  C  113  1  0.19367800  0.81948600  0.22116700  1
  C  114  1  0.22328300  0.80144900  0.22651300  1
  C  115  1  0.28664500  0.71447400  0.29526500  1
  C  116  1  0.28897800  0.69553900  0.32467500  1
  C  117  1  0.26148000  0.69547400  0.34605600  1
  C  118  1  0.23369100  0.71491000  0.33932300  1
  C  131  1  0.25785900  0.75767300  0.25785400  1
  C  132  1  0.20281700  0.75620400  0.30680900  1
  C  135  1  0.31288400  0.75622400  0.20887700  1
  C  142  1  0.25882100  0.28057300  0.72774100  1
  C  143  1  0.23240700  0.28044200  0.70472800  1
  C  144  1  0.20170100  0.23738100  0.73803400  1
  C  145  1  0.22777100  0.23555700  0.76139000  1
  C  146  1  0.22323900  0.21421800  0.78923300  1
  C  147  1  0.19362400  0.19618900  0.79458500  1
  C  148  1  0.16874900  0.19838100  0.77032800  1
  C  149  1  0.17278700  0.21841100  0.74245700  1
  C  150  1  0.23369900  0.30069200  0.67636700  1
  C  151  1  0.26147500  0.32015100  0.66964300  1
  C  152  1  0.28897300  0.32010100  0.69102400  1
  C  153  1  0.28665000  0.30114400  0.72042200  1
  C  154  1  0.25689100  0.28057500  0.78796900  1
  C  155  1  0.28333000  0.28047900  0.81095200  1
  C  156  1  0.31402700  0.23741300  0.77764400  1
  C  157  1  0.28792600  0.23555000  0.75432300  1
  C  158  1  0.34294100  0.21844500  0.77321100  1
  C  159  1  0.34697000  0.19841900  0.74533600  1
  C  160  1  0.32207100  0.19620500  0.72110600  1
  C  161  1  0.29244300  0.21420000  0.72648700  1
  C  162  1  0.22906300  0.30114400  0.79529300  1
  C  163  1  0.22675600  0.32012100  0.82468200  1
  C  164  1  0.25427200  0.32019800  0.84603800  1
  C  165  1  0.28204600  0.30073900  0.83930900  1
  C  178  1  0.25785100  0.25795700  0.75785800  1
  C  179  1  0.31292300  0.25946600  0.80677100  1
  C  182  1  0.20282500  0.25940900  0.70889000  1
  C  189  1  0.75796900  0.28076300  0.78795700  1
  C  190  1  0.73030600  0.28164400  0.80942900  1
  C  191  1  0.70047300  0.23870300  0.77517100  1
  C  192  1  0.72782700  0.23576900  0.75344200  1
  C  193  1  0.72452700  0.21375100  0.72598100  1
  C  194  1  0.69492600  0.19612500  0.71938800  1
  C  195  1  0.66858600  0.19963600  0.74188200  1
  C  196  1  0.67139500  0.22033300  0.76942000  1
  C  197  1  0.73054000  0.30227500  0.83754200  1
  C  198  1  0.75847700  0.32094100  0.84569700  1
  C  199  1  0.78726300  0.31965200  0.82611100  1
  C  200  1  0.78596000  0.30058600  0.79671200  1
  C  201  1  0.75774700  0.28076000  0.72775800  1
  C  202  1  0.78541200  0.28165400  0.70628800  1
  C  203  1  0.81525500  0.23871800  0.74054700  1
  C  204  1  0.78789800  0.23577400  0.76227400  1
  C  205  1  0.84433500  0.22035400  0.74629800  1
  C  206  1  0.84714600  0.19965500  0.77383300  1
  C  207  1  0.82080600  0.19613900  0.79633000  1
  C  208  1  0.79119300  0.21374000  0.78972200  1
  C  209  1  0.72975000  0.30057600  0.71900100  1
  C  210  1  0.72844900  0.31965200  0.68961000  1
  C  211  1  0.75722800  0.32093300  0.67001600  1
  C  212  1  0.78517500  0.30228700  0.67817900  1
  C  225  1  0.75786000  0.25808300  0.75785800  1
  C  226  1  0.81532600  0.26143100  0.71190900  1
  C  229  1  0.70039900  0.26141600  0.80381100  1
  C  236  1  0.75773700  0.73499600  0.28796300  1
  C  237  1  0.78539000  0.73411200  0.30944800  1
  C  238  1  0.81524200  0.77705200  0.27520200  1
  C  239  1  0.78789800  0.77999200  0.25346000  1
  C  240  1  0.79122000  0.80201200  0.22599900  1
  C  241  1  0.82083100  0.81962600  0.21941400  1
  C  242  1  0.84714900  0.81612100  0.24193800  1
  C  243  1  0.84431700  0.79542900  0.26947700  1
  C  244  1  0.78515000  0.71347100  0.33755500  1
  C  245  1  0.75719900  0.69483300  0.34571600  1
  C  246  1  0.72842700  0.69609900  0.32610700  1
  C  247  1  0.72974300  0.71516500  0.29670900  1
  C  248  1  0.75798600  0.73500100  0.22776200  1
  C  249  1  0.73032800  0.73411900  0.20628000  1
  C  250  1  0.70047800  0.77706200  0.24052600  1
  C  251  1  0.72782000  0.77998900  0.26227200  1
  C  252  1  0.67140300  0.79543600  0.24625500  1
  C  253  1  0.66857200  0.81612600  0.27379700  1
  C  254  1  0.69488700  0.81962400  0.29632100  1
  C  255  1  0.72450500  0.80201700  0.28973000  1
  C  256  1  0.78598200  0.71517900  0.21900900  1
  C  257  1  0.78729100  0.69610400  0.18961600  1
  C  258  1  0.75851700  0.69483300  0.17001400  1
  C  259  1  0.73057000  0.71348600  0.17816800  1
  C  272  1  0.75786000  0.75768000  0.25786600  1
  C  273  1  0.70042100  0.75435000  0.21188500  1
  C  276  1  0.81529900  0.75434500  0.30384500  1
  C  283  1  0.48506000  0.50879400  0.47772900  1
  C  284  1  0.48514900  0.48238500  0.45471400  1
  C  285  1  0.52756600  0.45128300  0.48857300  1
  C  286  1  0.52995500  0.47773700  0.51144200  1
  C  287  1  0.55166900  0.47357000  0.53902900  1
  C  288  1  0.56934000  0.44384100  0.54480700  1
  C  289  1  0.56621600  0.41830800  0.52133800  1
  C  290  1  0.54597700  0.42208500  0.49355600  1
  C  291  1  0.46514800  0.48392500  0.42616500  1
  C  292  1  0.44578100  0.51179300  0.41942600  1
  C  293  1  0.44554700  0.53900900  0.44112100  1
  C  294  1  0.46441200  0.53658000  0.47054600  1
  C  295  1  0.48506300  0.50689300  0.53796000  1
  C  296  1  0.48515700  0.53329700  0.56098000  1
  C  297  1  0.52757300  0.56440900  0.52712100  1
  C  298  1  0.52995000  0.53797000  0.50423200  1
  C  299  1  0.54598200  0.59360700  0.52214800  1
  C  300  1  0.56622800  0.59739400  0.49437100  1
  C  301  1  0.56934800  0.57187600  0.47088400  1
  C  302  1  0.55165200  0.54215400  0.47663800  1
  C  303  1  0.46441700  0.47910400  0.54514800  1
  C  304  1  0.44555400  0.47666800  0.57457600  1
  C  305  1  0.44579300  0.50388200  0.59627300  1
  C  306  1  0.46516000  0.53175000  0.58953400  1
  C  319  1  0.50764600  0.50784800  0.50784100  1
  C  320  1  0.50567600  0.56320700  0.55639900  1
  C  323  1  0.50566900  0.45247500  0.45929800  1
  C  330  1  0.03065200  0.50689800  0.97776000  1
  C  331  1  0.03055900  0.53330200  0.95474000  1
  C  332  1  0.98814200  0.56441400  0.98859900  1
  C  333  1  0.98576300  0.53797200  0.01148300  1
  C  334  1  0.96404300  0.54214400  0.03906800  1
  C  335  1  0.94637000  0.57187800  0.04483500  1
  C  336  1  0.94949000  0.59739600  0.02135300  1
  C  337  1  0.96972600  0.59361000  0.99356800  1
  C  338  1  0.05055400  0.53175500  0.92618600  1
  C  339  1  0.06992000  0.50388400  0.91944500  1
  C  340  1  0.07016000  0.47667300  0.94114400  1
  C  341  1  0.05129900  0.47910900  0.97057500  1
  C  342  1  0.03065400  0.50879600  0.03799000  1
  C  343  1  0.03055400  0.48239200  0.06101200  1
  C  344  1  0.98813500  0.45129300  0.02715100  1
  C  345  1  0.98576000  0.47773700  0.00427100  1
  C  346  1  0.96973100  0.42209200  0.02216200  1
  C  347  1  0.94948500  0.41831800  0.99438000  1
  C  348  1  0.94636000  0.44385600  0.97091800  1
  C  349  1  0.96405300  0.47357200  0.97667900  1
  C  350  1  0.05130800  0.53657800  0.04517000  1
  C  351  1  0.07015400  0.53901700  0.07460700  1
  C  352  1  0.06991400  0.51180800  0.09630700  1
  C  353  1  0.05055000  0.48393500  0.08956500  1
  C  366  1  0.00806700  0.50785300  0.00787700  1
  C  367  1  0.01002900  0.45248800  0.05642900  1
  C  370  1  0.01003800  0.56321200  0.95932100  1
  C  377  1  0.87040300  0.90431100  0.21068000  1
  C  378  1  0.87481200  0.89668200  0.17525000  1
  C  383  1  0.90287500  0.91615200  0.12578900  1
  C  384  1  0.89022400  0.88850100  0.10845100  1
  C  385  1  0.89786600  0.88141500  0.07350400  1
  C  390  1  0.86282800  0.86847300  0.15815300  1
  C  391  1  0.92635400  0.93889300  0.11466100  1
  C  393  1  0.84895800  0.84036800  0.17270400  1
  C  395  1  0.64538900  0.11143800  0.71070400  1
  C  396  1  0.64090400  0.11907600  0.67528300  1
  C  401  1  0.61279400  0.09959900  0.62585900  1
  C  402  1  0.62551100  0.12719000  0.60847400  1
  C  403  1  0.61788400  0.13425200  0.57351900  1
  C  408  1  0.65293200  0.14723900  0.65814800  1
  C  409  1  0.58935200  0.07683100  0.61472400  1
  C  411  1  0.66688300  0.17532200  0.67263500  1
  C  413  1  0.38275400  0.62764400  0.45435900  1
  C  414  1  0.38025600  0.62469600  0.41804100  1
  C  419  1  0.35220500  0.64882500  0.37048800  1
  C  420  1  0.37039700  0.62732300  0.34968200  1
  C  421  1  0.36760800  0.62678200  0.31331300  1
  C  426  1  0.39879100  0.60343100  0.39716400  1
  C  427  1  0.32962400  0.67337300  0.36130300  1
  C  429  1  0.42395100  0.58131700  0.40585800  1
  C  431  1  0.13293700  0.38800400  0.95437500  1
  C  432  1  0.13548700  0.39100500  0.91806500  1
  C  437  1  0.16355800  0.36689400  0.87051200  1
  C  438  1  0.14536800  0.38840100  0.84971100  1
  C  439  1  0.14816900  0.38895200  0.81334200  1
  C  444  1  0.11696100  0.41228500  0.89719200  1
  C  445  1  0.18615700  0.34235400  0.86132900  1
  C  447  1  0.09174800  0.43434000  0.90588900  1
  C  449  1  0.64537100  0.90433300  0.30506600  1
  C  450  1  0.64094300  0.89669400  0.34049300  1
  C  455  1  0.61285300  0.91615000  0.38994400  1
  C  456  1  0.62548400  0.88848700  0.40727400  1
  C  457  1  0.61780700  0.88137800  0.44221200  1
  C  462  1  0.65290700  0.86847000  0.35758100  1
  C  463  1  0.58935200  0.93886900  0.40106900  1
  C  465  1  0.66674500  0.84034800  0.34304000  1
  C  467  1  0.87037600  0.11147400  0.80500900  1
  C  468  1  0.87484100  0.11910400  0.84043200  1
  C  473  1  0.90292700  0.09961300  0.88986400  1
  C  474  1  0.89019500  0.12719700  0.90725100  1
  C  475  1  0.89780500  0.13424800  0.94221300  1
  C  480  1  0.86280100  0.14726200  0.85757000  1
  C  481  1  0.92636600  0.07684500  0.90100100  1
  C  483  1  0.84886200  0.17535000  0.84306800  1
  C  485  1  0.13289200  0.62769800  0.06136500  1
  C  486  1  0.13543400  0.62470600  0.09767500  1
  C  491  1  0.16349800  0.64882000  0.14522700  1
  C  492  1  0.14530800  0.62731500  0.16603100  1
  C  493  1  0.14810900  0.62676700  0.20239900  1
  C  498  1  0.11688900  0.60344800  0.11855300  1
  C  499  1  0.18608400  0.67336500  0.15441100  1
  C  501  1  0.09169600  0.58137900  0.10984100  1
  C  503  1  0.38280800  0.38797700  0.56134300  1
  C  504  1  0.38025100  0.39098600  0.59765000  1
  C  509  1  0.35217800  0.36687700  0.64520400  1
  C  510  1  0.37036200  0.38839100  0.66600500  1
  C  511  1  0.36756100  0.38894200  0.70237100  1
  C  516  1  0.39877100  0.41227300  0.61852000  1
  C  517  1  0.32959200  0.34232700  0.65439100  1
  C  519  1  0.42400800  0.43430300  0.60981400  1
  C  521  1  0.12476100  0.11874600  0.81288500  1
  C  522  1  0.13026500  0.12658000  0.84807700  1
  C  527  1  0.11208700  0.11374400  0.90362300  1
  C  528  1  0.13364400  0.13861000  0.91570500  1
  C  529  1  0.13559900  0.14840300  0.95076600  1
  C  534  1  0.15148700  0.15182400  0.86008500  1
  C  535  1  0.08571900  0.10062700  0.92140000  1
  C  537  1  0.16298600  0.17820100  0.84129900  1
  C  539  1  0.39076600  0.89727600  0.31296300  1
  C  540  1  0.38539000  0.88921700  0.34812700  1
  C  545  1  0.40361600  0.90183600  0.40370300  1
  C  546  1  0.38214100  0.87684800  0.41569700  1
  C  547  1  0.38023800  0.86688300  0.45071800  1
  C  552  1  0.36427800  0.86384700  0.36005200  1
  C  553  1  0.42980300  0.91494500  0.42169700  1
  C  555  1  0.35274800  0.83763600  0.34107800  1
  C  557  1  0.65432700  0.39397200  0.55367900  1
  C  558  1  0.64647700  0.38947500  0.58905000  1
  C  563  1  0.66602400  0.36193000  0.63877100  1
  C  564  1  0.63806500  0.37426200  0.65585900  1
  C  565  1  0.63091700  0.36677800  0.69082900  1
  C  570  1  0.61792600  0.40100200  0.60587500  1
  C  571  1  0.68919200  0.33898700  0.65015800  1
  C  573  1  0.58986500  0.41446500  0.59088400  1
  C  575  1  0.86135700  0.62167500  0.05369800  1
  C  576  1  0.86919900  0.62615500  0.08907200  1
  C  581  1  0.84969400  0.65375900  0.13878300  1
  C  582  1  0.87768700  0.64147100  0.15585000  1
  C  583  1  0.88488800  0.64903200  0.19079200  1
  C  588  1  0.89777500  0.61466700  0.10587600  1
  C  589  1  0.82654800  0.67673200  0.15016700  1
  C  591  1  0.92591200  0.60133600  0.09089400  1
  C  593  1  0.39070900  0.11866200  0.70277300  1
  C  594  1  0.38533100  0.12657600  0.66758200  1
  C  599  1  0.40364300  0.11380400  0.61206100  1
  C  600  1  0.38218600  0.13874700  0.59996600  1
  C  601  1  0.38034900  0.14861500  0.56492000  1
  C  606  1  0.36420600  0.15189200  0.65555300  1
  C  607  1  0.43002500  0.10065200  0.59433000  1
  C  609  1  0.35265200  0.17823600  0.67435300  1
  C  611  1  0.12508800  0.89733300  0.20272900  1
  C  612  1  0.13039300  0.88923200  0.16756300  1
  C  617  1  0.11208800  0.90182100  0.11200600  1
  C  618  1  0.13350800  0.87679400  0.10000000  1
  C  619  1  0.13534400  0.86678700  0.06498600  1
  C  624  1  0.15145100  0.86382300  0.15562700  1
  C  625  1  0.08589300  0.91495000  0.09403700  1
  C  627  1  0.16300800  0.83762600  0.17460300  1
  C  629  1  0.86135200  0.39402900  0.96202900  1
  C  630  1  0.86921800  0.38949500  0.92666700  1
  C  635  1  0.84968600  0.36192500  0.87695200  1
  C  636  1  0.87765800  0.37423800  0.85986800  1
  C  637  1  0.88482100  0.36673100  0.82490600  1
  C  642  1  0.89777700  0.40100700  0.90984500  1
  C  643  1  0.82652800  0.33897000  0.86556800  1
  C  645  1  0.92583300  0.41448000  0.92482300  1
  C  647  1  0.65435900  0.62168200  0.46202500  1
  C  648  1  0.64651900  0.62616000  0.42665100  1
  C  653  1  0.66601900  0.65376400  0.37693800  1
  C  654  1  0.63803000  0.64146900  0.35987200  1
  C  655  1  0.63083000  0.64902500  0.32492700  1
  C  660  1  0.61794800  0.61466200  0.40984600  1
  C  661  1  0.68916000  0.67674400  0.36555400  1
  C  663  1  0.58981300  0.60132600  0.42482700  1
  C  665  1  0.98541000  0.00808600  0.27390400  1
  C  666  1  0.98518500  0.98086300  0.25185400  1
  C  667  1  0.02879000  0.95133600  0.28547800  1
  C  668  1  0.03050900  0.97790300  0.30828300  1
  C  669  1  0.05173000  0.97392200  0.33631300  1
  C  670  1  0.06993100  0.94449900  0.34216700  1
  C  671  1  0.06829600  0.91940800  0.31813000  1
  C  672  1  0.04817900  0.92276000  0.29024700  1
  C  673  1  0.96458700  0.98116900  0.22372600  1
  C  674  1  0.94537300  0.00886200  0.21606700  1
  C  675  1  0.94612800  0.03732400  0.23614700  1
  C  676  1  0.96516200  0.03588800  0.26557000  1
  C  677  1  0.98539500  0.00765500  0.33413600  1
  C  678  1  0.98513300  0.03489600  0.35616500  1
  C  679  1  0.02872200  0.06444800  0.32253600  1
  C  680  1  0.03050000  0.03786000  0.29976200  1
  C  681  1  0.04805000  0.09306000  0.31773700  1
  C  682  1  0.06820300  0.09640700  0.28987900  1
  C  683  1  0.06991600  0.07128900  0.26587900  1
  C  684  1  0.05174100  0.04184900  0.27174600  1
  C  685  1  0.96516400  0.97984100  0.34247900  1
  C  686  1  0.94612800  0.97840200  0.37190100  1
  C  687  1  0.94533300  0.00688000  0.39195700  1
  C  688  1  0.96451200  0.03459000  0.38428000  1
  C  701  1  0.00806400  0.00787700  0.30402300  1
  C  702  1  0.00628000  0.06428700  0.35136900  1
  C  705  1  0.00637600  0.95149900  0.25662500  1
  C  712  1  0.53030300  0.00764500  0.77399300  1
  C  713  1  0.53057000  0.03488600  0.75196600  1
  C  714  1  0.48698800  0.06444400  0.78559700  1
  C  715  1  0.48521600  0.03785800  0.80837500  1
  C  716  1  0.46398000  0.04185400  0.83639600  1
  C  717  1  0.44580800  0.07129700  0.84226100  1
  C  718  1  0.44749900  0.09640000  0.81824400  1
  C  719  1  0.46764600  0.09304900  0.79038300  1
  C  720  1  0.55117600  0.03457400  0.72384100  1
  C  721  1  0.57036000  0.00686700  0.71616700  1
  C  722  1  0.56957300  0.97839000  0.73622700  1
  C  723  1  0.55052700  0.97982600  0.76564300  1
  C  724  1  0.53030600  0.00807700  0.83422400  1
  C  725  1  0.53052500  0.98085600  0.85627900  1
  C  726  1  0.48691900  0.95133100  0.82265700  1
  C  727  1  0.48518900  0.97790300  0.79986000  1
  C  728  1  0.46754500  0.92274800  0.81788100  1
  C  729  1  0.44741500  0.91939800  0.79000800  1
  C  730  1  0.44577400  0.94449100  0.76597400  1
  C  731  1  0.46396300  0.97392200  0.77183400  1
  C  732  1  0.55054100  0.03588400  0.84257200  1
  C  733  1  0.56959200  0.03731300  0.87198300  1
  C  734  1  0.57036500  0.00884300  0.89205100  1
  C  735  1  0.55113600  0.98115900  0.88440100  1
  C  748  1  0.50764300  0.00787000  0.80411300  1
  C  749  1  0.50933200  0.95149700  0.85151000  1
  C  752  1  0.50942600  0.06428000  0.75676200  1
  C  759  1  0.25688600  0.73506700  0.52393900  1
  C  760  1  0.28330000  0.73519100  0.50092600  1
  C  761  1  0.31400700  0.77825600  0.53422100  1
  C  762  1  0.28793800  0.78007300  0.55757900  1
  C  763  1  0.29245300  0.80142900  0.58540700  1
  C  764  1  0.32205100  0.81948600  0.59073900  1
  C  765  1  0.34692800  0.81730600  0.56648500  1
  C  766  1  0.34290900  0.79724800  0.53863100  1
  C  767  1  0.28199700  0.71494700  0.47256000  1
  C  768  1  0.25422300  0.69548200  0.46584900  1
  C  769  1  0.22672900  0.69554400  0.48723600  1
  C  770  1  0.22906500  0.71448100  0.51664500  1
  C  771  1  0.25882400  0.73506000  0.58417300  1
  C  772  1  0.23240100  0.73517100  0.60717600  1
  C  773  1  0.20170600  0.77824900  0.57388200  1
  C  774  1  0.22779000  0.78008500  0.55054100  1
  C  775  1  0.17280400  0.79724100  0.56946900  1
  C  776  1  0.16878900  0.81729900  0.54161500  1
  C  777  1  0.19367800  0.81948600  0.51737200  1
  C  778  1  0.22328300  0.80144900  0.52271800  1
  C  779  1  0.28664500  0.71447400  0.59147000  1
  C  780  1  0.28897800  0.69553900  0.62088000  1
  C  781  1  0.26148000  0.69547400  0.64226100  1
  C  782  1  0.23369100  0.71491000  0.63552800  1
  C  795  1  0.25785900  0.75767300  0.55405900  1
  C  796  1  0.20281700  0.75620400  0.60301400  1
  C  799  1  0.31288400  0.75622400  0.50508200  1
  C  806  1  0.25882100  0.28057300  0.02394590  1
  C  807  1  0.23240700  0.28044200  0.00093288  1
  C  808  1  0.20170100  0.23738100  0.03423890  1
  C  809  1  0.22777100  0.23555700  0.05759490  1
  C  810  1  0.22323900  0.21421800  0.08543790  1
  C  811  1  0.19362400  0.19618900  0.09078990  1
  C  812  1  0.16874900  0.19838100  0.06653290  1
  C  813  1  0.17278700  0.21841100  0.03866190  1
  C  814  1  0.23369900  0.30069200  0.97257200  1
  C  815  1  0.26147500  0.32015100  0.96584800  1
  C  816  1  0.28897300  0.32010100  0.98722900  1
  C  817  1  0.28665000  0.30114400  0.01662690  1
  C  818  1  0.25689100  0.28057500  0.08417390  1
  C  819  1  0.28333000  0.28047900  0.10715700  1
  C  820  1  0.31402700  0.23741300  0.07384890  1
  C  821  1  0.28792600  0.23555000  0.05052790  1
  C  822  1  0.34294100  0.21844500  0.06941590  1
  C  823  1  0.34697000  0.19841900  0.04154090  1
  C  824  1  0.32207100  0.19620500  0.01731090  1
  C  825  1  0.29244300  0.21420000  0.02269190  1
  C  826  1  0.22906300  0.30114400  0.09149790  1
  C  827  1  0.22675600  0.32012100  0.12088700  1
  C  828  1  0.25427200  0.32019800  0.14224300  1
  C  829  1  0.28204600  0.30073900  0.13551400  1
  C  842  1  0.25785100  0.25795700  0.05406290  1
  C  843  1  0.31292300  0.25946600  0.10297600  1
  C  846  1  0.20282500  0.25940900  0.00509488  1
  C  853  1  0.75796900  0.28076300  0.08416190  1
  C  854  1  0.73030600  0.28164400  0.10563400  1
  C  855  1  0.70047300  0.23870300  0.07137590  1
  C  856  1  0.72782700  0.23576900  0.04964690  1
  C  857  1  0.72452700  0.21375100  0.02218590  1
  C  858  1  0.69492600  0.19612500  0.01559290  1
  C  859  1  0.66858600  0.19963600  0.03808690  1
  C  860  1  0.67139500  0.22033300  0.06562490  1
  C  861  1  0.73054000  0.30227500  0.13374700  1
  C  862  1  0.75847700  0.32094100  0.14190200  1
  C  863  1  0.78726300  0.31965200  0.12231600  1
  C  864  1  0.78596000  0.30058600  0.09291690  1
  C  865  1  0.75774700  0.28076000  0.02396290  1
  C  866  1  0.78541200  0.28165400  0.00249288  1
  C  867  1  0.81525500  0.23871800  0.03675190  1
  C  868  1  0.78789800  0.23577400  0.05847890  1
  C  869  1  0.84433500  0.22035400  0.04250290  1
  C  870  1  0.84714600  0.19965500  0.07003790  1
  C  871  1  0.82080600  0.19613900  0.09253490  1
  C  872  1  0.79119300  0.21374000  0.08592690  1
  C  873  1  0.72975000  0.30057600  0.01520590  1
  C  874  1  0.72844900  0.31965200  0.98581500  1
  C  875  1  0.75722800  0.32093300  0.96622100  1
  C  876  1  0.78517500  0.30228700  0.97438400  1
  C  889  1  0.75786000  0.25808300  0.05406290  1
  C  890  1  0.81532600  0.26143100  0.00811388  1
  C  893  1  0.70039900  0.26141600  0.10001600  1
  C  900  1  0.75773700  0.73499600  0.58416800  1
  C  901  1  0.78539000  0.73411200  0.60565300  1
  C  902  1  0.81524200  0.77705200  0.57140700  1
  C  903  1  0.78789800  0.77999200  0.54966500  1
  C  904  1  0.79122000  0.80201200  0.52220400  1
  C  905  1  0.82083100  0.81962600  0.51561900  1
  C  906  1  0.84714900  0.81612100  0.53814300  1
  C  907  1  0.84431700  0.79542900  0.56568200  1
  C  908  1  0.78515000  0.71347100  0.63376000  1
  C  909  1  0.75719900  0.69483300  0.64192100  1
  C  910  1  0.72842700  0.69609900  0.62231200  1
  C  911  1  0.72974300  0.71516500  0.59291400  1
  C  912  1  0.75798600  0.73500100  0.52396700  1
  C  913  1  0.73032800  0.73411900  0.50248500  1
  C  914  1  0.70047800  0.77706200  0.53673100  1
  C  915  1  0.72782000  0.77998900  0.55847700  1
  C  916  1  0.67140300  0.79543600  0.54246000  1
  C  917  1  0.66857200  0.81612600  0.57000200  1
  C  918  1  0.69488700  0.81962400  0.59252600  1
  C  919  1  0.72450500  0.80201700  0.58593500  1
  C  920  1  0.78598200  0.71517900  0.51521400  1
  C  921  1  0.78729100  0.69610400  0.48582100  1
  C  922  1  0.75851700  0.69483300  0.46621900  1
  C  923  1  0.73057000  0.71348600  0.47437300  1
  C  936  1  0.75786000  0.75768000  0.55407100  1
  C  937  1  0.70042100  0.75435000  0.50809000  1
  C  940  1  0.81529900  0.75434500  0.60005000  1
  C  947  1  0.48506000  0.50879400  0.77393400  1
  C  948  1  0.48514900  0.48238500  0.75091900  1
  C  949  1  0.52756600  0.45128300  0.78477800  1
  C  950  1  0.52995500  0.47773700  0.80764700  1
  C  951  1  0.55166900  0.47357000  0.83523400  1
  C  952  1  0.56934000  0.44384100  0.84101200  1
  C  953  1  0.56621600  0.41830800  0.81754300  1
  C  954  1  0.54597700  0.42208500  0.78976100  1
  C  955  1  0.46514800  0.48392500  0.72237000  1
  C  956  1  0.44578100  0.51179300  0.71563100  1
  C  957  1  0.44554700  0.53900900  0.73732600  1
  C  958  1  0.46441200  0.53658000  0.76675100  1
  C  959  1  0.48506300  0.50689300  0.83416500  1
  C  960  1  0.48515700  0.53329700  0.85718500  1
  C  961  1  0.52757300  0.56440900  0.82332600  1
  C  962  1  0.52995000  0.53797000  0.80043700  1
  C  963  1  0.54598200  0.59360700  0.81835300  1
  C  964  1  0.56622800  0.59739400  0.79057600  1
  C  965  1  0.56934800  0.57187600  0.76708900  1
  C  966  1  0.55165200  0.54215400  0.77284300  1
  C  967  1  0.46441700  0.47910400  0.84135300  1
  C  968  1  0.44555400  0.47666800  0.87078100  1
  C  969  1  0.44579300  0.50388200  0.89247800  1
  C  970  1  0.46516000  0.53175000  0.88573900  1
  C  983  1  0.50764600  0.50784800  0.80404600  1
  C  984  1  0.50567600  0.56320700  0.85260400  1
  C  987  1  0.50566900  0.45247500  0.75550300  1
  C  994  1  0.03065200  0.50689800  0.27396500  1
  C  995  1  0.03055900  0.53330200  0.25094500  1
  C  996  1  0.98814200  0.56441400  0.28480400  1
  C  997  1  0.98576300  0.53797200  0.30768800  1
  C  998  1  0.96404300  0.54214400  0.33527300  1
  C  999  1  0.94637000  0.57187800  0.34104000  1
  C  1000  1  0.94949000  0.59739600  0.31755800  1
  C  1001  1  0.96972600  0.59361000  0.28977300  1
  C  1002  1  0.05055400  0.53175500  0.22239100  1
  C  1003  1  0.06992000  0.50388400  0.21565000  1
  C  1004  1  0.07016000  0.47667300  0.23734900  1
  C  1005  1  0.05129900  0.47910900  0.26678000  1
  C  1006  1  0.03065400  0.50879600  0.33419500  1
  C  1007  1  0.03055400  0.48239200  0.35721700  1
  C  1008  1  0.98813500  0.45129300  0.32335600  1
  C  1009  1  0.98576000  0.47773700  0.30047600  1
  C  1010  1  0.96973100  0.42209200  0.31836700  1
  C  1011  1  0.94948500  0.41831800  0.29058500  1
  C  1012  1  0.94636000  0.44385600  0.26712300  1
  C  1013  1  0.96405300  0.47357200  0.27288400  1
  C  1014  1  0.05130800  0.53657800  0.34137500  1
  C  1015  1  0.07015400  0.53901700  0.37081200  1
  C  1016  1  0.06991400  0.51180800  0.39251200  1
  C  1017  1  0.05055000  0.48393500  0.38577000  1
  C  1030  1  0.00806700  0.50785300  0.30408200  1
  C  1031  1  0.01002900  0.45248800  0.35263400  1
  C  1034  1  0.01003800  0.56321200  0.25552600  1
  C  1041  1  0.87040300  0.90431100  0.50688500  1
  C  1042  1  0.87481200  0.89668200  0.47145500  1
  C  1047  1  0.90287500  0.91615200  0.42199400  1
  C  1048  1  0.89022400  0.88850100  0.40465600  1
  C  1049  1  0.89786600  0.88141500  0.36970900  1
  C  1054  1  0.86282800  0.86847300  0.45435800  1
  C  1055  1  0.92635400  0.93889300  0.41086600  1
  C  1057  1  0.84895800  0.84036800  0.46890900  1
  C  1059  1  0.64538900  0.11143800  0.00690888  1
  C  1060  1  0.64090400  0.11907600  0.97148800  1
  C  1065  1  0.61279400  0.09959900  0.92206400  1
  C  1066  1  0.62551100  0.12719000  0.90467900  1
  C  1067  1  0.61788400  0.13425200  0.86972400  1
  C  1072  1  0.65293200  0.14723900  0.95435300  1
  C  1073  1  0.58935200  0.07683100  0.91092900  1
  C  1075  1  0.66688300  0.17532200  0.96884000  1
  C  1077  1  0.38275400  0.62764400  0.75056400  1
  C  1078  1  0.38025600  0.62469600  0.71424600  1
  C  1083  1  0.35220500  0.64882500  0.66666667  1
  C  1084  1  0.37039700  0.62732300  0.64588700  1
  C  1085  1  0.36760800  0.62678200  0.60951800  1
  C  1090  1  0.39879100  0.60343100  0.69336900  1
  C  1091  1  0.32962400  0.67337300  0.65750800  1
  C  1093  1  0.42395100  0.58131700  0.70206300  1
  C  1095  1  0.13293700  0.38800400  0.25058000  1
  C  1096  1  0.13548700  0.39100500  0.21427000  1
  C  1101  1  0.16355800  0.36689400  0.16671700  1
  C  1102  1  0.14536800  0.38840100  0.14591600  1
  C  1103  1  0.14816900  0.38895200  0.10954700  1
  C  1108  1  0.11696100  0.41228500  0.19339700  1
  C  1109  1  0.18615700  0.34235400  0.15753400  1
  C  1111  1  0.09174800  0.43434000  0.20209400  1
  C  1113  1  0.64537100  0.90433300  0.60127100  1
  C  1114  1  0.64094300  0.89669400  0.63669800  1
  C  1119  1  0.61285300  0.91615000  0.68614900  1
  C  1120  1  0.62548400  0.88848700  0.70347900  1
  C  1121  1  0.61780700  0.88137800  0.73841700  1
  C  1126  1  0.65290700  0.86847000  0.65378600  1
  C  1127  1  0.58935200  0.93886900  0.69727400  1
  C  1129  1  0.66674500  0.84034800  0.63924500  1
  C  1131  1  0.87037600  0.11147400  0.10121400  1
  C  1132  1  0.87484100  0.11910400  0.13663700  1
  C  1137  1  0.90292700  0.09961300  0.18606900  1
  C  1138  1  0.89019500  0.12719700  0.20345600  1
  C  1139  1  0.89780500  0.13424800  0.23841800  1
  C  1144  1  0.86280100  0.14726200  0.15377500  1
  C  1145  1  0.92636600  0.07684500  0.19720600  1
  C  1147  1  0.84886200  0.17535000  0.13927300  1
  C  1149  1  0.13289200  0.62769800  0.35757000  1
  C  1150  1  0.13543400  0.62470600  0.39388000  1
  C  1155  1  0.16349800  0.64882000  0.44143200  1
  C  1156  1  0.14530800  0.62731500  0.46223600  1
  C  1157  1  0.14810900  0.62676700  0.49860400  1
  C  1162  1  0.11688900  0.60344800  0.41475800  1
  C  1163  1  0.18608400  0.67336500  0.45061600  1
  C  1165  1  0.09169600  0.58137900  0.40604600  1
  C  1167  1  0.38280800  0.38797700  0.85754800  1
  C  1168  1  0.38025100  0.39098600  0.89385500  1
  C  1173  1  0.35217800  0.36687700  0.94140900  1
  C  1174  1  0.37036200  0.38839100  0.96221000  1
  C  1175  1  0.36756100  0.38894200  0.99857600  1
  C  1180  1  0.39877100  0.41227300  0.91472500  1
  C  1181  1  0.32959200  0.34232700  0.95059600  1
  C  1183  1  0.42400800  0.43430300  0.90601900  1
  C  1185  1  0.12476100  0.11874600  0.10909000  1
  C  1186  1  0.13026500  0.12658000  0.14428200  1
  C  1191  1  0.11208700  0.11374400  0.19982800  1
  C  1192  1  0.13364400  0.13861000  0.21191000  1
  C  1193  1  0.13559900  0.14840300  0.24697100  1
  C  1198  1  0.15148700  0.15182400  0.15629000  1
  C  1199  1  0.08571900  0.10062700  0.21760500  1
  C  1201  1  0.16298600  0.17820100  0.13750400  1
  C  1203  1  0.39076600  0.89727600  0.60916800  1
  C  1204  1  0.38539000  0.88921700  0.64433200  1
  C  1209  1  0.40361600  0.90183600  0.69990800  1
  C  1210  1  0.38214100  0.87684800  0.71190200  1
  C  1211  1  0.38023800  0.86688300  0.74692300  1
  C  1216  1  0.36427800  0.86384700  0.65625700  1
  C  1217  1  0.42980300  0.91494500  0.71790200  1
  C  1219  1  0.35274800  0.83763600  0.63728300  1
  C  1221  1  0.65432700  0.39397200  0.84988400  1
  C  1222  1  0.64647700  0.38947500  0.88525500  1
  C  1227  1  0.66602400  0.36193000  0.93497600  1
  C  1228  1  0.63806500  0.37426200  0.95206400  1
  C  1229  1  0.63091700  0.36677800  0.98703400  1
  C  1234  1  0.61792600  0.40100200  0.90208000  1
  C  1235  1  0.68919200  0.33898700  0.94636300  1
  C  1237  1  0.58986500  0.41446500  0.88708900  1
  C  1239  1  0.86135700  0.62167500  0.34990300  1
  C  1240  1  0.86919900  0.62615500  0.38527700  1
  C  1245  1  0.84969400  0.65375900  0.43498800  1
  C  1246  1  0.87768700  0.64147100  0.45205500  1
  C  1247  1  0.88488800  0.64903200  0.48699700  1
  C  1252  1  0.89777500  0.61466700  0.40208100  1
  C  1253  1  0.82654800  0.67673200  0.44637200  1
  C  1255  1  0.92591200  0.60133600  0.38709900  1
  C  1257  1  0.39070900  0.11866200  0.99897800  1
  C  1258  1  0.38533100  0.12657600  0.96378700  1
  C  1263  1  0.40364300  0.11380400  0.90826600  1
  C  1264  1  0.38218600  0.13874700  0.89617100  1
  C  1265  1  0.38034900  0.14861500  0.86112500  1
  C  1270  1  0.36420600  0.15189200  0.95175800  1
  C  1271  1  0.43002500  0.10065200  0.89053500  1
  C  1273  1  0.35265200  0.17823600  0.97055800  1
  C  1275  1  0.12508800  0.89733300  0.49893400  1
  C  1276  1  0.13039300  0.88923200  0.46376800  1
  C  1281  1  0.11208800  0.90182100  0.40821100  1
  C  1282  1  0.13350800  0.87679400  0.39620500  1
  C  1283  1  0.13534400  0.86678700  0.36119100  1
  C  1288  1  0.15145100  0.86382300  0.45183200  1
  C  1289  1  0.08589300  0.91495000  0.39024200  1
  C  1291  1  0.16300800  0.83762600  0.47080800  1
  C  1293  1  0.86135200  0.39402900  0.25823400  1
  C  1294  1  0.86921800  0.38949500  0.22287200  1
  C  1299  1  0.84968600  0.36192500  0.17315700  1
  C  1300  1  0.87765800  0.37423800  0.15607300  1
  C  1301  1  0.88482100  0.36673100  0.12111100  1
  C  1306  1  0.89777700  0.40100700  0.20605000  1
  C  1307  1  0.82652800  0.33897000  0.16177300  1
  C  1309  1  0.92583300  0.41448000  0.22102800  1
  C  1311  1  0.65435900  0.62168200  0.75823000  1
  C  1312  1  0.64651900  0.62616000  0.72285600  1
  C  1317  1  0.66601900  0.65376400  0.67314300  1
  C  1318  1  0.63803000  0.64146900  0.65607700  1
  C  1319  1  0.63083000  0.64902500  0.62113200  1
  C  1324  1  0.61794800  0.61466200  0.70605100  1
  C  1325  1  0.68916000  0.67674400  0.66175900  1
  C  1327  1  0.58981300  0.60132600  0.72103200  1
  N  44  1  0.08834400  0.07605600  0.94236400  1
  N  45  1  0.92950600  0.06482000  0.93099200  1
  N  46  1  0.08831500  0.93973200  0.07329600  1
  N  47  1  0.92952300  0.95089700  0.08466300  1
  N  91  1  0.42738400  0.93972800  0.44243600  1
  N  92  1  0.58619500  0.95089400  0.43106200  1
  N  93  1  0.42739200  0.07607500  0.57337100  1
  N  94  1  0.58620700  0.06481200  0.58473300  1
  N  138  1  0.18884600  0.83826300  0.19410500  1
  N  139  1  0.19937100  0.67806000  0.18362700  1
  N  140  1  0.32689200  0.83826500  0.32159500  1
  N  141  1  0.31633700  0.67806000  0.33208500  1
  N  185  1  0.32692600  0.17746600  0.69401100  1
  N  186  1  0.31632500  0.33760200  0.68361400  1
  N  187  1  0.18874900  0.17745000  0.82168000  1
  N  188  1  0.19940400  0.33761700  0.83209900  1
  N  232  1  0.82399500  0.17582300  0.82244000  1
  N  233  1  0.81490900  0.33584700  0.83541400  1
  N  234  1  0.69174200  0.17580400  0.69327800  1
  N  235  1  0.70080100  0.33585000  0.68031400  1
  N  279  1  0.69166100  0.83991900  0.32245400  1
  N  280  1  0.70077900  0.67988900  0.33540300  1
  N  281  1  0.82405200  0.83992600  0.19329000  1
  N  282  1  0.81493400  0.67988700  0.18032200  1
  N  326  1  0.58938900  0.57580500  0.44465100  1
  N  327  1  0.42753700  0.56608700  0.43421900  1
  N  328  1  0.58940100  0.43994300  0.57102600  1
  N  329  1  0.42752700  0.44960000  0.58147700  1
  N  373  1  0.92630700  0.43995800  0.94469100  1
  N  374  1  0.08818200  0.44960000  0.93424000  1
  N  375  1  0.92633900  0.57580800  0.07107800  1
  N  376  1  0.08817000  0.56609000  0.08150500  1
  N  382  1  0.89431700  0.91819600  0.15824600  1
  N  389  1  0.87176800  0.86616500  0.12572700  1
  N  400  1  0.62137600  0.09756400  0.65830800  1
  N  407  1  0.64399900  0.14952500  0.62572100  1
  N  418  1  0.35849900  0.64583300  0.40342100  1
  N  425  1  0.39246200  0.60638800  0.36418400  1
  N  436  1  0.15724600  0.36987100  0.90344500  1
  N  443  1  0.12329300  0.40932800  0.86421000  1
  N  454  1  0.62143300  0.91820300  0.35749200  1
  N  461  1  0.64394000  0.86615000  0.38999800  1
  N  472  1  0.89436100  0.09758900  0.85741000  1
  N  479  1  0.87171600  0.14953500  0.89000500  1
  N  490  1  0.15719300  0.64583800  0.11229500  1
  N  497  1  0.12322800  0.60639600  0.15153400  1
  N  508  1  0.35849400  0.36985100  0.61227300  1
  N  515  1  0.39243900  0.40931600  0.65150300  1
  N  526  1  0.11130800  0.10973900  0.87029200  1
  N  533  1  0.15121800  0.15664000  0.89332700  1
  N  544  1  0.40431000  0.90602400  0.37039400  1
  N  551  1  0.36460100  0.85885900  0.39326400  1
  N  562  1  0.66818700  0.37042400  0.60630700  1
  N  569  1  0.61552900  0.39225900  0.63834400  1
  N  580  1  0.84750400  0.64522300  0.10632800  1
  N  587  1  0.90021900  0.62347400  0.13832600  1
  N  598  1  0.40431200  0.10973100  0.64538900  1
  N  605  1  0.36458400  0.15677200  0.62232400  1
  N  616  1  0.11145800  0.90604400  0.14531100  1
  N  623  1  0.15106600  0.85880400  0.12242000  1
  N  634  1  0.84751200  0.37043900  0.90941100  1
  N  641  1  0.90018900  0.39224400  0.87738400  1
  N  652  1  0.66821100  0.64523300  0.40939500  1
  N  659  1  0.61550200  0.62346700  0.37739500  1
  N  708  1  0.08834400  0.07605600  0.23856900  1
  N  709  1  0.92950600  0.06482000  0.22719700  1
  N  710  1  0.08831500  0.93973200  0.36950100  1
  N  711  1  0.92952300  0.95089700  0.38086800  1
  N  755  1  0.42738400  0.93972800  0.73864100  1
  N  756  1  0.58619500  0.95089400  0.72726700  1
  N  757  1  0.42739200  0.07607500  0.86957600  1
  N  758  1  0.58620700  0.06481200  0.88093800  1
  N  802  1  0.18884600  0.83826300  0.49031000  1
  N  803  1  0.19937100  0.67806000  0.47983200  1
  N  804  1  0.32689200  0.83826500  0.61780000  1
  N  805  1  0.31633700  0.67806000  0.62829000  1
  N  849  1  0.32692600  0.17746600  0.99021600  1
  N  850  1  0.31632500  0.33760200  0.97981900  1
  N  851  1  0.18874900  0.17745000  0.11788500  1
  N  852  1  0.19940400  0.33761700  0.12830400  1
  N  896  1  0.82399500  0.17582300  0.11864500  1
  N  897  1  0.81490900  0.33584700  0.13161900  1
  N  898  1  0.69174200  0.17580400  0.98948300  1
  N  899  1  0.70080100  0.33585000  0.97651900  1
  N  943  1  0.69166100  0.83991900  0.61865900  1
  N  944  1  0.70077900  0.67988900  0.63160800  1
  N  945  1  0.82405200  0.83992600  0.48949500  1
  N  946  1  0.81493400  0.67988700  0.47652700  1
  N  990  1  0.58938900  0.57580500  0.74085600  1
  N  991  1  0.42753700  0.56608700  0.73042400  1
  N  992  1  0.58940100  0.43994300  0.86723100  1
  N  993  1  0.42752700  0.44960000  0.87768200  1
  N  1037  1  0.92630700  0.43995800  0.24089600  1
  N  1038  1  0.08818200  0.44960000  0.23044500  1
  N  1039  1  0.92633900  0.57580800  0.36728300  1
  N  1040  1  0.08817000  0.56609000  0.37771000  1
  N  1046  1  0.89431700  0.91819600  0.45445100  1
  N  1053  1  0.87176800  0.86616500  0.42193200  1
  N  1064  1  0.62137600  0.09756400  0.95451300  1
  N  1071  1  0.64399900  0.14952500  0.92192600  1
  N  1082  1  0.35849900  0.64583300  0.69962600  1
  N  1089  1  0.39246200  0.60638800  0.66038900  1
  N  1100  1  0.15724600  0.36987100  0.19965000  1
  N  1107  1  0.12329300  0.40932800  0.16041500  1
  N  1118  1  0.62143300  0.91820300  0.65369700  1
  N  1125  1  0.64394000  0.86615000  0.68620300  1
  N  1136  1  0.89436100  0.09758900  0.15361500  1
  N  1143  1  0.87171600  0.14953500  0.18621000  1
  N  1154  1  0.15719300  0.64583800  0.40850000  1
  N  1161  1  0.12322800  0.60639600  0.44773900  1
  N  1172  1  0.35849400  0.36985100  0.90847800  1
  N  1179  1  0.39243900  0.40931600  0.94770800  1
  N  1190  1  0.11130800  0.10973900  0.16649700  1
  N  1197  1  0.15121800  0.15664000  0.18953200  1
  N  1208  1  0.40431000  0.90602400  0.66659900  1
  N  1215  1  0.36460100  0.85885900  0.68946900  1
  N  1226  1  0.66818700  0.37042400  0.90251200  1
  N  1233  1  0.61552900  0.39225900  0.93454900  1
  N  1244  1  0.84750400  0.64522300  0.40253300  1
  N  1251  1  0.90021900  0.62347400  0.43453100  1
  N  1262  1  0.40431200  0.10973100  0.94159400  1
  N  1269  1  0.36458400  0.15677200  0.91852900  1
  N  1280  1  0.11145800  0.90604400  0.44151600  1
  N  1287  1  0.15106600  0.85880400  0.41862500  1
  N  1298  1  0.84751200  0.37043900  0.20561600  1
  N  1305  1  0.90018900  0.39224400  0.17358900  1
  N  1316  1  0.66821100  0.64523300  0.70560000  1
  N  1323  1  0.61550200  0.62346700  0.67360000  1
