# generated using pymatgen
data_Mn3H57C51N8O9
_symmetry_space_group_name_H-M   'P 1'
_cell_length_a   17.39705000
_cell_length_b   29.95970000
_cell_length_c   29.96992000
_cell_angle_alpha   85.14129000
_cell_angle_beta   73.15815000
_cell_angle_gamma   73.18681000
_symmetry_Int_Tables_number   1
_chemical_formula_structural   Mn3H57C51N8O9
_chemical_formula_sum   'Mn24 H456 C408 N64 O72'
_cell_volume   14311.53310587
_cell_formula_units_Z   8
loop_
 _symmetry_equiv_pos_site_id
 _symmetry_equiv_pos_as_xyz
  1  'x, y, z'
loop_
 _atom_site_type_symbol
 _atom_site_label
 _atom_site_symmetry_multiplicity
 _atom_site_fract_x
 _atom_site_fract_y
 _atom_site_fract_z
 _atom_site_occupancy
  Mn  Mn0  1  0.44096000  0.64308000  0.91666000  1
  Mn  Mn1  1  0.71777000  0.53890000  0.88669000  1
  Mn  Mn2  1  0.21060000  0.58110000  0.00112000  1
  Mn  Mn3  1  0.00113000  0.85667000  0.58312000  1
  Mn  Mn4  1  0.14458000  0.96083000  0.61322000  1
  Mn  Mn5  1  0.79206000  0.91912000  0.49913000  1
  Mn  Mn6  1  0.85908000  0.58286000  0.64250000  1
  Mn  Mn7  1  0.10425000  0.61442000  0.53776000  1
  Mn  Mn8  1  0.71162000  0.49884000  0.58105000  1
  Mn  Mn9  1  0.08396000  0.91679000  0.85666000  1
  Mn  Mn10  1  0.25734000  0.88674000  0.96082000  1
  Mn  Mn11  1  0.79144000  0.00124000  0.91905000  1
  Mn  Mn12  1  0.55905000  0.35692000  0.08334000  1
  Mn  Mn13  1  0.28224000  0.46111000  0.11331000  1
  Mn  Mn14  1  0.78941000  0.41890000  0.99888000  1
  Mn  Mn15  1  0.99887000  0.14333000  0.41688000  1
  Mn  Mn16  1  0.85542000  0.03917000  0.38678000  1
  Mn  Mn17  1  0.20794000  0.08088000  0.50086000  1
  Mn  Mn18  1  0.14092000  0.41715000  0.35749000  1
  Mn  Mn19  1  0.89575000  0.38558000  0.46224000  1
  Mn  Mn20  1  0.28839000  0.50116000  0.41894000  1
  Mn  Mn21  1  0.91604000  0.08321000  0.14334000  1
  Mn  Mn22  1  0.74266000  0.11326000  0.03917000  1
  Mn  Mn23  1  0.20856000  0.99876000  0.08094000  1
  H  H24  1  0.67849000  0.59373000  0.75381000  1
  H  H25  1  0.63168000  0.63867000  0.68947000  1
  H  H26  1  0.48686000  0.69385000  0.70597000  1
  H  H27  1  0.39140000  0.70056000  0.78693000  1
  H  H28  1  0.54845000  0.56257000  0.03018000  1
  H  H29  1  0.65058000  0.55399000  0.99259000  1
  H  H30  1  0.53333000  0.64829000  0.03445000  1
  H  H31  1  0.63817000  0.63934000  0.00110000  1
  H  H32  1  0.58276000  0.59340000  0.09624000  1
  H  H33  1  0.61572000  0.64433000  0.08809000  1
  H  H34  1  0.72364000  0.54822000  0.04799000  1
  H  H35  1  0.75577000  0.59933000  0.03613000  1
  H  H36  1  0.71094000  0.55357000  0.13295000  1
  H  H37  1  0.81177000  0.55734000  0.09966000  1
  H  H38  1  0.73306000  0.60821000  0.12418000  1
  H  H39  1  0.38759000  0.75522000  0.91090000  1
  H  H40  1  0.44531000  0.82243000  0.90780000  1
  H  H41  1  0.67986000  0.72334000  0.91210000  1
  H  H42  1  0.61357000  0.66055000  0.91375000  1
  H  H43  1  0.56742000  0.83984000  0.94221000  1
  H  H44  1  0.58788000  0.84355000  0.88197000  1
  H  H45  1  0.93468000  0.51266000  0.98909000  1
  H  H46  1  0.97948000  0.58464000  0.99041000  1
  H  H47  1  0.91712000  0.65598000  0.94929000  1
  H  H48  1  0.81809000  0.65343000  0.90439000  1
  H  H49  1  0.67371000  0.39220000  0.94970000  1
  H  H50  1  0.59146000  0.42778000  0.92846000  1
  H  H51  1  0.65267000  0.35538000  0.88353000  1
  H  H52  1  0.67279000  0.40204000  0.84658000  1
  H  H53  1  0.79846000  0.33482000  0.89249000  1
  H  H54  1  0.81819000  0.38206000  0.85709000  1
  H  H55  1  0.77552000  0.29930000  0.82576000  1
  H  H56  1  0.79275000  0.34711000  0.79046000  1
  H  H57  1  0.92329000  0.27893000  0.83343000  1
  H  H58  1  0.92322000  0.27981000  0.77416000  1
  H  H59  1  0.94074000  0.32715000  0.79765000  1
  H  H60  1  0.23959000  0.75619000  0.98606000  1
  H  H61  1  0.10975000  0.81131000  0.03074000  1
  H  H62  1  0.99034000  0.78035000  0.07765000  1
  H  H63  1  0.00352000  0.69539000  0.07670000  1
  H  H64  1  0.45911000  0.48827000  0.92123000  1
  H  H65  1  0.48808000  0.53706000  0.89133000  1
  H  H66  1  0.46287000  0.48151000  0.84079000  1
  H  H67  1  0.35705000  0.49575000  0.87366000  1
  H  H68  1  0.44732000  0.56527000  0.81675000  1
  H  H69  1  0.34259000  0.58040000  0.84984000  1
  H  H70  1  0.41829000  0.51443000  0.76547000  1
  H  H71  1  0.31438000  0.52510000  0.80022000  1
  H  H72  1  0.28985000  0.61172000  0.78055000  1
  H  H73  1  0.31953000  0.57716000  0.72988000  1
  H  H74  1  0.39334000  0.59988000  0.74402000  1
  H  H75  1  0.70337000  0.93411000  0.98306000  1
  H  H76  1  0.67991000  0.85580000  0.98231000  1
  H  H77  1  0.75978000  0.86139000  0.83201000  1
  H  H78  1  0.78295000  0.93853000  0.83906000  1
  H  H79  1  0.73262000  0.78840000  0.87263000  1
  H  H80  1  0.71170000  0.78430000  0.93411000  1
  H  H81  1  0.02512000  0.90721000  0.74601000  1
  H  H82  1  0.95899000  0.86237000  0.81051000  1
  H  H83  1  0.88843000  0.80578000  0.79393000  1
  H  H84  1  0.88151000  0.79831000  0.71287000  1
  H  H85  1  0.14076000  0.93756000  0.46955000  1
  H  H86  1  0.19639000  0.94626000  0.50733000  1
  H  H87  1  0.21562000  0.85168000  0.46572000  1
  H  H88  1  0.27780000  0.86110000  0.49910000  1
  H  H89  1  0.27243000  0.90631000  0.40358000  1
  H  H90  1  0.34771000  0.85547000  0.41227000  1
  H  H91  1  0.31954000  0.95176000  0.45205000  1
  H  H92  1  0.39073000  0.90066000  0.46406000  1
  H  H93  1  0.39757000  0.94634000  0.36713000  1
  H  H94  1  0.46847000  0.94266000  0.40070000  1
  H  H95  1  0.46536000  0.89173000  0.37610000  1
  H  H96  1  0.05534000  0.74502000  0.58769000  1
  H  H97  1  0.17666000  0.67807000  0.59167000  1
  H  H98  1  0.31632000  0.77744000  0.58712000  1
  H  H99  1  0.18933000  0.84001000  0.58452000  1
  H  H100  1  0.34961000  0.66025000  0.55852000  1
  H  H101  1  0.31318000  0.65763000  0.61881000  1
  H  H102  1  0.43757000  0.98714000  0.51021000  1
  H  H103  1  0.55507000  0.91501000  0.50878000  1
  H  H104  1  0.52277000  0.84389000  0.55042000  1
  H  H105  1  0.37618000  0.84675000  0.59545000  1
  H  H106  1  0.01656000  0.10738000  0.55015000  1
  H  H107  1  0.94941000  0.07129000  0.57117000  1
  H  H108  1  0.89229000  0.14384000  0.61613000  1
  H  H109  1  0.92220000  0.09726000  0.65309000  1
  H  H110  1  0.02611000  0.16480000  0.60741000  1
  H  H111  1  0.05762000  0.11768000  0.64291000  1
  H  H112  1  0.90080000  0.20020000  0.67403000  1
  H  H113  1  0.93064000  0.15251000  0.70939000  1
  H  H114  1  0.03589000  0.22073000  0.66631000  1
  H  H115  1  0.97744000  0.22003000  0.72561000  1
  H  H116  1  0.06561000  0.17266000  0.70227000  1
  H  H117  1  0.98119000  0.74399000  0.51365000  1
  H  H118  1  0.95154000  0.68918000  0.46834000  1
  H  H119  1  0.84760000  0.72018000  0.42179000  1
  H  H120  1  0.77507000  0.80510000  0.42301000  1
  H  H121  1  0.86837000  0.01177000  0.57937000  1
  H  H122  1  0.91634000  0.96280000  0.60893000  1
  H  H123  1  0.78516000  0.01825000  0.65981000  1
  H  H124  1  0.72646000  0.00408000  0.62674000  1
  H  H125  1  0.82941000  0.93435000  0.68345000  1
  H  H126  1  0.77251000  0.91938000  0.65039000  1
  H  H127  1  0.69845000  0.98518000  0.73483000  1
  H  H128  1  0.63977000  0.97447000  0.70017000  1
  H  H129  1  0.68209000  0.88789000  0.71974000  1
  H  H130  1  0.62695000  0.92237000  0.77051000  1
  H  H131  1  0.73755000  0.89969000  0.75618000  1
  H  H132  1  0.61949000  0.56565000  0.51722000  1
  H  H133  1  0.51789000  0.64411000  0.51784000  1
  H  H134  1  0.45324000  0.63869000  0.66814000  1
  H  H135  1  0.55991000  0.56148000  0.66124000  1
  H  H136  1  0.39501000  0.71207000  0.62740000  1
  H  H137  1  0.43123000  0.71589000  0.56588000  1
  H  H138  1  0.93268000  0.74601000  0.59346000  1
  H  H139  1  0.82119000  0.81019000  0.63838000  1
  H  H140  1  0.69336000  0.79317000  0.69363000  1
  H  H141  1  0.67936000  0.71210000  0.70040000  1
  H  H142  1  0.08075000  0.47020000  0.56163000  1
  H  H143  1  0.14460000  0.50809000  0.55400000  1
  H  H144  1  0.06832000  0.46564000  0.64778000  1
  H  H145  1  0.14011000  0.49884000  0.63918000  1
  H  H146  1  0.17933000  0.40377000  0.59318000  1
  H  H147  1  0.20396000  0.41187000  0.64415000  1
  H  H148  1  0.27245000  0.45196000  0.54804000  1
  H  H149  1  0.29246000  0.46379000  0.59921000  1
  H  H150  1  0.34415000  0.36693000  0.55366000  1
  H  H151  1  0.41186000  0.40019000  0.55742000  1
  H  H152  1  0.35735000  0.37571000  0.60830000  1
  H  H153  1  0.79934000  0.58863000  0.75455000  1
  H  H154  1  0.85334000  0.59202000  0.82193000  1
  H  H155  1  0.09263000  0.58773000  0.72320000  1
  H  H156  1  0.02850000  0.58584000  0.66025000  1
  H  H157  1  0.00911000  0.55788000  0.83975000  1
  H  H158  1  0.96962000  0.61812000  0.84326000  1
  H  H159  1  0.42251000  0.51053000  0.51327000  1
  H  H160  1  0.46718000  0.50947000  0.58563000  1
  H  H161  1  0.36374000  0.55195000  0.65609000  1
  H  H162  1  0.22123000  0.59791000  0.65234000  1
  H  H163  1  0.12496000  0.55008000  0.39144000  1
  H  H164  1  0.02112000  0.57045000  0.42670000  1
  H  H165  1  0.03709000  0.61565000  0.35433000  1
  H  H166  1  0.01907000  0.65272000  0.40103000  1
  H  H167  1  0.19108000  0.60759000  0.33407000  1
  H  H168  1  0.17518000  0.64262000  0.38157000  1
  H  H169  1  0.10138000  0.67457000  0.29884000  1
  H  H170  1  0.08317000  0.70949000  0.34691000  1
  H  H171  1  0.25677000  0.66703000  0.27879000  1
  H  H172  1  0.19750000  0.72634000  0.27995000  1
  H  H173  1  0.23821000  0.70242000  0.32726000  1
  H  H174  1  0.72630000  0.51417000  0.75611000  1
  H  H175  1  0.64097000  0.46947000  0.81127000  1
  H  H176  1  0.56820000  0.42258000  0.78062000  1
  H  H177  1  0.58075000  0.42328000  0.69567000  1
  H  H178  1  0.87988000  0.57920000  0.48783000  1
  H  H179  1  0.87956000  0.60892000  0.53648000  1
  H  H180  1  0.80324000  0.65973000  0.48127000  1
  H  H181  1  0.73033000  0.62667000  0.49560000  1
  H  H182  1  0.76415000  0.68336000  0.56513000  1
  H  H183  1  0.69244000  0.65021000  0.58022000  1
  H  H184  1  0.68357000  0.73481000  0.51450000  1
  H  H185  1  0.61434000  0.70004000  0.52512000  1
  H  H186  1  0.57063000  0.71926000  0.61177000  1
  H  H187  1  0.54935000  0.77014000  0.57737000  1
  H  H188  1  0.63742000  0.75597000  0.59995000  1
  H  H189  1  0.18629000  0.51689000  0.93415000  1
  H  H190  1  0.16194000  0.51767000  0.85589000  1
  H  H191  1  0.09171000  0.66801000  0.86137000  1
  H  H192  1  0.12226000  0.66091000  0.93839000  1
  H  H193  1  0.10531000  0.62743000  0.78841000  1
  H  H194  1  0.14560000  0.56595000  0.78440000  1
  H  H195  1  0.27145000  0.75397000  0.90673000  1
  H  H196  1  0.26968000  0.68949000  0.86196000  1
  H  H197  1  0.18059000  0.70576000  0.80650000  1
  H  H198  1  0.09322000  0.78681000  0.79865000  1
  H  H199  1  0.11065000  0.03056000  0.93727000  1
  H  H200  1  0.20381000  0.99256000  0.94606000  1
  H  H201  1  0.18151000  0.03453000  0.85155000  1
  H  H202  1  0.27702000  0.00094000  0.86081000  1
  H  H203  1  0.17651000  0.09637000  0.90614000  1
  H  H204  1  0.26044000  0.08788000  0.85535000  1
  H  H205  1  0.27193000  0.04787000  0.95162000  1
  H  H206  1  0.35522000  0.03616000  0.90061000  1
  H  H207  1  0.26431000  0.13293000  0.94630000  1
  H  H208  1  0.36881000  0.09972000  0.94280000  1
  H  H209  1  0.34125000  0.12429000  0.89181000  1
  H  H210  1  0.14267000  0.91100000  0.74513000  1
  H  H211  1  0.26757000  0.90735000  0.67790000  1
  H  H212  1  0.40329000  0.91220000  0.77683000  1
  H  H213  1  0.27398000  0.91467000  0.83964000  1
  H  H214  1  0.40685000  0.94198000  0.66036000  1
  H  H215  1  0.43092000  0.88172000  0.65677000  1
  H  H216  1  0.44784000  0.98921000  0.98738000  1
  H  H217  1  0.56409000  0.99103000  0.91541000  1
  H  H218  1  0.57357000  0.94963000  0.84414000  1
  H  H219  1  0.47204000  0.90468000  0.84666000  1
  H  H220  1  0.06619000  0.94986000  0.10710000  1
  H  H221  1  0.02040000  0.92823000  0.07131000  1
  H  H222  1  0.00803000  0.88398000  0.14426000  1
  H  H223  1  0.07430000  0.84670000  0.09793000  1
  H  H224  1  0.13307000  0.89244000  0.16514000  1
  H  H225  1  0.20005000  0.85707000  0.11800000  1
  H  H226  1  0.07474000  0.82558000  0.20064000  1
  H  H227  1  0.13976000  0.79037000  0.15290000  1
  H  H228  1  0.20213000  0.83357000  0.22093000  1
  H  H229  1  0.20332000  0.77419000  0.22017000  1
  H  H230  1  0.26765000  0.79788000  0.17274000  1
  H  H231  1  0.99521000  0.98587000  0.74368000  1
  H  H232  1  0.92011000  0.03079000  0.68875000  1
  H  H233  1  0.76998000  0.07761000  0.71982000  1
  H  H234  1  0.69888000  0.07660000  0.80480000  1
  H  H235  1  0.94699000  0.92127000  0.01204000  1
  H  H236  1  0.02489000  0.89167000  0.96323000  1
  H  H237  1  0.94505000  0.84053000  0.01871000  1
  H  H238  1  0.85317000  0.87329000  0.00468000  1
  H  H239  1  0.01274000  0.81686000  0.93491000  1
  H  H240  1  0.92290000  0.84996000  0.91992000  1
  H  H241  1  0.93302000  0.76535000  0.98568000  1
  H  H242  1  0.83985000  0.80009000  0.97494000  1
  H  H243  1  0.90177000  0.78071000  0.88839000  1
  H  H244  1  0.89716000  0.72985000  0.92278000  1
  H  H245  1  0.99353000  0.74421000  0.90019000  1
  H  H246  1  0.63685000  0.98319000  0.56597000  1
  H  H247  1  0.53462000  0.98229000  0.64398000  1
  H  H248  1  0.62069000  0.83196000  0.63860000  1
  H  H249  1  0.72147000  0.83920000  0.56178000  1
  H  H250  1  0.52117000  0.87237000  0.71164000  1
  H  H251  1  0.49609000  0.93388000  0.71574000  1
  H  H252  1  0.32151000  0.40627000  0.24619000  1
  H  H253  1  0.36833000  0.36134000  0.31053000  1
  H  H254  1  0.51315000  0.30616000  0.29403000  1
  H  H255  1  0.60860000  0.29944000  0.21307000  1
  H  H256  1  0.45156000  0.43744000  0.96981000  1
  H  H257  1  0.34942000  0.44601000  0.00741000  1
  H  H258  1  0.46667000  0.35171000  0.96555000  1
  H  H259  1  0.36183000  0.36067000  0.99890000  1
  H  H260  1  0.41725000  0.40661000  0.90375000  1
  H  H261  1  0.38428000  0.35567000  0.91191000  1
  H  H262  1  0.27636000  0.45179000  0.95201000  1
  H  H263  1  0.24423000  0.40068000  0.96387000  1
  H  H264  1  0.28906000  0.44643000  0.86705000  1
  H  H265  1  0.18824000  0.44266000  0.90034000  1
  H  H266  1  0.26694000  0.39179000  0.87582000  1
  H  H267  1  0.61241000  0.24479000  0.08910000  1
  H  H268  1  0.55469000  0.17757000  0.09220000  1
  H  H269  1  0.32014000  0.27667000  0.08790000  1
  H  H270  1  0.38643000  0.33945000  0.08624000  1
  H  H271  1  0.43258000  0.16016000  0.05779000  1
  H  H272  1  0.41212000  0.15646000  0.11802000  1
  H  H273  1  0.06532000  0.48735000  0.01091000  1
  H  H274  1  0.02052000  0.41536000  0.00959000  1
  H  H275  1  0.08288000  0.34402000  0.05071000  1
  H  H276  1  0.18191000  0.34657000  0.09561000  1
  H  H277  1  0.32630000  0.60780000  0.05030000  1
  H  H278  1  0.40854000  0.57222000  0.07154000  1
  H  H279  1  0.34733000  0.64463000  0.11647000  1
  H  H280  1  0.32722000  0.59796000  0.15342000  1
  H  H281  1  0.20154000  0.66518000  0.10751000  1
  H  H282  1  0.18181000  0.61795000  0.14291000  1
  H  H283  1  0.22448000  0.70070000  0.17424000  1
  H  H284  1  0.20725000  0.65289000  0.20954000  1
  H  H285  1  0.07671000  0.72107000  0.16657000  1
  H  H286  1  0.07679000  0.72019000  0.22584000  1
  H  H287  1  0.05926000  0.67285000  0.20235000  1
  H  H288  1  0.76041000  0.24381000  0.01394000  1
  H  H289  1  0.89025000  0.18870000  0.96926000  1
  H  H290  1  0.00966000  0.21966000  0.92235000  1
  H  H291  1  0.99649000  0.30461000  0.92330000  1
  H  H292  1  0.54090000  0.51173000  0.07876000  1
  H  H293  1  0.51192000  0.46294000  0.10867000  1
  H  H294  1  0.53713000  0.51850000  0.15921000  1
  H  H295  1  0.64295000  0.50426000  0.12634000  1
  H  H296  1  0.55268000  0.43474000  0.18325000  1
  H  H297  1  0.65742000  0.41960000  0.15016000  1
  H  H298  1  0.58172000  0.48557000  0.23453000  1
  H  H299  1  0.68563000  0.47490000  0.19978000  1
  H  H300  1  0.71015000  0.38829000  0.21945000  1
  H  H301  1  0.68048000  0.42284000  0.27012000  1
  H  H302  1  0.60667000  0.40012000  0.25598000  1
  H  H303  1  0.29663000  0.06590000  0.01694000  1
  H  H304  1  0.32009000  0.14420000  0.01769000  1
  H  H305  1  0.24023000  0.13861000  0.16798000  1
  H  H306  1  0.21705000  0.06147000  0.16094000  1
  H  H307  1  0.26738000  0.21161000  0.12736000  1
  H  H308  1  0.28831000  0.21570000  0.06588000  1
  H  H309  1  0.97488000  0.09279000  0.25398000  1
  H  H310  1  0.04102000  0.13763000  0.18949000  1
  H  H311  1  0.11157000  0.19422000  0.20607000  1
  H  H312  1  0.11849000  0.20170000  0.28713000  1
  H  H313  1  0.85925000  0.06244000  0.53045000  1
  H  H314  1  0.80361000  0.05375000  0.49266000  1
  H  H315  1  0.78438000  0.14832000  0.53428000  1
  H  H316  1  0.72220000  0.13890000  0.50089000  1
  H  H317  1  0.72758000  0.09370000  0.59642000  1
  H  H318  1  0.65229000  0.14454000  0.58773000  1
  H  H319  1  0.68047000  0.04824000  0.54794000  1
  H  H320  1  0.60928000  0.09934000  0.53594000  1
  H  H321  1  0.60243000  0.05367000  0.63287000  1
  H  H322  1  0.53153000  0.05735000  0.59930000  1
  H  H323  1  0.53465000  0.10827000  0.62390000  1
  H  H324  1  0.94467000  0.25499000  0.41231000  1
  H  H325  1  0.82334000  0.32193000  0.40833000  1
  H  H326  1  0.68368000  0.22256000  0.41288000  1
  H  H327  1  0.81067000  0.15999000  0.41548000  1
  H  H328  1  0.65039000  0.33975000  0.44148000  1
  H  H329  1  0.68682000  0.34237000  0.38118000  1
  H  H330  1  0.56244000  0.01286000  0.48979000  1
  H  H331  1  0.44494000  0.08499000  0.49121000  1
  H  H332  1  0.47723000  0.15612000  0.44958000  1
  H  H333  1  0.62383000  0.15325000  0.40455000  1
  H  H334  1  0.98345000  0.89262000  0.44985000  1
  H  H335  1  0.05059000  0.92871000  0.42883000  1
  H  H336  1  0.10771000  0.85616000  0.38387000  1
  H  H337  1  0.07780000  0.90274000  0.34691000  1
  H  H338  1  0.97389000  0.83520000  0.39259000  1
  H  H339  1  0.94239000  0.88232000  0.35708000  1
  H  H340  1  0.09920000  0.79980000  0.32597000  1
  H  H341  1  0.06936000  0.84749000  0.29061000  1
  H  H342  1  0.96411000  0.77927000  0.33369000  1
  H  H343  1  0.02256000  0.77997000  0.27439000  1
  H  H344  1  0.93439000  0.82735000  0.29773000  1
  H  H345  1  0.01881000  0.25601000  0.48635000  1
  H  H346  1  0.04847000  0.31083000  0.53166000  1
  H  H347  1  0.15240000  0.27982000  0.57821000  1
  H  H348  1  0.22493000  0.19490000  0.57699000  1
  H  H349  1  0.13163000  0.98823000  0.42063000  1
  H  H350  1  0.08366000  0.03720000  0.39107000  1
  H  H351  1  0.21484000  0.98176000  0.34019000  1
  H  H352  1  0.27354000  0.99592000  0.37325000  1
  H  H353  1  0.17059000  0.06565000  0.31655000  1
  H  H354  1  0.22749000  0.08062000  0.34961000  1
  H  H355  1  0.30156000  0.01482000  0.26517000  1
  H  H356  1  0.36023000  0.02553000  0.29983000  1
  H  H357  1  0.31791000  0.11211000  0.28026000  1
  H  H358  1  0.37305000  0.07764000  0.22949000  1
  H  H359  1  0.26245000  0.10031000  0.24382000  1
  H  H360  1  0.38051000  0.43435000  0.48277000  1
  H  H361  1  0.48211000  0.35590000  0.48216000  1
  H  H362  1  0.54677000  0.36131000  0.33186000  1
  H  H363  1  0.44009000  0.43852000  0.33876000  1
  H  H364  1  0.60500000  0.28793000  0.37260000  1
  H  H365  1  0.56878000  0.28411000  0.43411000  1
  H  H366  1  0.06732000  0.25400000  0.40654000  1
  H  H367  1  0.17881000  0.18982000  0.36162000  1
  H  H368  1  0.30665000  0.20683000  0.30637000  1
  H  H369  1  0.32065000  0.28791000  0.29960000  1
  H  H370  1  0.91925000  0.52981000  0.43837000  1
  H  H371  1  0.85541000  0.49191000  0.44600000  1
  H  H372  1  0.93169000  0.53436000  0.35222000  1
  H  H373  1  0.85989000  0.50116000  0.36082000  1
  H  H374  1  0.82067000  0.59623000  0.40682000  1
  H  H375  1  0.79604000  0.58813000  0.35585000  1
  H  H376  1  0.72756000  0.54805000  0.45196000  1
  H  H377  1  0.70755000  0.53622000  0.40078000  1
  H  H378  1  0.65585000  0.63307000  0.44634000  1
  H  H379  1  0.58814000  0.59981000  0.44258000  1
  H  H380  1  0.64265000  0.62429000  0.39170000  1
  H  H381  1  0.20066000  0.41137000  0.24544000  1
  H  H382  1  0.14667000  0.40798000  0.17806000  1
  H  H383  1  0.90737000  0.41228000  0.27679000  1
  H  H384  1  0.97150000  0.41417000  0.33975000  1
  H  H385  1  0.99090000  0.44212000  0.16025000  1
  H  H386  1  0.03039000  0.38188000  0.15674000  1
  H  H387  1  0.57749000  0.48947000  0.48673000  1
  H  H388  1  0.53283000  0.49053000  0.41436000  1
  H  H389  1  0.63627000  0.44805000  0.34391000  1
  H  H390  1  0.77878000  0.40210000  0.34765000  1
  H  H391  1  0.87505000  0.44993000  0.60856000  1
  H  H392  1  0.97888000  0.42955000  0.57330000  1
  H  H393  1  0.96291000  0.38435000  0.64566000  1
  H  H394  1  0.98093000  0.34728000  0.59897000  1
  H  H395  1  0.80892000  0.39241000  0.66593000  1
  H  H396  1  0.82482000  0.35738000  0.61843000  1
  H  H397  1  0.89863000  0.32543000  0.70116000  1
  H  H398  1  0.91683000  0.29051000  0.65309000  1
  H  H399  1  0.74323000  0.33298000  0.72121000  1
  H  H400  1  0.80250000  0.27367000  0.72005000  1
  H  H401  1  0.76179000  0.29758000  0.67273000  1
  H  H402  1  0.27370000  0.48584000  0.24389000  1
  H  H403  1  0.35904000  0.53053000  0.18873000  1
  H  H404  1  0.43180000  0.57742000  0.21938000  1
  H  H405  1  0.41926000  0.57672000  0.30433000  1
  H  H406  1  0.12012000  0.42080000  0.51217000  1
  H  H407  1  0.12044000  0.39108000  0.46352000  1
  H  H408  1  0.19677000  0.34027000  0.51873000  1
  H  H409  1  0.26967000  0.37333000  0.50440000  1
  H  H410  1  0.23585000  0.31665000  0.43487000  1
  H  H411  1  0.30757000  0.34979000  0.41978000  1
  H  H412  1  0.31643000  0.26520000  0.48550000  1
  H  H413  1  0.38566000  0.29997000  0.47488000  1
  H  H414  1  0.42937000  0.28075000  0.38823000  1
  H  H415  1  0.45065000  0.22986000  0.42263000  1
  H  H416  1  0.36259000  0.24403000  0.40005000  1
  H  H417  1  0.81372000  0.48311000  0.06585000  1
  H  H418  1  0.83806000  0.48234000  0.14411000  1
  H  H419  1  0.90829000  0.33200000  0.13863000  1
  H  H420  1  0.87774000  0.33909000  0.06161000  1
  H  H421  1  0.89469000  0.37258000  0.21159000  1
  H  H422  1  0.85440000  0.43405000  0.21560000  1
  H  H423  1  0.72856000  0.24603000  0.09327000  1
  H  H424  1  0.73032000  0.31051000  0.13804000  1
  H  H425  1  0.81942000  0.29424000  0.19350000  1
  H  H426  1  0.90679000  0.21319000  0.20135000  1
  H  H427  1  0.88936000  0.96944000  0.06273000  1
  H  H428  1  0.79620000  0.00744000  0.05394000  1
  H  H429  1  0.81849000  0.96547000  0.14845000  1
  H  H430  1  0.72298000  0.99906000  0.13919000  1
  H  H431  1  0.82349000  0.90363000  0.09386000  1
  H  H432  1  0.73957000  0.91212000  0.14465000  1
  H  H433  1  0.72807000  0.95214000  0.04838000  1
  H  H434  1  0.64478000  0.96384000  0.09939000  1
  H  H435  1  0.73570000  0.86707000  0.05370000  1
  H  H436  1  0.63119000  0.90029000  0.05720000  1
  H  H437  1  0.65875000  0.87572000  0.10819000  1
  H  H438  1  0.85734000  0.08900000  0.25487000  1
  H  H439  1  0.73244000  0.09265000  0.32209000  1
  H  H440  1  0.59671000  0.08780000  0.22317000  1
  H  H441  1  0.72603000  0.08533000  0.16036000  1
  H  H442  1  0.59315000  0.05802000  0.33964000  1
  H  H443  1  0.56908000  0.11829000  0.34323000  1
  H  H444  1  0.55216000  0.01079000  0.01262000  1
  H  H445  1  0.43592000  0.00897000  0.08459000  1
  H  H446  1  0.42643000  0.05037000  0.15586000  1
  H  H447  1  0.52797000  0.09532000  0.15334000  1
  H  H448  1  0.93382000  0.05015000  0.89290000  1
  H  H449  1  0.97960000  0.07177000  0.92868000  1
  H  H450  1  0.99197000  0.11602000  0.85574000  1
  H  H451  1  0.92570000  0.15330000  0.90206000  1
  H  H452  1  0.86693000  0.10757000  0.83486000  1
  H  H453  1  0.79995000  0.14294000  0.88200000  1
  H  H454  1  0.92527000  0.17442000  0.79936000  1
  H  H455  1  0.86025000  0.20964000  0.84710000  1
  H  H456  1  0.79787000  0.16643000  0.77906000  1
  H  H457  1  0.79669000  0.22581000  0.77983000  1
  H  H458  1  0.73235000  0.20212000  0.82726000  1
  H  H459  1  0.00480000  0.01413000  0.25632000  1
  H  H460  1  0.07989000  0.96922000  0.31125000  1
  H  H461  1  0.23002000  0.92239000  0.28018000  1
  H  H462  1  0.30112000  0.92340000  0.19520000  1
  H  H463  1  0.05301000  0.07874000  0.98796000  1
  H  H464  1  0.97511000  0.10833000  0.03676000  1
  H  H465  1  0.05496000  0.15947000  0.98129000  1
  H  H466  1  0.14683000  0.12671000  0.99532000  1
  H  H467  1  0.98726000  0.18314000  0.06508000  1
  H  H468  1  0.07710000  0.15005000  0.08008000  1
  H  H469  1  0.06699000  0.23466000  0.01431000  1
  H  H470  1  0.16015000  0.19991000  0.02506000  1
  H  H471  1  0.09823000  0.21930000  0.11161000  1
  H  H472  1  0.10284000  0.27015000  0.07721000  1
  H  H473  1  0.00647000  0.25580000  0.09980000  1
  H  H474  1  0.36315000  0.01681000  0.43403000  1
  H  H475  1  0.46538000  0.01771000  0.35602000  1
  H  H476  1  0.37931000  0.16804000  0.36139000  1
  H  H477  1  0.27853000  0.16080000  0.43822000  1
  H  H478  1  0.47883000  0.12763000  0.28836000  1
  H  H479  1  0.50391000  0.06613000  0.28426000  1
  C  C480  1  0.48058000  0.65147000  0.81632000  1
  C  C481  1  0.56414000  0.62170000  0.80726000  1
  C  C482  1  0.61587000  0.61732000  0.76091000  1
  C  C483  1  0.58900000  0.64228000  0.72443000  1
  C  C484  1  0.50798000  0.67292000  0.73395000  1
  C  C485  1  0.45444000  0.67711000  0.77888000  1
  C  C486  1  0.59911000  0.59697000  0.84436000  1
  C  C487  1  0.55200000  0.59446000  0.96437000  1
  C  C488  1  0.58966000  0.57980000  0.00416000  1
  C  C489  1  0.59525000  0.62279000  0.02675000  1
  C  C490  1  0.62408000  0.61137000  0.07121000  1
  C  C491  1  0.71545000  0.58218000  0.06280000  1
  C  C492  1  0.74443000  0.57485000  0.10728000  1
  C  C493  1  0.45218000  0.74960000  0.91103000  1
  C  C494  1  0.48477000  0.78706000  0.90949000  1
  C  C495  1  0.56791000  0.77882000  0.91038000  1
  C  C496  1  0.61478000  0.73242000  0.91182000  1
  C  C497  1  0.57763000  0.69683000  0.91290000  1
  C  C498  1  0.60234000  0.81943000  0.91010000  1
  C  C499  1  0.82275000  0.58154000  0.91978000  1
  C  C500  1  0.85481000  0.54181000  0.94538000  1
  C  C501  1  0.91128000  0.54386000  0.97025000  1
  C  C502  1  0.93521000  0.58404000  0.97136000  1
  C  C503  1  0.90048000  0.62388000  0.94792000  1
  C  C504  1  0.84516000  0.62274000  0.92277000  1
  C  C505  1  0.82735000  0.49943000  0.94996000  1
  C  C506  1  0.69813000  0.45239000  0.91261000  1
  C  C507  1  0.65975000  0.41262000  0.91945000  1
  C  C508  1  0.68871000  0.38116000  0.87626000  1
  C  C509  1  0.78248000  0.35619000  0.86301000  1
  C  C510  1  0.81033000  0.32564000  0.81950000  1
  C  C511  1  0.90447000  0.30153000  0.80537000  1
  C  C512  1  0.12777000  0.67759000  0.03036000  1
  C  C513  1  0.19549000  0.69529000  0.00432000  1
  C  C514  1  0.18710000  0.74348000  0.00583000  1
  C  C515  1  0.11423000  0.77430000  0.03132000  1
  C  C516  1  0.04778000  0.75677000  0.05706000  1
  C  C517  1  0.05434000  0.70941000  0.05674000  1
  C  C518  1  0.27323000  0.66583000  0.97483000  1
  C  C519  1  0.36424000  0.55187000  0.93739000  1
  C  C520  1  0.43681000  0.52075000  0.90310000  1
  C  C521  1  0.41155000  0.50959000  0.86092000  1
  C  C522  1  0.39226000  0.55185000  0.82937000  1
  C  C523  1  0.36652000  0.54092000  0.78762000  1
  C  C524  1  0.34093000  0.58465000  0.75880000  1
  C  C525  1  0.71555000  0.91642000  0.95049000  1
  C  C526  1  0.70280000  0.87292000  0.94969000  1
  C  C527  1  0.71852000  0.85178000  0.90685000  1
  C  C528  1  0.74723000  0.87590000  0.86631000  1
  C  C529  1  0.75965000  0.91916000  0.86998000  1
  C  C530  1  0.69648000  0.80720000  0.90539000  1
  C  C531  1  0.95045000  0.84759000  0.68343000  1
  C  C532  1  0.99399000  0.87805000  0.69252000  1
  C  C533  1  0.99403000  0.88313000  0.73892000  1
  C  C534  1  0.95578000  0.85819000  0.77547000  1
  C  C535  1  0.91607000  0.82689000  0.76595000  1
  C  C536  1  0.91242000  0.82210000  0.72096000  1
  C  C537  1  0.04118000  0.90284000  0.65543000  1
  C  C538  1  0.11023000  0.90576000  0.53538000  1
  C  C539  1  0.17302000  0.92039000  0.49563000  1
  C  C540  1  0.24419000  0.87737000  0.47330000  1
  C  C541  1  0.30631000  0.88856000  0.42884000  1
  C  C542  1  0.36009000  0.91779000  0.43731000  1
  C  C543  1  0.42639000  0.92509000  0.39292000  1
  C  C544  1  0.11427000  0.75076000  0.58775000  1
  C  C545  1  0.18248000  0.71345000  0.58987000  1
  C  C546  1  0.25806000  0.72183000  0.58927000  1
  C  C547  1  0.26013000  0.76825000  0.58736000  1
  C  C548  1  0.18873000  0.80372000  0.58569000  1
  C  C549  1  0.33228000  0.68120000  0.59026000  1
  C  C550  1  0.32514000  0.91857000  0.58012000  1
  C  C551  1  0.34306000  0.95826000  0.55444000  1
  C  C552  1  0.42634000  0.95609000  0.52933000  1
  C  C553  1  0.49129000  0.91584000  0.52820000  1
  C  C554  1  0.47292000  0.87605000  0.55180000  1
  C  C555  1  0.39140000  0.87732000  0.57705000  1
  C  C556  1  0.27792000  0.00061000  0.54989000  1
  C  C557  1  0.06450000  0.04731000  0.58728000  1
  C  C558  1  0.99302000  0.08681000  0.58033000  1
  C  C559  1  0.94684000  0.11823000  0.62349000  1
  C  C560  1  0.00202000  0.14343000  0.63688000  1
  C  C561  1  0.95569000  0.17400000  0.68034000  1
  C  C562  1  0.01155000  0.19823000  0.69446000  1
  C  C563  1  0.83510000  0.82280000  0.46951000  1
  C  C564  1  0.89439000  0.80500000  0.49559000  1
  C  C565  1  0.93583000  0.75683000  0.49384000  1
  C  C566  1  0.91940000  0.72615000  0.46806000  1
  C  C567  1  0.86109000  0.74372000  0.44239000  1
  C  C568  1  0.82002000  0.79107000  0.44291000  1
  C  C569  1  0.91316000  0.83430000  0.52529000  1
  C  C570  1  0.85298000  0.94814000  0.56302000  1
  C  C571  1  0.86042000  0.97920000  0.59733000  1
  C  C572  1  0.78199000  0.99023000  0.63954000  1
  C  C573  1  0.77346000  0.94784000  0.67093000  1
  C  C574  1  0.69519000  0.95868000  0.71271000  1
  C  C575  1  0.68458000  0.91492000  0.74151000  1
  C  C576  1  0.58174000  0.58342000  0.54978000  1
  C  C577  1  0.52518000  0.62704000  0.55049000  1
  C  C578  1  0.47735000  0.64835000  0.59331000  1
  C  C579  1  0.48936000  0.62416000  0.63386000  1
  C  C580  1  0.54830000  0.58080000  0.63027000  1
  C  C581  1  0.40989000  0.69318000  0.59474000  1
  C  C582  1  0.79786000  0.68302000  0.65136000  1
  C  C583  1  0.87189000  0.69242000  0.62138000  1
  C  C584  1  0.87722000  0.73879000  0.61703000  1
  C  C585  1  0.81384000  0.77513000  0.64204000  1
  C  C586  1  0.74255000  0.76534000  0.67268000  1
  C  C587  1  0.73423000  0.72031000  0.67699000  1
  C  C588  1  0.94377000  0.65561000  0.59634000  1
  C  C589  1  0.01752000  0.53565000  0.59395000  1
  C  C590  1  0.09520000  0.49612000  0.57939000  1
  C  C591  1  0.12278000  0.47332000  0.62246000  1
  C  C592  1  0.19572000  0.42877000  0.61114000  1
  C  C593  1  0.27883000  0.43712000  0.58204000  1
  C  C594  1  0.35205000  0.39260000  0.57489000  1
  C  C595  1  0.86398000  0.58860000  0.74907000  1
  C  C596  1  0.89464000  0.59035000  0.78660000  1
  C  C597  1  0.97858000  0.58959000  0.77852000  1
  C  C598  1  0.02724000  0.58805000  0.73218000  1
  C  C599  1  0.99154000  0.58676000  0.69651000  1
  C  C600  1  0.01226000  0.58998000  0.81928000  1
  C  C601  1  0.24213000  0.58170000  0.58059000  1
  C  C602  1  0.29954000  0.55539000  0.54137000  1
  C  C603  1  0.38018000  0.52996000  0.54404000  1
  C  C604  1  0.40447000  0.52901000  0.58445000  1
  C  C605  1  0.34631000  0.55314000  0.62385000  1
  C  C606  1  0.26657000  0.57884000  0.62205000  1
  C  C607  1  0.27681000  0.55093000  0.49895000  1
  C  C608  1  0.11056000  0.58745000  0.45169000  1
  C  C609  1  0.07989000  0.58009000  0.41178000  1
  C  C610  1  0.06524000  0.62322000  0.38026000  1
  C  C611  1  0.14552000  0.63688000  0.35557000  1
  C  C612  1  0.12982000  0.68063000  0.32529000  1
  C  C613  1  0.20984000  0.69493000  0.30147000  1
  C  C614  1  0.65873000  0.46963000  0.67765000  1
  C  C615  1  0.70058000  0.49567000  0.69520000  1
  C  C616  1  0.69360000  0.49435000  0.74340000  1
  C  C617  1  0.64599000  0.46894000  0.77430000  1
  C  C618  1  0.60519000  0.44312000  0.75694000  1
  C  C619  1  0.61161000  0.44330000  0.70960000  1
  C  C620  1  0.74913000  0.52490000  0.66548000  1
  C  C621  1  0.80137000  0.56287000  0.55161000  1
  C  C622  1  0.83970000  0.59722000  0.52037000  1
  C  C623  1  0.77220000  0.63944000  0.50935000  1
  C  C624  1  0.72159000  0.67081000  0.55171000  1
  C  C625  1  0.65398000  0.71257000  0.54095000  1
  C  C626  1  0.59973000  0.74121000  0.58475000  1
  C  C627  1  0.16596000  0.54948000  0.91643000  1
  C  C628  1  0.15229000  0.55028000  0.87297000  1
  C  C629  1  0.12513000  0.59315000  0.85183000  1
  C  C630  1  0.11346000  0.63369000  0.87587000  1
  C  C631  1  0.12972000  0.63001000  0.91906000  1
  C  C632  1  0.10170000  0.59466000  0.80724000  1
  C  C633  1  0.13312000  0.81644000  0.84764000  1
  C  C634  1  0.18607000  0.80744000  0.87792000  1
  C  C635  1  0.23297000  0.76107000  0.88280000  1
  C  C636  1  0.23107000  0.72448000  0.85800000  1
  C  C637  1  0.18117000  0.73389000  0.82707000  1
  C  C638  1  0.13260000  0.77887000  0.82224000  1
  C  C639  1  0.19590000  0.84455000  0.90284000  1
  C  C640  1  0.14550000  0.96464000  0.90562000  1
  C  C641  1  0.16880000  0.00436000  0.92018000  1
  C  C642  1  0.21778000  0.02675000  0.87717000  1
  C  C643  1  0.23563000  0.07116000  0.88840000  1
  C  C644  1  0.29772000  0.06276000  0.91770000  1
  C  C645  1  0.31916000  0.10731000  0.92512000  1
  C  C646  1  0.20163000  0.91125000  0.75068000  1
  C  C647  1  0.27171000  0.90931000  0.71323000  1
  C  C648  1  0.34665000  0.91024000  0.72144000  1
  C  C649  1  0.34720000  0.91198000  0.76780000  1
  C  C650  1  0.27435000  0.91353000  0.80339000  1
  C  C651  1  0.42152000  0.90985000  0.68078000  1
  C  C652  1  0.40485000  0.92003000  0.91844000  1
  C  C653  1  0.39721000  0.94552000  0.95819000  1
  C  C654  1  0.45558000  0.97048000  0.95615000  1
  C  C655  1  0.51949000  0.97180000  0.91600000  1
  C  C656  1  0.52474000  0.94833000  0.87617000  1
  C  C657  1  0.46837000  0.92312000  0.87730000  1
  C  C658  1  0.32770000  0.94985000  0.00062000  1
  C  C659  1  0.15150000  0.91250000  0.04734000  1
  C  C660  1  0.07309000  0.91941000  0.08685000  1
  C  C661  1  0.06988000  0.87639000  0.11861000  1
  C  C662  1  0.13847000  0.86298000  0.14376000  1
  C  C663  1  0.13579000  0.81943000  0.17434000  1
  C  C664  1  0.20594000  0.80545000  0.19842000  1
  C  C665  1  0.80531000  0.03031000  0.82251000  1
  C  C666  1  0.89054000  0.00421000  0.80476000  1
  C  C667  1  0.93007000  0.00562000  0.75653000  1
  C  C668  1  0.88780000  0.03114000  0.72575000  1
  C  C669  1  0.80398000  0.05691000  0.74332000  1
  C  C670  1  0.76356000  0.05664000  0.79070000  1
  C  C671  1  0.93868000  0.97472000  0.83430000  1
  C  C672  1  0.91582000  0.93730000  0.94827000  1
  C  C673  1  0.95736000  0.90316000  0.97954000  1
  C  C674  1  0.92146000  0.86075000  0.99071000  1
  C  C675  1  0.94431000  0.82937000  0.94838000  1
  C  C676  1  0.90776000  0.78755000  0.95918000  1
  C  C677  1  0.92592000  0.75885000  0.91541000  1
  C  C678  1  0.63139000  0.95059000  0.58366000  1
  C  C679  1  0.57494000  0.94970000  0.62703000  1
  C  C680  1  0.56982000  0.90679000  0.64822000  1
  C  C681  1  0.62272000  0.86630000  0.62417000  1
  C  C682  1  0.67857000  0.87006000  0.58105000  1
  C  C683  1  0.50356000  0.90517000  0.69288000  1
  C  C684  1  0.51943000  0.34854000  0.18368000  1
  C  C685  1  0.43586000  0.37830000  0.19274000  1
  C  C686  1  0.38413000  0.38268000  0.23908000  1
  C  C687  1  0.41100000  0.35772000  0.27557000  1
  C  C688  1  0.49203000  0.32708000  0.26605000  1
  C  C689  1  0.54557000  0.32289000  0.22111000  1
  C  C690  1  0.40089000  0.40303000  0.15563000  1
  C  C691  1  0.44800000  0.40554000  0.03562000  1
  C  C692  1  0.41034000  0.42020000  0.99583000  1
  C  C693  1  0.40475000  0.37722000  0.97325000  1
  C  C694  1  0.37593000  0.38863000  0.92879000  1
  C  C695  1  0.28455000  0.41783000  0.93720000  1
  C  C696  1  0.25558000  0.42515000  0.89272000  1
  C  C697  1  0.54783000  0.25040000  0.08897000  1
  C  C698  1  0.51524000  0.21295000  0.09051000  1
  C  C699  1  0.43210000  0.22118000  0.08962000  1
  C  C700  1  0.38522000  0.26759000  0.08818000  1
  C  C701  1  0.42237000  0.30318000  0.08710000  1
  C  C702  1  0.39766000  0.18057000  0.08990000  1
  C  C703  1  0.17726000  0.41846000  0.08021000  1
  C  C704  1  0.14519000  0.45819000  0.05462000  1
  C  C705  1  0.08873000  0.45615000  0.02975000  1
  C  C706  1  0.06479000  0.41597000  0.02864000  1
  C  C707  1  0.09953000  0.37612000  0.05208000  1
  C  C708  1  0.15485000  0.37726000  0.07723000  1
  C  C709  1  0.17265000  0.50057000  0.05003000  1
  C  C710  1  0.30187000  0.54762000  0.08739000  1
  C  C711  1  0.34025000  0.58738000  0.08054000  1
  C  C712  1  0.31130000  0.61884000  0.12374000  1
  C  C713  1  0.21753000  0.64382000  0.13699000  1
  C  C714  1  0.18968000  0.67436000  0.18050000  1
  C  C715  1  0.09553000  0.69848000  0.19463000  1
  C  C716  1  0.87223000  0.32241000  0.96964000  1
  C  C717  1  0.80452000  0.30471000  0.99568000  1
  C  C718  1  0.81291000  0.25653000  0.99417000  1
  C  C719  1  0.88577000  0.22570000  0.96868000  1
  C  C720  1  0.95222000  0.24323000  0.94293000  1
  C  C721  1  0.94566000  0.29059000  0.94325000  1
  C  C722  1  0.72678000  0.33418000  0.02517000  1
  C  C723  1  0.63576000  0.44813000  0.06261000  1
  C  C724  1  0.56319000  0.47925000  0.09690000  1
  C  C725  1  0.58845000  0.49041000  0.13908000  1
  C  C726  1  0.60774000  0.44815000  0.17063000  1
  C  C727  1  0.63348000  0.45908000  0.21238000  1
  C  C728  1  0.65907000  0.41535000  0.24120000  1
  C  C729  1  0.28446000  0.08358000  0.04951000  1
  C  C730  1  0.29720000  0.12708000  0.05030000  1
  C  C731  1  0.28148000  0.14822000  0.09315000  1
  C  C732  1  0.25277000  0.12410000  0.13369000  1
  C  C733  1  0.24035000  0.08084000  0.13002000  1
  C  C734  1  0.30352000  0.19280000  0.09461000  1
  C  C735  1  0.04956000  0.15242000  0.31657000  1
  C  C736  1  0.00602000  0.12195000  0.30748000  1
  C  C737  1  0.00597000  0.11688000  0.26108000  1
  C  C738  1  0.04423000  0.14182000  0.22453000  1
  C  C739  1  0.08394000  0.17311000  0.23405000  1
  C  C740  1  0.08759000  0.17790000  0.27903000  1
  C  C741  1  0.95882000  0.09717000  0.34457000  1
  C  C742  1  0.88978000  0.09425000  0.46462000  1
  C  C743  1  0.82698000  0.07961000  0.50437000  1
  C  C744  1  0.75582000  0.12263000  0.52670000  1
  C  C745  1  0.69369000  0.11144000  0.57115000  1
  C  C746  1  0.63991000  0.08221000  0.56268000  1
  C  C747  1  0.57361000  0.07491000  0.60708000  1
  C  C748  1  0.88573000  0.24925000  0.41225000  1
  C  C749  1  0.81752000  0.28655000  0.41013000  1
  C  C750  1  0.74194000  0.27817000  0.41073000  1
  C  C751  1  0.73987000  0.23175000  0.41263000  1
  C  C752  1  0.81127000  0.19629000  0.41431000  1
  C  C753  1  0.66773000  0.31881000  0.40974000  1
  C  C754  1  0.67487000  0.08144000  0.41988000  1
  C  C755  1  0.65694000  0.04174000  0.44556000  1
  C  C756  1  0.57367000  0.04392000  0.47067000  1
  C  C757  1  0.50871000  0.08417000  0.47180000  1
  C  C758  1  0.52708000  0.12395000  0.44820000  1
  C  C759  1  0.60861000  0.12268000  0.42295000  1
  C  C760  1  0.72209000  0.99940000  0.45010000  1
  C  C761  1  0.93550000  0.95270000  0.41272000  1
  C  C762  1  0.00698000  0.91319000  0.41967000  1
  C  C763  1  0.05316000  0.88177000  0.37651000  1
  C  C764  1  0.99799000  0.85657000  0.36312000  1
  C  C765  1  0.04432000  0.82600000  0.31966000  1
  C  C766  1  0.98846000  0.80177000  0.30554000  1
  C  C767  1  0.16491000  0.17720000  0.53049000  1
  C  C768  1  0.10561000  0.19500000  0.50441000  1
  C  C769  1  0.06418000  0.24317000  0.50616000  1
  C  C770  1  0.08060000  0.27385000  0.53194000  1
  C  C771  1  0.13892000  0.25629000  0.55761000  1
  C  C772  1  0.17998000  0.20894000  0.55709000  1
  C  C773  1  0.08685000  0.16570000  0.47471000  1
  C  C774  1  0.14702000  0.05187000  0.43698000  1
  C  C775  1  0.13958000  0.02081000  0.40267000  1
  C  C776  1  0.21802000  0.00977000  0.36046000  1
  C  C777  1  0.22655000  0.05216000  0.32907000  1
  C  C778  1  0.30482000  0.04132000  0.28729000  1
  C  C779  1  0.31543000  0.08508000  0.25849000  1
  C  C780  1  0.41826000  0.41658000  0.45022000  1
  C  C781  1  0.47482000  0.37296000  0.44951000  1
  C  C782  1  0.52265000  0.35165000  0.40669000  1
  C  C783  1  0.51064000  0.37584000  0.36614000  1
  C  C784  1  0.45170000  0.41920000  0.36973000  1
  C  C785  1  0.59011000  0.30682000  0.40526000  1
  C  C786  1  0.20215000  0.31698000  0.34864000  1
  C  C787  1  0.12812000  0.30758000  0.37862000  1
  C  C788  1  0.12279000  0.26121000  0.38297000  1
  C  C789  1  0.18617000  0.22488000  0.35796000  1
  C  C790  1  0.25745000  0.23466000  0.32731000  1
  C  C791  1  0.26577000  0.27969000  0.32301000  1
  C  C792  1  0.05623000  0.34440000  0.40366000  1
  C  C793  1  0.98249000  0.46435000  0.40605000  1
  C  C794  1  0.90480000  0.50388000  0.42060000  1
  C  C795  1  0.87722000  0.52668000  0.37754000  1
  C  C796  1  0.80428000  0.57123000  0.38886000  1
  C  C797  1  0.72117000  0.56288000  0.41796000  1
  C  C798  1  0.64796000  0.60740000  0.42511000  1
  C  C799  1  0.13602000  0.41140000  0.25093000  1
  C  C800  1  0.10536000  0.40965000  0.21340000  1
  C  C801  1  0.02142000  0.41041000  0.22148000  1
  C  C802  1  0.97276000  0.41195000  0.26782000  1
  C  C803  1  0.00847000  0.41325000  0.30349000  1
  C  C804  1  0.98774000  0.41003000  0.18072000  1
  C  C805  1  0.75787000  0.41830000  0.41941000  1
  C  C806  1  0.70047000  0.44461000  0.45863000  1
  C  C807  1  0.61982000  0.47004000  0.45596000  1
  C  C808  1  0.59553000  0.47099000  0.41555000  1
  C  C809  1  0.65370000  0.44686000  0.37615000  1
  C  C810  1  0.73343000  0.42116000  0.37794000  1
  C  C811  1  0.72320000  0.44906000  0.50105000  1
  C  C812  1  0.88944000  0.41255000  0.54831000  1
  C  C813  1  0.92012000  0.41992000  0.58821000  1
  C  C814  1  0.93477000  0.37679000  0.61974000  1
  C  C815  1  0.85448000  0.36312000  0.64443000  1
  C  C816  1  0.87019000  0.31937000  0.67471000  1
  C  C817  1  0.79017000  0.30507000  0.69853000  1
  C  C818  1  0.34128000  0.53037000  0.32234000  1
  C  C819  1  0.29942000  0.50433000  0.30480000  1
  C  C820  1  0.30640000  0.50565000  0.25660000  1
  C  C821  1  0.35401000  0.53107000  0.22570000  1
  C  C822  1  0.39481000  0.55689000  0.24306000  1
  C  C823  1  0.38840000  0.55670000  0.29040000  1
  C  C824  1  0.25087000  0.47511000  0.33452000  1
  C  C825  1  0.19863000  0.43713000  0.44839000  1
  C  C826  1  0.16030000  0.40278000  0.47962000  1
  C  C827  1  0.22781000  0.36056000  0.49065000  1
  C  C828  1  0.27841000  0.32919000  0.44828000  1
  C  C829  1  0.34603000  0.28744000  0.45905000  1
  C  C830  1  0.40028000  0.25879000  0.41525000  1
  C  C831  1  0.83404000  0.45053000  0.08357000  1
  C  C832  1  0.84771000  0.44972000  0.12703000  1
  C  C833  1  0.87488000  0.40685000  0.14817000  1
  C  C834  1  0.88655000  0.36631000  0.12413000  1
  C  C835  1  0.87028000  0.36999000  0.08093000  1
  C  C836  1  0.89831000  0.40534000  0.19276000  1
  C  C837  1  0.86688000  0.18356000  0.15236000  1
  C  C838  1  0.81393000  0.19257000  0.12208000  1
  C  C839  1  0.76703000  0.23893000  0.11720000  1
  C  C840  1  0.76894000  0.27552000  0.14199000  1
  C  C841  1  0.81883000  0.26611000  0.17293000  1
  C  C842  1  0.86741000  0.22113000  0.17776000  1
  C  C843  1  0.80411000  0.15545000  0.09716000  1
  C  C844  1  0.85450000  0.03537000  0.09438000  1
  C  C845  1  0.83120000  0.99564000  0.07982000  1
  C  C846  1  0.78222000  0.97326000  0.12283000  1
  C  C847  1  0.76438000  0.92884000  0.11160000  1
  C  C848  1  0.70228000  0.93724000  0.08230000  1
  C  C849  1  0.68085000  0.89269000  0.07488000  1
  C  C850  1  0.79837000  0.08875000  0.24932000  1
  C  C851  1  0.72829000  0.09069000  0.28677000  1
  C  C852  1  0.65335000  0.08976000  0.27856000  1
  C  C853  1  0.65280000  0.08803000  0.23220000  1
  C  C854  1  0.72565000  0.08647000  0.19661000  1
  C  C855  1  0.57848000  0.09016000  0.31922000  1
  C  C856  1  0.59515000  0.07997000  0.08156000  1
  C  C857  1  0.60279000  0.05448000  0.04181000  1
  C  C858  1  0.54442000  0.02952000  0.04385000  1
  C  C859  1  0.48051000  0.02820000  0.08400000  1
  C  C860  1  0.47527000  0.05167000  0.12383000  1
  C  C861  1  0.53164000  0.07688000  0.12270000  1
  C  C862  1  0.67231000  0.05016000  0.99937000  1
  C  C863  1  0.84850000  0.08751000  0.95266000  1
  C  C864  1  0.92692000  0.08059000  0.91315000  1
  C  C865  1  0.93012000  0.12361000  0.88139000  1
  C  C866  1  0.86153000  0.13702000  0.85623000  1
  C  C867  1  0.86421000  0.18057000  0.82566000  1
  C  C868  1  0.79407000  0.19456000  0.80158000  1
  C  C869  1  0.19469000  0.96970000  0.17749000  1
  C  C870  1  0.10946000  0.99579000  0.19524000  1
  C  C871  1  0.06994000  0.99438000  0.24347000  1
  C  C872  1  0.11220000  0.96886000  0.27425000  1
  C  C873  1  0.19603000  0.94309000  0.25667000  1
  C  C874  1  0.23644000  0.94337000  0.20930000  1
  C  C875  1  0.06133000  0.02528000  0.16570000  1
  C  C876  1  0.08419000  0.06270000  0.05173000  1
  C  C877  1  0.04264000  0.09685000  0.02046000  1
  C  C878  1  0.07855000  0.13925000  0.00929000  1
  C  C879  1  0.05569000  0.17063000  0.05162000  1
  C  C880  1  0.09224000  0.21245000  0.04082000  1
  C  C881  1  0.07408000  0.24115000  0.08459000  1
  C  C882  1  0.36861000  0.04941000  0.41634000  1
  C  C883  1  0.42506000  0.05030000  0.37297000  1
  C  C884  1  0.43018000  0.09321000  0.35177000  1
  C  C885  1  0.37729000  0.13370000  0.37583000  1
  C  C886  1  0.32143000  0.12994000  0.41895000  1
  C  C887  1  0.49644000  0.09483000  0.30712000  1
  N  N888  1  0.55224000  0.60209000  0.88888000  1
  N  N889  1  0.59562000  0.58052000  0.92144000  1
  N  N890  1  0.49738000  0.70491000  0.91293000  1
  N  N891  1  0.77301000  0.49580000  0.92729000  1
  N  N892  1  0.74894000  0.45447000  0.93685000  1
  N  N893  1  0.28367000  0.61989000  0.97161000  1
  N  N894  1  0.35824000  0.59647000  0.93961000  1
  N  N895  1  0.74387000  0.93933000  0.91134000  1
  N  N896  1  0.04365000  0.89778000  0.61095000  1
  N  N897  1  0.09784000  0.91944000  0.57832000  1
  N  N898  1  0.11680000  0.79546000  0.58548000  1
  N  N899  1  0.19733000  0.00402000  0.57246000  1
  N  N900  1  0.14147000  0.04523000  0.56281000  1
  N  N901  1  0.87435000  0.88021000  0.52871000  1
  N  N902  1  0.89358000  0.90352000  0.56082000  1
  N  N903  1  0.59387000  0.56054000  0.58893000  1
  N  N904  1  0.94208000  0.61099000  0.60159000  1
  N  N905  1  0.01812000  0.57863000  0.57997000  1
  N  N906  1  0.91143000  0.58659000  0.70446000  1
  N  N907  1  0.19975000  0.57332000  0.49524000  1
  N  N908  1  0.18538000  0.56324000  0.45408000  1
  N  N909  1  0.75527000  0.52850000  0.61967000  1
  N  N910  1  0.79810000  0.56042000  0.59613000  1
  N  N911  1  0.15530000  0.58863000  0.93925000  1
  N  N912  1  0.15413000  0.88906000  0.89771000  1
  N  N913  1  0.17571000  0.92164000  0.91943000  1
  N  N914  1  0.20213000  0.91367000  0.79529000  1
  N  N915  1  0.26934000  0.92748000  0.00392000  1
  N  N916  1  0.20396000  0.93704000  0.04518000  1
  N  N917  1  0.90316000  0.97139000  0.88018000  1
  N  N918  1  0.95433000  0.93940000  0.90366000  1
  N  N919  1  0.68297000  0.91148000  0.56093000  1
  N  N920  1  0.44777000  0.39791000  0.11112000  1
  N  N921  1  0.40438000  0.41948000  0.07856000  1
  N  N922  1  0.50263000  0.29509000  0.08706000  1
  N  N923  1  0.22699000  0.50420000  0.07271000  1
  N  N924  1  0.25106000  0.54553000  0.06314000  1
  N  N925  1  0.71633000  0.38012000  0.02839000  1
  N  N926  1  0.64176000  0.40353000  0.06039000  1
  N  N927  1  0.25613000  0.06067000  0.08866000  1
  N  N928  1  0.95636000  0.10222000  0.38905000  1
  N  N929  1  0.90216000  0.08056000  0.42168000  1
  N  N930  1  0.88320000  0.20455000  0.41452000  1
  N  N931  1  0.80267000  0.99599000  0.42754000  1
  N  N932  1  0.85854000  0.95478000  0.43719000  1
  N  N933  1  0.12565000  0.11980000  0.47129000  1
  N  N934  1  0.10642000  0.09648000  0.43918000  1
  N  N935  1  0.40614000  0.43946000  0.41106000  1
  N  N936  1  0.05792000  0.38901000  0.39840000  1
  N  N937  1  0.98189000  0.42137000  0.42002000  1
  N  N938  1  0.08857000  0.41341000  0.29554000  1
  N  N939  1  0.80026000  0.42668000  0.50476000  1
  N  N940  1  0.81462000  0.43676000  0.54591000  1
  N  N941  1  0.24473000  0.47150000  0.38033000  1
  N  N942  1  0.20190000  0.43958000  0.40387000  1
  N  N943  1  0.84470000  0.41137000  0.06075000  1
  N  N944  1  0.84588000  0.11094000  0.10229000  1
  N  N945  1  0.82429000  0.07836000  0.08057000  1
  N  N946  1  0.79787000  0.08633000  0.20470000  1
  N  N947  1  0.73066000  0.07252000  0.99607000  1
  N  N948  1  0.79604000  0.06296000  0.95481000  1
  N  N949  1  0.09684000  0.02861000  0.11982000  1
  N  N950  1  0.04567000  0.06060000  0.09634000  1
  N  N951  1  0.31704000  0.08852000  0.43907000  1
  O  O952  1  0.42419000  0.65650000  0.85783000  1
  O  O953  1  0.67658000  0.57137000  0.83449000  1
  O  O954  1  0.47713000  0.62304000  0.97312000  1
  O  O955  1  0.77274000  0.58254000  0.89292000  1
  O  O956  1  0.85318000  0.46658000  0.97737000  1
  O  O957  1  0.67900000  0.48543000  0.88234000  1
  O  O958  1  0.12875000  0.63286000  0.03156000  1
  O  O959  1  0.33124000  0.68466000  0.95120000  1
  O  O960  1  0.30565000  0.53382000  0.96325000  1
  O  O961  1  0.94215000  0.84138000  0.64180000  1
  O  O962  1  0.08304000  0.92854000  0.66539000  1
  O  O963  1  0.07226000  0.87728000  0.52669000  1
  O  O964  1  0.24951000  0.91751000  0.60722000  1
  O  O965  1  0.29843000  0.03350000  0.52257000  1
  O  O966  1  0.04858000  0.01439000  0.61782000  1
  O  O967  1  0.79227000  0.86753000  0.46850000  1
  O  O968  1  0.96640000  0.81539000  0.54884000  1
  O  O969  1  0.80218000  0.96621000  0.53721000  1
  O  O970  1  0.78348000  0.64134000  0.65660000  1
  O  O971  1  0.01066000  0.66601000  0.57030000  1
  O  O972  1  0.95142000  0.52673000  0.62258000  1
  O  O973  1  0.16645000  0.60939000  0.58061000  1
  O  O974  1  0.33025000  0.52373000  0.46614000  1
  O  O975  1  0.06114000  0.61806000  0.48435000  1
  O  O976  1  0.66073000  0.46831000  0.63298000  1
  O  O977  1  0.78485000  0.54795000  0.68395000  1
  O  O978  1  0.76811000  0.53718000  0.53372000  1
  O  O979  1  0.08272000  0.85801000  0.84170000  1
  O  O980  1  0.24731000  0.83460000  0.92872000  1
  O  O981  1  0.09891000  0.97334000  0.87714000  1
  O  O982  1  0.35611000  0.89298000  0.91741000  1
  O  O983  1  0.32117000  0.97674000  0.03372000  1
  O  O984  1  0.16616000  0.88195000  0.01447000  1
  O  O985  1  0.76165000  0.03167000  0.86726000  1
  O  O986  1  0.01546000  0.95117000  0.81547000  1
  O  O987  1  0.83921000  0.96317000  0.96622000  1
  O  O988  1  0.57581000  0.34350000  0.14217000  1
  O  O989  1  0.32343000  0.42863000  0.16551000  1
  O  O990  1  0.52288000  0.37696000  0.02688000  1
  O  O991  1  0.22727000  0.41746000  0.10707000  1
  O  O992  1  0.14682000  0.53342000  0.02263000  1
  O  O993  1  0.32100000  0.51457000  0.11765000  1
  O  O994  1  0.87125000  0.36714000  0.96844000  1
  O  O995  1  0.66877000  0.31534000  0.04880000  1
  O  O996  1  0.69435000  0.46618000  0.03675000  1
  O  O997  1  0.05786000  0.15862000  0.35820000  1
  O  O998  1  0.91696000  0.07147000  0.33461000  1
  O  O999  1  0.92775000  0.12272000  0.47330000  1
  O  O1000  1  0.75050000  0.08249000  0.39278000  1
  O  O1001  1  0.70158000  0.96650000  0.47743000  1
  O  O1002  1  0.95143000  0.98562000  0.38218000  1
  O  O1003  1  0.20773000  0.13247000  0.53150000  1
  O  O1004  1  0.03360000  0.18462000  0.45115000  1
  O  O1005  1  0.19782000  0.03379000  0.46279000  1
  O  O1006  1  0.21652000  0.35866000  0.34340000  1
  O  O1007  1  0.98935000  0.33399000  0.42970000  1
  O  O1008  1  0.04859000  0.47327000  0.37742000  1
  O  O1009  1  0.83356000  0.39061000  0.41939000  1
  O  O1010  1  0.66975000  0.47626000  0.53387000  1
  O  O1011  1  0.93886000  0.38194000  0.51565000  1
  O  O1012  1  0.33929000  0.53169000  0.36702000  1
  O  O1013  1  0.21515000  0.45206000  0.31605000  1
  O  O1014  1  0.23190000  0.46282000  0.46628000  1
  O  O1015  1  0.91728000  0.14199000  0.15829000  1
  O  O1016  1  0.75269000  0.16540000  0.07128000  1
  O  O1017  1  0.90109000  0.02666000  0.12286000  1
  O  O1018  1  0.64390000  0.10702000  0.08258000  1
  O  O1019  1  0.67883000  0.02326000  0.96627000  1
  O  O1020  1  0.83385000  0.11805000  0.98553000  1
  O  O1021  1  0.23836000  0.96834000  0.13274000  1
  O  O1022  1  0.98454000  0.04883000  0.18452000  1
  O  O1023  1  0.16079000  0.03684000  0.03378000  1
