# generated using pymatgen
data_H32C47(N2O)4
_symmetry_space_group_name_H-M   'P 1'
_cell_length_a   32.12070000
_cell_length_b   56.25125000
_cell_length_c   56.25130000
_cell_angle_alpha   120.00008821
_cell_angle_beta   89.99990000
_cell_angle_gamma   90.00000000
_symmetry_Int_Tables_number   1
_chemical_formula_structural   H32C47(N2O)4
_chemical_formula_sum   'H384 C564 N96 O48'
_cell_volume   88019.72112159
_cell_formula_units_Z   12
loop_
 _symmetry_equiv_pos_site_id
 _symmetry_equiv_pos_as_xyz
  1  'x, y, z'
loop_
 _atom_site_type_symbol
 _atom_site_label
 _atom_site_symmetry_multiplicity
 _atom_site_fract_x
 _atom_site_fract_y
 _atom_site_fract_z
 _atom_site_occupancy
  H  25  1  0.88949700  0.92177100  0.30698100  1
  H  26  1  0.82538900  0.94160400  0.30452500  1
  H  27  1  0.67157900  0.94223400  0.30345700  1
  H  28  1  0.60647500  0.92284300  0.30508700  1
  H  29  1  0.66666667  0.85106800  0.29177800  1
  H  30  1  0.82695700  0.85029700  0.29271100  1
  H  31  1  0.74785500  0.85404600  0.24057800  1
  H  32  1  0.73554800  0.76828500  0.20307500  1
  H  33  1  0.73768000  0.77142500  0.24685700  1
  H  34  1  0.74793700  0.91035300  0.34655700  1
  H  35  1  0.73532400  0.82551800  0.34814500  1
  H  36  1  0.73238100  0.86838300  0.39008400  1
  H  39  1  0.74819600  0.94193900  0.31796700  1
  H  40  1  0.74879400  0.92684600  0.28174900  1
  H  42  1  0.71336700  0.80478800  0.29690900  1
  H  43  1  0.76847700  0.80329800  0.29741000  1
  H  45  1  0.71118100  0.92075900  0.40949500  1
  H  46  1  0.73671200  0.93696800  0.39409600  1
  H  48  1  0.74441500  0.82784200  0.19090000  1
  H  49  1  0.70694000  0.80215700  0.18321600  1
  H  51  1  0.57926200  0.88352500  0.31966000  1
  H  52  1  0.59347700  0.85108700  0.29299800  1
  H  54  1  0.91550700  0.88254200  0.32131000  1
  H  55  1  0.90049400  0.85006300  0.29506300  1
  H  80  1  0.88946300  0.26003900  0.95328900  1
  H  81  1  0.82534400  0.23777200  0.93345900  1
  H  82  1  0.67153200  0.23609800  0.93284400  1
  H  83  1  0.60643700  0.25712200  0.95225300  1
  H  84  1  0.66666667  0.31555300  0.02403100  1
  H  85  1  0.82695000  0.31723300  0.02478300  1
  H  86  1  0.74784600  0.26135700  0.02101800  1
  H  87  1  0.73556200  0.30959000  0.10678300  1
  H  88  1  0.73768600  0.35024400  0.10366200  1
  H  89  1  0.74791000  0.31106600  0.96474500  1
  H  90  1  0.73532300  0.39747200  0.04959900  1
  H  91  1  0.73238500  0.39656400  0.00674300  1
  H  94  1  0.74816400  0.25089400  0.93313700  1
  H  95  1  0.74874400  0.22975600  0.94821600  1
  H  97  1  0.71335600  0.36694500  0.07031100  1
  H  98  1  0.76846600  0.36894500  0.07180200  1
  H  100  1  0.71118800  0.36363100  0.95437100  1
  H  101  1  0.73667200  0.33200800  0.93814700  1
  H  103  1  0.74442400  0.23787100  0.04721100  1
  H  104  1  0.70696500  0.25586300  0.07290700  1
  H  106  1  0.57923100  0.31099000  0.99158100  1
  H  107  1  0.59347400  0.31677700  0.02401900  1
  H  109  1  0.91550300  0.31358800  0.99253400  1
  H  110  1  0.90048800  0.31980800  0.02500900  1
  H  135  1  0.88951500  0.56809500  0.61500700  1
  H  136  1  0.82541800  0.57053700  0.63729700  1
  H  137  1  0.67161300  0.57159200  0.63901200  1
  H  138  1  0.60650900  0.56996600  0.61800200  1
  H  139  1  0.66666667  0.58334300  0.55957100  1
  H  140  1  0.82694900  0.58241700  0.55784500  1
  H  141  1  0.74785100  0.63453300  0.61375200  1
  H  142  1  0.73557300  0.67207400  0.56552700  1
  H  143  1  0.73770400  0.62830100  0.52487000  1
  H  144  1  0.74792200  0.52855000  0.56403200  1
  H  145  1  0.73533700  0.52701000  0.47763000  1
  H  146  1  0.73240100  0.48505600  0.47853200  1
  H  149  1  0.74823000  0.55709700  0.62419200  1
  H  150  1  0.74881900  0.59331100  0.64534500  1
  H  152  1  0.71335700  0.57824800  0.50816200  1
  H  153  1  0.76846800  0.57774000  0.50616800  1
  H  155  1  0.71119900  0.46561600  0.51146700  1
  H  156  1  0.73670700  0.48100900  0.54308400  1
  H  158  1  0.74444300  0.68421100  0.63724300  1
  H  159  1  0.70696000  0.69191100  0.61925900  1
  H  161  1  0.57930200  0.55542900  0.56410800  1
  H  162  1  0.59346700  0.58213000  0.55838300  1
  H  164  1  0.91552100  0.55381100  0.56146500  1
  H  165  1  0.90048800  0.58006500  0.55524800  1
  H  190  1  0.38944300  0.91145800  0.60989800  1
  H  191  1  0.32531000  0.89164200  0.61233600  1
  H  192  1  0.17149000  0.89105400  0.61339000  1
  H  193  1  0.10642000  0.91046600  0.61176100  1
  H  194  1  0.16665800  0.98223100  0.62510100  1
  H  195  1  0.32696000  0.98296300  0.62418800  1
  H  196  1  0.24785800  0.97921900  0.67629400  1
  H  197  1  0.23564200  0.06498600  0.71381100  1
  H  198  1  0.23776500  0.06185200  0.67003000  1
  H  199  1  0.24788600  0.92292600  0.57031400  1
  H  200  1  0.23536200  0.00777300  0.56874200  1
  H  201  1  0.23240700  0.96491400  0.52679800  1
  H  204  1  0.24810700  0.89133100  0.59888300  1
  H  205  1  0.24872700  0.90640900  0.63510000  1
  H  207  1  0.21340100  0.02850100  0.61998000  1
  H  208  1  0.26851200  0.02997300  0.61946900  1
  H  210  1  0.21117500  0.91254900  0.50736800  1
  H  211  1  0.23663800  0.89632300  0.52277500  1
  H  213  1  0.24448400  0.00542000  0.72597200  1
  H  214  1  0.20701900  0.03111500  0.73367700  1
  H  216  1  0.07923800  0.94976300  0.59720000  1
  H  217  1  0.09347500  0.98221400  0.62382800  1
  H  219  1  0.41550700  0.95073400  0.59560300  1
  H  220  1  0.40050800  0.98319400  0.62189400  1
  H  245  1  0.38953000  0.57324100  0.96356600  1
  H  246  1  0.32542200  0.59552300  0.98341200  1
  H  247  1  0.17160500  0.59723700  0.98406100  1
  H  248  1  0.10650700  0.57622300  0.96467700  1
  H  249  1  0.16665200  0.51776700  0.89289200  1
  H  250  1  0.32696000  0.51604700  0.89209400  1
  H  251  1  0.24789300  0.57194200  0.89587100  1
  H  252  1  0.23559800  0.52370000  0.81010700  1
  H  253  1  0.23770600  0.48304900  0.81323700  1
  H  254  1  0.24789900  0.52224300  0.95215800  1
  H  255  1  0.23529900  0.43583400  0.86730700  1
  H  256  1  0.23234500  0.43674700  0.91016600  1
  H  259  1  0.24821600  0.58241200  0.98375700  1
  H  260  1  0.24883300  0.60355200  0.96868200  1
  H  262  1  0.21334500  0.46636300  0.84659100  1
  H  263  1  0.26845300  0.46435000  0.84510100  1
  H  265  1  0.21114400  0.46969000  0.96253600  1
  H  266  1  0.23665400  0.50130500  0.97876000  1
  H  268  1  0.24449900  0.59542300  0.86967300  1
  H  269  1  0.20700600  0.57744100  0.84399800  1
  H  271  1  0.07930600  0.52233200  0.92535400  1
  H  272  1  0.09346600  0.51658400  0.89291600  1
  H  274  1  0.41555100  0.51967800  0.92429900  1
  H  275  1  0.40050100  0.51347900  0.89183900  1
  H  300  1  0.38947700  0.26518900  0.30184500  1
  H  301  1  0.32536000  0.26275900  0.27957900  1
  H  302  1  0.17153400  0.26169700  0.27789600  1
  H  303  1  0.10644200  0.26332000  0.29892100  1
  H  304  1  0.16664600  0.25000500  0.35737200  1
  H  305  1  0.32694400  0.25092100  0.35905600  1
  H  306  1  0.24785500  0.19881200  0.30318200  1
  H  307  1  0.23559500  0.16128600  0.35142400  1
  H  308  1  0.23771200  0.20506700  0.39207500  1
  H  309  1  0.24788300  0.30479300  0.35288100  1
  H  310  1  0.23529600  0.30635300  0.43929100  1
  H  311  1  0.23234500  0.34829900  0.43837700  1
  H  314  1  0.24815700  0.27622200  0.29270800  1
  H  315  1  0.24876700  0.24000400  0.27156800  1
  H  317  1  0.21335400  0.25511300  0.40877300  1
  H  318  1  0.26846500  0.25562500  0.41076200  1
  H  320  1  0.21115000  0.36773300  0.40544000  1
  H  321  1  0.23663200  0.35233000  0.37381600  1
  H  323  1  0.24446500  0.14913200  0.27970100  1
  H  324  1  0.20699400  0.14142800  0.29768700  1
  H  326  1  0.07924100  0.27787800  0.35279900  1
  H  327  1  0.09347500  0.25123000  0.35859100  1
  H  329  1  0.41552600  0.27949100  0.35540600  1
  H  330  1  0.40049200  0.25322700  0.36160600  1
  H  355  1  0.10339100  0.59264900  0.62889100  1
  H  356  1  0.16805000  0.60528900  0.61735400  1
  H  357  1  0.32247100  0.60292200  0.61414200  1
  H  358  1  0.38744400  0.58813200  0.62297000  1
  H  359  1  0.32492400  0.53092500  0.63730700  1
  H  360  1  0.16541600  0.53511500  0.64314900  1
  H  361  1  0.24857700  0.59186500  0.68191000  1
  H  362  1  0.27349600  0.56026600  0.73414300  1
  H  363  1  0.26403200  0.51483300  0.69700700  1
  H  364  1  0.23908200  0.52281200  0.57778100  1
  H  365  1  0.24510300  0.44896200  0.59836200  1
  H  366  1  0.24070400  0.43856600  0.55175400  1
  H  369  1  0.24377700  0.58416100  0.59710600  1
  H  370  1  0.24624600  0.61040800  0.63200300  1
  H  372  1  0.27767700  0.48673500  0.64490100  1
  H  373  1  0.22278400  0.48754700  0.64859400  1
  H  375  1  0.23033400  0.49070500  0.52943100  1
  H  376  1  0.21149200  0.45821800  0.52167500  1
  H  378  1  0.26285800  0.62381700  0.72843000  1
  H  379  1  0.29665900  0.61076000  0.74339500  1
  H  381  1  0.39609300  0.53662400  0.64696100  1
  H  382  1  0.41412800  0.56950000  0.65695700  1
  H  384  1  0.09436800  0.54331400  0.65523600  1
  H  385  1  0.07606900  0.57560500  0.66312000  1
  H  410  1  0.10334700  0.24615000  0.96396200  1
  H  411  1  0.16798800  0.25768800  0.98816700  1
  H  412  1  0.32240200  0.26088100  0.98906100  1
  H  413  1  0.38739500  0.25205400  0.96546700  1
  H  414  1  0.32495200  0.23779600  0.89392400  1
  H  415  1  0.16544100  0.23194100  0.89221000  1
  H  416  1  0.24856500  0.19317400  0.91021000  1
  H  417  1  0.27358900  0.14097700  0.82638800  1
  H  418  1  0.26414700  0.17812300  0.81810400  1
  H  419  1  0.23908800  0.29731000  0.94532600  1
  H  420  1  0.24519000  0.27677200  0.85090900  1
  H  421  1  0.24076000  0.32337300  0.88713400  1
  H  424  1  0.24373000  0.27794400  0.98733100  1
  H  425  1  0.24617700  0.24303800  0.97865300  1
  H  427  1  0.27777100  0.23023600  0.84214400  1
  H  428  1  0.22288400  0.22653100  0.83922500  1
  H  430  1  0.23037100  0.34566700  0.96159000  1
  H  431  1  0.21147400  0.35342100  0.93687000  1
  H  433  1  0.26282400  0.14665100  0.89562800  1
  H  434  1  0.29667100  0.13170300  0.86762800  1
  H  436  1  0.39611500  0.22812700  0.88998300  1
  H  437  1  0.41410600  0.21809600  0.91284500  1
  H  439  1  0.09440600  0.21983000  0.88828500  1
  H  440  1  0.07607800  0.21194200  0.91268500  1
  H  465  1  0.10336300  0.91112400  0.28244300  1
  H  466  1  0.16800300  0.88692800  0.26978200  1
  H  467  1  0.32241200  0.88604500  0.27210300  1
  H  468  1  0.38740400  0.90964700  0.28687800  1
  H  469  1  0.32494300  0.98118200  0.34416300  1
  H  470  1  0.16542900  0.98287900  0.34000700  1
  H  471  1  0.24853400  0.96489600  0.28324800  1
  H  472  1  0.27355200  0.04871700  0.31488200  1
  H  473  1  0.26412500  0.05699500  0.36030600  1
  H  474  1  0.23908500  0.92976700  0.35226100  1
  H  475  1  0.24518700  0.02417900  0.42614600  1
  H  476  1  0.24077300  0.98795200  0.43651800  1
  H  479  1  0.24374300  0.88776500  0.29088900  1
  H  480  1  0.24619300  0.89644900  0.26466600  1
  H  482  1  0.27774900  0.03295500  0.38837500  1
  H  483  1  0.22285900  0.03586700  0.38759300  1
  H  485  1  0.23035200  0.91350000  0.38435100  1
  H  486  1  0.21151100  0.93822200  0.41684300  1
  H  488  1  0.26283900  0.97948500  0.25131300  1
  H  489  1  0.29665600  0.00749900  0.26437900  1
  H  491  1  0.39609900  0.98512900  0.33843900  1
  H  492  1  0.41410000  0.96227200  0.30554600  1
  H  494  1  0.09439300  0.98679500  0.33179600  1
  H  495  1  0.07608400  0.96238900  0.29950700  1
  H  520  1  0.60336100  0.24062600  0.28794900  1
  H  521  1  0.66799600  0.22796600  0.29948700  1
  H  522  1  0.82240200  0.23028000  0.30269200  1
  H  523  1  0.88739700  0.24504700  0.29385900  1
  H  524  1  0.82494000  0.30232400  0.27959300  1
  H  525  1  0.66543400  0.29817700  0.27374200  1
  H  526  1  0.74855300  0.24140600  0.23497600  1
  H  527  1  0.77360000  0.27301900  0.18277300  1
  H  528  1  0.76416600  0.31844900  0.21991000  1
  H  529  1  0.73907600  0.31045300  0.33911600  1
  H  530  1  0.74519400  0.38431200  0.31855100  1
  H  531  1  0.74076400  0.39470200  0.36515600  1
  H  534  1  0.74373900  0.24907500  0.31975800  1
  H  535  1  0.74618400  0.22284500  0.28485100  1
  H  537  1  0.77777700  0.34652400  0.27201700  1
  H  538  1  0.72288900  0.34575200  0.26831700  1
  H  540  1  0.73035600  0.34255700  0.38747000  1
  H  541  1  0.71149100  0.37503800  0.39522200  1
  H  543  1  0.76287100  0.20946200  0.18845500  1
  H  544  1  0.79667900  0.22252600  0.17349900  1
  H  546  1  0.89610300  0.29659200  0.26992200  1
  H  547  1  0.91410200  0.26370300  0.25990100  1
  H  549  1  0.59439800  0.28995900  0.26160800  1
  H  550  1  0.57608900  0.25767500  0.25373700  1
  H  575  1  0.60340800  0.58712600  0.95290200  1
  H  576  1  0.66806100  0.57557800  0.92872000  1
  H  577  1  0.82246700  0.57235400  0.92786600  1
  H  578  1  0.88744200  0.58119700  0.95148500  1
  H  579  1  0.82493000  0.59550200  0.02302300  1
  H  580  1  0.66543000  0.60134300  0.02468100  1
  H  581  1  0.74857700  0.64009600  0.00668700  1
  H  582  1  0.77348800  0.69232600  0.09052100  1
  H  583  1  0.76404300  0.65518900  0.09881600  1
  H  584  1  0.73909400  0.53596400  0.97160600  1
  H  585  1  0.74513200  0.55653800  0.06603600  1
  H  586  1  0.74073100  0.50993100  0.02982200  1
  H  589  1  0.74378600  0.55530500  0.92958000  1
  H  590  1  0.74625300  0.59020800  0.93825100  1
  H  592  1  0.77771000  0.60307900  0.07479600  1
  H  593  1  0.72281900  0.60676800  0.07769300  1
  H  595  1  0.73035700  0.48761000  0.95535900  1
  H  596  1  0.71151200  0.47985100  0.98008900  1
  H  598  1  0.76283500  0.68662300  0.02126500  1
  H  599  1  0.79662800  0.70159300  0.04929100  1
  H  601  1  0.89608400  0.60519000  0.02698400  1
  H  602  1  0.91411200  0.61517500  0.00409400  1
  H  604  1  0.59439500  0.61346800  0.02857600  1
  H  605  1  0.57610800  0.62134500  0.00416300  1
  H  630  1  0.60334000  0.92214700  0.63441600  1
  H  631  1  0.66797100  0.94635900  0.64707700  1
  H  632  1  0.82238800  0.94726900  0.64480500  1
  H  633  1  0.88737800  0.92368000  0.63006600  1
  H  634  1  0.82496400  0.85211800  0.57278100  1
  H  635  1  0.66546500  0.85038400  0.57691100  1
  H  636  1  0.74859500  0.86842300  0.63368400  1
  H  637  1  0.77351300  0.78459000  0.60208700  1
  H  638  1  0.76409100  0.77629500  0.55665400  1
  H  639  1  0.73907100  0.90349600  0.56462700  1
  H  640  1  0.74519100  0.80906800  0.49077500  1
  H  641  1  0.74074900  0.84527900  0.48038100  1
  H  644  1  0.74371000  0.94552400  0.62599000  1
  H  645  1  0.74618000  0.93686000  0.65222900  1
  H  647  1  0.77776500  0.80031800  0.52856100  1
  H  648  1  0.72287600  0.79740800  0.52934800  1
  H  650  1  0.73032700  0.91973900  0.53251900  1
  H  651  1  0.71146700  0.89500500  0.50004000  1
  H  653  1  0.76287700  0.85385100  0.66563500  1
  H  654  1  0.79665800  0.82581800  0.65257900  1
  H  656  1  0.89612600  0.84819400  0.57856200  1
  H  657  1  0.91409500  0.87109400  0.61145100  1
  H  659  1  0.59442900  0.84645800  0.58511100  1
  H  660  1  0.57608000  0.87088100  0.61738200  1
  H  673  1  0.83462300  0.83771100  0.40758000  1
  H  674  1  0.72257800  0.99094800  0.51186900  1
  H  676  1  0.80438700  0.92195700  0.40575200  1
  H  678  1  0.79769200  0.91412500  0.51753600  1
  H  691  1  0.83450000  0.44473900  0.03745300  1
  H  692  1  0.72261200  0.39577500  0.88416600  1
  H  694  1  0.80438700  0.35863900  0.95316200  1
  H  696  1  0.79773700  0.47828100  0.96099000  1
  H  709  1  0.83439000  0.46754600  0.43028800  1
  H  710  1  0.72260600  0.36327200  0.47935600  1
  H  712  1  0.80440200  0.46938600  0.51642400  1
  H  714  1  0.79771800  0.35754200  0.39683600  1
  H  727  1  0.33439800  0.99562900  0.50934100  1
  H  728  1  0.22256900  0.84231000  0.40502800  1
  H  730  1  0.30437300  0.91131400  0.51115200  1
  H  732  1  0.29772300  0.91909700  0.39931500  1
  H  745  1  0.33456300  0.38855200  0.87950300  1
  H  746  1  0.22261300  0.43755600  0.03278100  1
  H  748  1  0.30434800  0.47464800  0.96374400  1
  H  750  1  0.29771400  0.35505600  0.95596700  1
  H  763  1  0.33448800  0.36573600  0.48652800  1
  H  764  1  0.22256300  0.47008800  0.43761100  1
  H  766  1  0.30434800  0.36395300  0.40044100  1
  H  768  1  0.29771700  0.47574500  0.52010000  1
  H  781  1  0.94569600  0.95291200  0.26645200  1
  H  782  1  0.05280300  0.87324700  0.34475900  1
  H  784  1  0.92736500  0.86658800  0.26252300  1
  H  786  1  0.06950300  0.95803600  0.35004700  1
  H  799  1  0.94569000  0.18835400  0.92212100  1
  H  800  1  0.05270700  0.34634800  0.00180500  1
  H  802  1  0.92733400  0.27072900  0.00845600  1
  H  804  1  0.06953100  0.26684200  0.91705500  1
  H  817  1  0.94556500  0.60852200  0.68664800  1
  H  818  1  0.05270400  0.53030900  0.52869500  1
  H  820  1  0.92734900  0.61259300  0.60431800  1
  H  822  1  0.06952500  0.52507700  0.60821700  1
  H  835  1  0.44572500  0.88022900  0.65036700  1
  H  836  1  0.55297000  0.96013000  0.57232900  1
  H  838  1  0.42733500  0.96656100  0.65435900  1
  H  840  1  0.56958900  0.87521100  0.56682300  1
  H  853  1  0.44569400  0.64493300  0.99472300  1
  H  854  1  0.55281500  0.48696600  0.91500700  1
  H  856  1  0.42732500  0.56256100  0.90840500  1
  H  858  1  0.56951400  0.56645500  0.99981200  1
  H  871  1  0.44568700  0.22464900  0.23013900  1
  H  872  1  0.55269300  0.30298900  0.38813800  1
  H  874  1  0.42730300  0.22071700  0.31251800  1
  H  876  1  0.56950500  0.30822200  0.30862400  1
  H  889  1  0.04326700  0.87309400  0.64196000  1
  H  890  1  0.94379900  0.96809900  0.57779000  1
  H  892  1  0.06752300  0.96285300  0.65505100  1
  H  894  1  0.92102700  0.88016700  0.56373200  1
  H  907  1  0.04309300  0.64381200  0.00215400  1
  H  908  1  0.94356400  0.48466900  0.90689800  1
  H  910  1  0.06747900  0.56718100  0.91240600  1
  H  912  1  0.92096800  0.55837100  0.99500000  1
  H  925  1  0.04316500  0.23313200  0.23133800  1
  H  926  1  0.94368600  0.29716100  0.39050200  1
  H  928  1  0.06753500  0.22004600  0.30799500  1
  H  930  1  0.92098000  0.31137500  0.31671900  1
  H  943  1  0.54311700  0.96028200  0.27495700  1
  H  944  1  0.44383800  0.86514400  0.33903300  1
  H  946  1  0.56754300  0.87053700  0.26184400  1
  H  948  1  0.42098000  0.95309600  0.35320100  1
  H  961  1  0.54325700  0.18957400  0.91480800  1
  H  962  1  0.44380700  0.34873100  0.00996700  1
  H  964  1  0.56755000  0.26617400  0.00459300  1
  H  966  1  0.42099000  0.27492100  0.92200700  1
  H  979  1  0.54310400  0.60005300  0.68558500  1
  H  980  1  0.44354500  0.53624800  0.52646000  1
  H  982  1  0.56748100  0.61321600  0.60898100  1
  H  984  1  0.42093700  0.52181400  0.60013700  1
  H  997  1  0.84530900  0.79046900  0.09249700  1
  H  998  1  0.65733600  0.71388700  0.13494800  1
  H  1000  1  0.79807800  0.79614300  0.17359100  1
  H  1002  1  0.70432800  0.70894700  0.05265600  1
  H  1015  1  0.84528400  0.17679800  0.08453600  1
  H  1016  1  0.65742600  0.29589500  0.16121300  1
  H  1018  1  0.79810900  0.25223600  0.07888400  1
  H  1020  1  0.70438300  0.21851100  0.16610600  1
  H  1033  1  0.84552600  0.78263000  0.69812600  1
  H  1034  1  0.65746400  0.74018000  0.57917800  1
  H  1036  1  0.79809700  0.70154000  0.62287400  1
  H  1038  1  0.70435500  0.82247300  0.65658300  1
  H  1051  1  0.34539700  0.04281300  0.82438300  1
  H  1052  1  0.15730600  0.11929800  0.78189300  1
  H  1054  1  0.29816500  0.03709800  0.74327100  1
  H  1056  1  0.20437900  0.12430300  0.86419200  1
  H  1069  1  0.34539700  0.65642800  0.83225900  1
  H  1070  1  0.15735300  0.53743700  0.75574200  1
  H  1072  1  0.29814400  0.58103000  0.83796300  1
  H  1074  1  0.20436300  0.61477100  0.75077800  1
  H  1087  1  0.34528500  0.05071400  0.21864100  1
  H  1088  1  0.15743100  0.09318800  0.33775200  1
  H  1090  1  0.29813700  0.13182300  0.29407600  1
  H  1092  1  0.20436000  0.01089600  0.26037600  1
  C  1  1  0.74592100  0.86712500  0.32122700  1
  C  2  1  0.74274700  0.84236900  0.32199300  1
  C  3  1  0.74366400  0.81480800  0.27014800  1
  C  4  1  0.74657400  0.83915200  0.26851900  1
  C  5  1  0.74654900  0.83665600  0.24205900  1
  C  6  1  0.74252800  0.81092900  0.21774000  1
  C  7  1  0.73912200  0.78721400  0.22014000  1
  C  8  1  0.74048500  0.78905800  0.24589700  1
  C  9  1  0.73861500  0.84326600  0.34745500  1
  C  10  1  0.73722500  0.86842700  0.37214800  1
  C  11  1  0.74155300  0.89336900  0.37220500  1
  C  12  1  0.74582800  0.89228100  0.34667500  1
  C  13  1  0.78742100  0.88121800  0.29446000  1
  C  14  1  0.78730600  0.90780800  0.29742300  1
  C  15  1  0.70858400  0.90820000  0.29693800  1
  C  16  1  0.70748600  0.88164800  0.29400500  1
  C  17  1  0.67105000  0.92264300  0.30024900  1
  C  18  1  0.63262000  0.91116200  0.30094100  1
  C  19  1  0.63021300  0.88429600  0.29666600  1
  C  20  1  0.66789900  0.86997400  0.29335500  1
  C  21  1  0.82650200  0.86922600  0.29429800  1
  C  22  1  0.86464000  0.88332300  0.29811500  1
  C  23  1  0.86311100  0.91023100  0.30243800  1
  C  24  1  0.82524500  0.92198300  0.30124600  1
  C  37  1  0.74711400  0.86713200  0.29425700  1
  C  38  1  0.74824800  0.92240200  0.29858200  1
  C  41  1  0.74204900  0.81517200  0.29666400  1
  C  44  1  0.73953100  0.92013000  0.39841000  1
  C  47  1  0.73900800  0.80824900  0.19010900  1
  C  50  1  0.58940200  0.87244100  0.29821900  1
  C  53  1  0.90513900  0.87127000  0.29993200  1
  C  56  1  0.74590000  0.32894900  0.00797100  1
  C  57  1  0.74273300  0.35446700  0.03273400  1
  C  58  1  0.74367100  0.33016300  0.06027600  1
  C  59  1  0.74656900  0.30419400  0.03592500  1
  C  60  1  0.74654500  0.28022500  0.03841200  1
  C  61  1  0.74253600  0.28162300  0.06413500  1
  C  62  1  0.73913300  0.30773500  0.08785800  1
  C  63  1  0.74048900  0.33165200  0.08602300  1
  C  64  1  0.73860700  0.37903700  0.03184800  1
  C  65  1  0.73721900  0.37858200  0.00669200  1
  C  66  1  0.74153700  0.35370000  0.98174400  1
  C  67  1  0.74580400  0.32925200  0.98282200  1
  C  68  1  0.78739600  0.28808300  0.99385900  1
  C  69  1  0.78727400  0.26445700  0.96726700  1
  C  70  1  0.70855200  0.26359900  0.96687300  1
  C  71  1  0.70746200  0.28720200  0.99343800  1
  C  72  1  0.67100900  0.25247400  0.95243900  1
  C  73  1  0.63258600  0.26464700  0.96393000  1
  C  74  1  0.63019100  0.28722900  0.99080200  1
  C  75  1  0.66788100  0.29821900  0.00512600  1
  C  76  1  0.82648400  0.29991700  0.00583500  1
  C  77  1  0.86462200  0.28961800  0.99174400  1
  C  78  1  0.86308400  0.26703300  0.96483600  1
  C  79  1  0.82520800  0.25410800  0.95308300  1
  C  92  1  0.74709500  0.30196400  0.00795100  1
  C  93  1  0.74821100  0.25103700  0.95267100  1
  C  96  1  0.74204100  0.35632400  0.05992600  1
  C  99  1  0.73952000  0.35315500  0.95499000  1
  C  102  1  0.73902700  0.25666800  0.06680800  1
  C  105  1  0.58938600  0.30063900  0.00266700  1
  C  108  1  0.90512700  0.30347500  0.00379900  1
  C  111  1  0.74591000  0.55389700  0.54615300  1
  C  112  1  0.74272700  0.55314600  0.52064000  1
  C  113  1  0.74366700  0.60499200  0.54494600  1
  C  114  1  0.74656800  0.60660700  0.57091500  1
  C  115  1  0.74654500  0.63306200  0.59488600  1
  C  116  1  0.74253300  0.65738700  0.59349000  1
  C  117  1  0.73913000  0.65500200  0.56738000  1
  C  118  1  0.74044800  0.62925100  0.54346400  1
  C  119  1  0.73859800  0.52769000  0.49606700  1
  C  120  1  0.73724500  0.50298600  0.49651500  1
  C  121  1  0.74155000  0.50292000  0.52139700  1
  C  122  1  0.74582600  0.52844200  0.54584700  1
  C  123  1  0.78742600  0.58064800  0.58701100  1
  C  124  1  0.78732100  0.57767400  0.61063200  1
  C  125  1  0.70860400  0.57814600  0.61151500  1
  C  126  1  0.70748900  0.58110500  0.58791000  1
  C  127  1  0.67107500  0.57482200  0.62264300  1
  C  128  1  0.63264200  0.57414400  0.61048300  1
  C  129  1  0.63021600  0.57843900  0.58790500  1
  C  130  1  0.66789600  0.58177400  0.57690400  1
  C  131  1  0.82650200  0.58081500  0.57517700  1
  C  132  1  0.86464500  0.57698800  0.58544500  1
  C  133  1  0.86312600  0.57264000  0.60801500  1
  C  134  1  0.82526600  0.57383000  0.62096400  1
  C  147  1  0.74711200  0.58085900  0.57314000  1
  C  148  1  0.74827200  0.57649100  0.62406000  1
  C  151  1  0.74204000  0.57848300  0.51878600  1
  C  154  1  0.73953800  0.47670600  0.52193600  1
  C  157  1  0.73902900  0.68501400  0.61844900  1
  C  160  1  0.58940500  0.57687500  0.57449300  1
  C  163  1  0.90514100  0.57518600  0.57157900  1
  C  166  1  0.24590000  0.96615400  0.59565000  1
  C  167  1  0.24274900  0.99091200  0.59488800  1
  C  168  1  0.24369900  0.01846600  0.64673200  1
  C  169  1  0.24658200  0.99411900  0.64835900  1
  C  170  1  0.24656300  0.99661000  0.67481600  1
  C  171  1  0.24257500  0.02233700  0.69913900  1
  C  172  1  0.23918200  0.04605500  0.69674200  1
  C  173  1  0.24049900  0.04421100  0.67098500  1
  C  174  1  0.23864900  0.99002100  0.56942600  1
  C  175  1  0.23725100  0.96486500  0.54473200  1
  C  176  1  0.24153200  0.93991800  0.54467200  1
  C  177  1  0.24578200  0.94099900  0.57019900  1
  C  178  1  0.28739000  0.95203900  0.62240100  1
  C  179  1  0.28725000  0.92544600  0.61943300  1
  C  180  1  0.20853200  0.92508400  0.61993600  1
  C  181  1  0.20745400  0.95164100  0.62287800  1
  C  182  1  0.17098300  0.91066300  0.61664700  1
  C  183  1  0.13256800  0.92215200  0.61594000  1
  C  184  1  0.13018300  0.94902000  0.62021600  1
  C  185  1  0.16787900  0.96333400  0.62354300  1
  C  186  1  0.32648400  0.96401000  0.62254600  1
  C  187  1  0.36461500  0.94991300  0.61875600  1
  C  188  1  0.36306100  0.92300000  0.61441700  1
  C  189  1  0.32517300  0.91124500  0.61556600  1
  C  202  1  0.24709600  0.96614000  0.62261700  1
  C  203  1  0.24818200  0.91086200  0.61827400  1
  C  206  1  0.24207700  0.01810600  0.62021800  1
  C  209  1  0.23950200  0.91316000  0.51846400  1
  C  212  1  0.23908200  0.02501600  0.72676900  1
  C  215  1  0.08938400  0.96087100  0.61864000  1
  C  218  1  0.40513100  0.96197300  0.61698300  1
  C  221  1  0.24589400  0.50435600  0.90893000  1
  C  222  1  0.24271500  0.47883900  0.88417000  1
  C  223  1  0.24368000  0.50313500  0.85662000  1
  C  224  1  0.24659100  0.52910600  0.88096900  1
  C  225  1  0.24658500  0.55307300  0.87847800  1
  C  226  1  0.24257800  0.55167200  0.85275400  1
  C  227  1  0.23916300  0.52555900  0.82903500  1
  C  228  1  0.24048000  0.50164500  0.83087400  1
  C  229  1  0.23856200  0.45427100  0.88506000  1
  C  230  1  0.23720800  0.45472700  0.91021500  1
  C  231  1  0.24151300  0.47961100  0.93516100  1
  C  232  1  0.24579100  0.50405700  0.93408300  1
  C  233  1  0.28743100  0.54520600  0.92303400  1
  C  234  1  0.28732200  0.56883000  0.94962500  1
  C  235  1  0.20860600  0.56972600  0.95002200  1
  C  236  1  0.20749500  0.54611700  0.92346300  1
  C  237  1  0.17107600  0.58085600  0.96447100  1
  C  238  1  0.13264000  0.56870500  0.95298100  1
  C  239  1  0.13022400  0.54611600  0.92611400  1
  C  240  1  0.16790400  0.53511800  0.91177800  1
  C  241  1  0.32650500  0.53335900  0.91104600  1
  C  242  1  0.36465200  0.54365000  0.92512600  1
  C  243  1  0.36313600  0.56623000  0.95203900  1
  C  244  1  0.32526300  0.57914800  0.96381000  1
  C  257  1  0.24711700  0.53133800  0.90894500  1
  C  258  1  0.24827200  0.58227100  0.96422500  1
  C  261  1  0.24203300  0.47697900  0.85697700  1
  C  264  1  0.23949000  0.48015700  0.96191800  1
  C  267  1  0.23907600  0.57662500  0.85007900  1
  C  270  1  0.08940600  0.53270600  0.91427900  1
  C  273  1  0.40515300  0.52980000  0.91305000  1
  C  276  1  0.24588500  0.27945100  0.37076600  1
  C  277  1  0.24271200  0.28021100  0.39628500  1
  C  278  1  0.24365900  0.22836400  0.37198700  1
  C  279  1  0.24657300  0.22674200  0.34601700  1
  C  280  1  0.24657600  0.20028500  0.32205000  1
  C  281  1  0.24255300  0.17596300  0.32345300  1
  C  282  1  0.23915100  0.17835500  0.34956500  1
  C  283  1  0.24047400  0.20410800  0.37347800  1
  C  284  1  0.23857800  0.30566800  0.42085300  1
  C  285  1  0.23718300  0.33036700  0.42039600  1
  C  286  1  0.24150100  0.33042800  0.39551000  1
  C  287  1  0.24577600  0.30490400  0.37106700  1
  C  288  1  0.28739700  0.25270500  0.32990800  1
  C  289  1  0.28727500  0.25566900  0.30628100  1
  C  290  1  0.20855700  0.25517700  0.30540300  1
  C  291  1  0.20746700  0.25222600  0.32901300  1
  C  292  1  0.17101700  0.25849600  0.29428300  1
  C  293  1  0.13259300  0.25917000  0.30645000  1
  C  294  1  0.13019300  0.25488500  0.32903500  1
  C  295  1  0.16788200  0.25154700  0.34002400  1
  C  296  1  0.32648100  0.25256000  0.34174500  1
  C  297  1  0.36462100  0.25634200  0.33144200  1
  C  298  1  0.36308900  0.26067700  0.30886400  1
  C  299  1  0.32521000  0.25953200  0.29595300  1
  C  312  1  0.24709200  0.25248600  0.34378500  1
  C  313  1  0.24821600  0.25683300  0.29285000  1
  C  316  1  0.24203300  0.25487800  0.39814500  1
  C  319  1  0.23948100  0.35663800  0.39496400  1
  C  322  1  0.23905700  0.14833300  0.29849800  1
  C  325  1  0.08938700  0.25644000  0.34245000  1
  C  328  1  0.40513100  0.25811800  0.34528400  1
  C  331  1  0.24282700  0.51419500  0.61036300  1
  C  332  1  0.24465500  0.49234300  0.61610400  1
  C  333  1  0.25161900  0.52605400  0.66682900  1
  C  334  1  0.24794500  0.54849000  0.66208100  1
  C  335  1  0.25079700  0.57551000  0.68507200  1
  C  336  1  0.25917200  0.58052700  0.71190600  1
  C  337  1  0.26491600  0.55769300  0.71552600  1
  C  338  1  0.25984100  0.53090500  0.69355500  1
  C  339  1  0.24351200  0.46483500  0.59440100  1
  C  340  1  0.24104300  0.45869800  0.56703600  1
  C  341  1  0.23921600  0.47990800  0.56063400  1
  C  342  1  0.23994100  0.50739600  0.58240600  1
  C  343  1  0.20522500  0.55748200  0.63149100  1
  C  344  1  0.20575500  0.57815500  0.62404000  1
  C  345  1  0.28445500  0.57648300  0.62167000  1
  C  346  1  0.28487800  0.55535800  0.62846600  1
  C  347  1  0.32246800  0.58742800  0.61869200  1
  C  348  1  0.36072000  0.57860900  0.62364700  1
  C  349  1  0.36208400  0.55786900  0.63072300  1
  C  350  1  0.32413900  0.54588100  0.63203300  1
  C  351  1  0.16616600  0.54978900  0.63747700  1
  C  352  1  0.12845900  0.56250400  0.63693500  1
  C  353  1  0.12990000  0.58267100  0.62907700  1
  C  354  1  0.16796900  0.59021700  0.62250200  1
  C  367  1  0.24496300  0.54389000  0.63312800  1
  C  368  1  0.24504700  0.58816600  0.61822500  1
  C  371  1  0.24920000  0.49714500  0.64436000  1
  C  374  1  0.23719500  0.47270500  0.53140400  1
  C  377  1  0.26501200  0.60895900  0.73550500  1
  C  380  1  0.40189900  0.55084600  0.63941300  1
  C  383  1  0.08855300  0.55643900  0.64639300  1
  C  386  1  0.24285500  0.26474200  0.90412200  1
  C  387  1  0.24469500  0.25901300  0.87653300  1
  C  388  1  0.25167500  0.20828600  0.85950000  1
  C  389  1  0.24796400  0.21302000  0.88667700  1
  C  390  1  0.25078200  0.19002200  0.89069500  1
  C  391  1  0.25919400  0.16319300  0.86887500  1
  C  392  1  0.26497800  0.15958900  0.84243000  1
  C  393  1  0.25992200  0.18156700  0.83762200  1
  C  394  1  0.24355300  0.28072400  0.87073900  1
  C  395  1  0.24109000  0.30808500  0.89197500  1
  C  396  1  0.23924400  0.31447700  0.91958400  1
  C  397  1  0.23996000  0.29269600  0.92528800  1
  C  398  1  0.20521900  0.24359900  0.92625100  1
  C  399  1  0.20572000  0.25103400  0.95437000  1
  C  400  1  0.28442400  0.25339300  0.95509300  1
  C  401  1  0.28487200  0.24661900  0.92717900  1
  C  402  1  0.32242100  0.25635000  0.96902600  1
  C  403  1  0.36068600  0.25139600  0.95526300  1
  C  404  1  0.36207800  0.24434700  0.92745500  1
  C  405  1  0.32414600  0.24305600  0.91414900  1
  C  406  1  0.16617300  0.23761900  0.91255700  1
  C  407  1  0.12845200  0.23813900  0.92579400  1
  C  408  1  0.12986300  0.24599300  0.95381800  1
  C  409  1  0.16792200  0.25256700  0.96795400  1
  C  422  1  0.24497200  0.24196800  0.91103900  1
  C  423  1  0.24500000  0.25683300  0.97020700  1
  C  426  1  0.24927500  0.23076300  0.85307200  1
  C  429  1  0.23720500  0.34370200  0.94161800  1
  C  432  1  0.26501500  0.13958500  0.87369800  1
  C  435  1  0.40189900  0.23565500  0.91175300  1
  C  438  1  0.08856500  0.22867200  0.91025300  1
  C  441  1  0.24284600  0.97097200  0.36090100  1
  C  442  1  0.24468300  0.99856200  0.38276400  1
  C  443  1  0.25164700  0.01559900  0.34907100  1
  C  444  1  0.24795200  0.98842200  0.32662600  1
  C  445  1  0.25079700  0.98440500  0.29961200  1
  C  446  1  0.25915900  0.00622900  0.29460200  1
  C  447  1  0.26494100  0.03267300  0.31744800  1
  C  448  1  0.25985400  0.03748100  0.34423300  1
  C  449  1  0.24355900  0.00434900  0.41026500  1
  C  450  1  0.24109600  0.98311200  0.41638900  1
  C  451  1  0.23924700  0.95550600  0.39516900  1
  C  452  1  0.23995700  0.94980400  0.36768600  1
  C  453  1  0.20521600  0.94884300  0.31762700  1
  C  454  1  0.20572700  0.92072300  0.29694200  1
  C  455  1  0.28443000  0.92000800  0.29858600  1
  C  456  1  0.28487200  0.94792400  0.31972500  1
  C  457  1  0.32243000  0.90607800  0.28762000  1
  C  458  1  0.36069200  0.91984600  0.29642200  1
  C  459  1  0.36207100  0.94765500  0.31718000  1
  C  460  1  0.32413900  0.96095700  0.32919700  1
  C  461  1  0.16616600  0.96253100  0.32533700  1
  C  462  1  0.12845200  0.94929200  0.31261600  1
  C  463  1  0.12987200  0.92127000  0.29243900  1
  C  464  1  0.16793200  0.90713200  0.28489300  1
  C  477  1  0.24496300  0.96405900  0.33121100  1
  C  478  1  0.24501300  0.90489300  0.28690500  1
  C  481  1  0.24925300  0.02202200  0.37797400  1
  C  484  1  0.23721700  0.93346900  0.40235800  1
  C  487  1  0.26500600  0.00141300  0.26617800  1
  C  490  1  0.40189000  0.96336200  0.32419600  1
  C  493  1  0.08855900  0.96482800  0.31867400  1
  C  496  1  0.74284600  0.31907400  0.30653900  1
  C  497  1  0.74469300  0.34093100  0.30080300  1
  C  498  1  0.75165800  0.30722500  0.25007800  1
  C  499  1  0.74796300  0.28478500  0.25481800  1
  C  500  1  0.75081600  0.25776900  0.23182600  1
  C  501  1  0.75918600  0.25275300  0.20499300  1
  C  502  1  0.76496100  0.27559100  0.20138100  1
  C  503  1  0.75988600  0.30237900  0.22335300  1
  C  504  1  0.74356400  0.36843700  0.32250800  1
  C  505  1  0.74109100  0.37456900  0.34987200  1
  C  506  1  0.73923700  0.35335900  0.35627000  1
  C  507  1  0.73995000  0.32587200  0.33449600  1
  C  508  1  0.70521900  0.27580100  0.28540400  1
  C  509  1  0.70572300  0.25512300  0.29284900  1
  C  510  1  0.78442700  0.25676000  0.29520400  1
  C  511  1  0.78487300  0.27790000  0.28842900  1
  C  512  1  0.82242600  0.24579600  0.29817500  1
  C  513  1  0.86068800  0.25459300  0.29320500  1
  C  514  1  0.86207000  0.27534700  0.28614900  1
  C  515  1  0.82414600  0.28737700  0.28487800  1
  C  516  1  0.66617500  0.28349600  0.27940600  1
  C  517  1  0.62845400  0.27079300  0.27994500  1
  C  518  1  0.62986800  0.25063400  0.28781600  1
  C  519  1  0.66792700  0.24307700  0.29439300  1
  C  532  1  0.74497000  0.28938100  0.28377000  1
  C  533  1  0.74500800  0.24508400  0.29864200  1
  C  536  1  0.74927500  0.33613200  0.27254900  1
  C  539  1  0.73720700  0.36055900  0.38549800  1
  C  542  1  0.76503200  0.22432400  0.18138600  1
  C  545  1  0.90189300  0.28235500  0.27745200  1
  C  548  1  0.58856400  0.27684600  0.27046100  1
  C  551  1  0.74283600  0.56854300  0.01280600  1
  C  552  1  0.74467000  0.57428200  0.04039900  1
  C  553  1  0.75162200  0.62500800  0.05741500  1
  C  554  1  0.74796000  0.62026100  0.03023100  1
  C  555  1  0.75082200  0.64325000  0.02620200  1
  C  556  1  0.75916400  0.67008800  0.04802300  1
  C  557  1  0.76490700  0.67370700  0.07447700  1
  C  558  1  0.75987100  0.65172900  0.07928700  1
  C  559  1  0.74353200  0.55257900  0.04620300  1
  C  560  1  0.74106200  0.52521300  0.02497300  1
  C  561  1  0.73923000  0.51881200  0.99736000  1
  C  562  1  0.73994300  0.54058700  0.99164700  1
  C  563  1  0.70523600  0.58967400  0.99065100  1
  C  564  1  0.70576100  0.58222500  0.96252900  1
  C  565  1  0.78446500  0.57985400  0.96182700  1
  C  566  1  0.78489000  0.58664400  0.98974600  1
  C  567  1  0.82247500  0.57687500  0.94790000  1
  C  568  1  0.86073000  0.58183000  0.96167400  1
  C  569  1  0.86208900  0.58891900  0.98949400  1
  C  570  1  0.82415200  0.59020200  0.00278700  1
  C  571  1  0.66617800  0.59565900  0.00433200  1
  C  572  1  0.62847300  0.59513800  0.99108200  1
  C  573  1  0.62991400  0.58729000  0.96305900  1
  C  574  1  0.66797700  0.58068300  0.94892700  1
  C  587  1  0.74497400  0.59130800  0.00587600  1
  C  588  1  0.74505600  0.57642100  0.94670300  1
  C  591  1  0.74922300  0.60253800  0.06385400  1
  C  594  1  0.73721600  0.48958400  0.97533400  1
  C  597  1  0.76498800  0.69369400  0.04319800  1
  C  600  1  0.90189500  0.59763400  0.00521500  1
  C  603  1  0.58857300  0.60461900  0.00660800  1
  C  606  1  0.74285900  0.86229900  0.55600900  1
  C  607  1  0.74470300  0.83470700  0.53415800  1
  C  608  1  0.75166700  0.81769300  0.56786800  1
  C  609  1  0.74799500  0.84487600  0.59030500  1
  C  610  1  0.75085100  0.84890800  0.61732400  1
  C  611  1  0.75919000  0.82709000  0.62234600  1
  C  612  1  0.76495000  0.80063700  0.59951200  1
  C  613  1  0.75991700  0.79582400  0.57272200  1
  C  614  1  0.74355600  0.82890100  0.50664900  1
  C  615  1  0.74108200  0.85013000  0.50051200  1
  C  616  1  0.73922900  0.87774100  0.52172300  1
  C  617  1  0.73996000  0.88345700  0.54921000  1
  C  618  1  0.70523000  0.88443500  0.59928200  1
  C  619  1  0.70572100  0.91256000  0.61995600  1
  C  620  1  0.78442400  0.91329900  0.61831100  1
  C  621  1  0.78488300  0.88538000  0.59718300  1
  C  622  1  0.82241600  0.92724800  0.62926300  1
  C  623  1  0.86068400  0.91348200  0.62048500  1
  C  624  1  0.86207800  0.88566300  0.59975100  1
  C  625  1  0.82416100  0.87235500  0.58771500  1
  C  626  1  0.66619000  0.87073400  0.59157500  1
  C  627  1  0.62846700  0.88397000  0.60428400  1
  C  628  1  0.62986500  0.91199700  0.62444900  1
  C  629  1  0.66791800  0.92613900  0.63200500  1
  C  642  1  0.74498700  0.86922900  0.58570400  1
  C  643  1  0.74499700  0.92840400  0.62998600  1
  C  646  1  0.74927200  0.81125400  0.53896000  1
  C  649  1  0.73718500  0.89976700  0.51452000  1
  C  652  1  0.76502000  0.83191800  0.65077600  1
  C  655  1  0.90190600  0.86996800  0.59278000  1
  C  658  1  0.58858300  0.86842700  0.59821400  1
  C  661  1  0.77646200  0.91955300  0.43711400  1
  C  662  1  0.79291300  0.89471900  0.43367200  1
  C  663  1  0.79236000  0.88907900  0.45520000  1
  C  664  1  0.77636400  0.90777900  0.48137800  1
  C  665  1  0.76099600  0.93295300  0.48506400  1
  C  666  1  0.76109100  0.93844300  0.46343500  1
  C  669  1  0.81997200  0.85598500  0.41971700  1
  C  672  1  0.73552900  0.97214500  0.49936400  1
  C  679  1  0.77651000  0.39241400  0.95555600  1
  C  680  1  0.79297300  0.41380600  0.98038900  1
  C  681  1  0.79243800  0.44097100  0.98602000  1
  C  682  1  0.77645400  0.44844800  0.96731900  1
  C  683  1  0.76108700  0.42695900  0.94214300  1
  C  684  1  0.76116500  0.39984200  0.93665800  1
  C  687  1  0.81993600  0.43859200  0.01915000  1
  C  690  1  0.73562400  0.40206600  0.90295000  1
  C  697  1  0.77649500  0.43800300  0.48266600  1
  C  698  1  0.79294600  0.44142900  0.46126200  1
  C  699  1  0.79241600  0.41988200  0.43410200  1
  C  700  1  0.77640600  0.39371300  0.42664100  1
  C  701  1  0.76104900  0.39004100  0.44813900  1
  C  702  1  0.76114100  0.41168200  0.47525200  1
  C  705  1  0.82000600  0.45535800  0.43646400  1
  C  708  1  0.73560700  0.37576100  0.47305500  1
  C  715  1  0.27651000  0.91370000  0.47976400  1
  C  716  1  0.29298800  0.93852500  0.48319300  1
  C  717  1  0.29246500  0.94414500  0.46165300  1
  C  718  1  0.27643500  0.92545300  0.43548500  1
  C  719  1  0.26105200  0.90028500  0.43180900  1
  C  720  1  0.26113600  0.89480600  0.45344300  1
  C  723  1  0.32010800  0.97723600  0.49712500  1
  C  726  1  0.23554800  0.86110600  0.41752600  1
  C  733  1  0.27643200  0.44088500  0.96135300  1
  C  734  1  0.29287600  0.41948600  0.93651800  1
  C  735  1  0.29233700  0.39232300  0.93089200  1
  C  736  1  0.27636300  0.38485500  0.94960500  1
  C  737  1  0.26099900  0.40634900  0.97477800  1
  C  738  1  0.26108300  0.43346300  0.98025600  1
  C  741  1  0.31992100  0.39469800  0.89778300  1
  C  744  1  0.23555200  0.43125200  0.01397200  1
  C  751  1  0.27647500  0.39532800  0.43422500  1
  C  752  1  0.29294500  0.39188000  0.45560900  1
  C  753  1  0.29241500  0.41340800  0.48277800  1
  C  754  1  0.27642600  0.43958900  0.49026300  1
  C  755  1  0.26105500  0.44328200  0.46878000  1
  C  756  1  0.26112700  0.42165500  0.44166000  1
  C  759  1  0.31992100  0.37789500  0.48038600  1
  C  762  1  0.23558000  0.45759000  0.44389600  1
  C  769  1  0.96969600  0.89102000  0.29196400  1
  C  770  1  0.97124300  0.91301300  0.28656700  1
  C  771  1  0.00027300  0.93420600  0.29969700  1
  C  772  1  0.03094800  0.93428800  0.31776600  1
  C  773  1  0.03076800  0.91147500  0.32193800  1
  C  774  1  0.00101400  0.89068100  0.30941300  1
  C  777  1  0.95905200  0.94267100  0.27521100  1
  C  780  1  0.04083000  0.88280900  0.33490600  1
  C  787  1  0.96967300  0.27575300  0.98403700  1
  C  788  1  0.97121200  0.24836900  0.96203200  1
  C  789  1  0.00026100  0.24031200  0.94084800  1
  C  790  1  0.03094800  0.25829900  0.94078300  1
  C  791  1  0.03074600  0.28528400  0.96359700  1
  C  792  1  0.00101700  0.29353800  0.98440100  1
  C  795  1  0.95901700  0.20736200  0.93235600  1
  C  798  1  0.04094500  0.32687800  0.99235100  1
  C  805  1  0.96970100  0.58316100  0.59930000  1
  C  806  1  0.97125500  0.58855100  0.62668700  1
  C  807  1  0.00031700  0.57543600  0.63474900  1
  C  808  1  0.03096400  0.55735200  0.61674700  1
  C  809  1  0.03079300  0.55320300  0.58977300  1
  C  810  1  0.00101700  0.56571400  0.58150600  1
  C  813  1  0.95904300  0.59987300  0.66769200  1
  C  816  1  0.04095400  0.54033200  0.54816700  1
  C  823  1  0.46965900  0.94216100  0.62489700  1
  C  824  1  0.47115700  0.92011400  0.63021300  1
  C  825  1  0.50023500  0.89894800  0.61710400  1
  C  826  1  0.53089700  0.89889400  0.59904600  1
  C  827  1  0.53075100  0.92174300  0.59493200  1
  C  828  1  0.50097900  0.94252300  0.60746000  1
  C  831  1  0.45907400  0.89048200  0.64162000  1
  C  834  1  0.54091900  0.95050300  0.58209700  1
  C  841  1  0.46969400  0.55753600  0.93280900  1
  C  842  1  0.47124400  0.58492400  0.95480600  1
  C  843  1  0.50028100  0.59298200  0.97599500  1
  C  844  1  0.53095900  0.57499500  0.97606900  1
  C  845  1  0.53077600  0.54801200  0.95325100  1
  C  846  1  0.50101900  0.53974700  0.93246000  1
  C  849  1  0.45905200  0.62593700  0.98447500  1
  C  852  1  0.54084100  0.50638100  0.92457500  1
  C  859  1  0.46966200  0.25015000  0.31754500  1
  C  860  1  0.47120700  0.24476800  0.29016000  1
  C  861  1  0.50025000  0.25789100  0.28209900  1
  C  862  1  0.53093800  0.27594600  0.30008500  1
  C  863  1  0.53073200  0.28012400  0.32707300  1
  C  864  1  0.50100400  0.26757600  0.33533000  1
  C  867  1  0.45901200  0.23342700  0.24914900  1
  C  870  1  0.54093100  0.29297200  0.36866800  1
  C  877  1  0.02364400  0.94173500  0.62537900  1
  C  878  1  0.02075500  0.91797200  0.62783600  1
  C  879  1  0.99091400  0.89779500  0.61310800  1
  C  880  1  0.96086900  0.90045200  0.59621000  1
  C  881  1  0.96242400  0.92494800  0.59498100  1
  C  882  1  0.99298600  0.94476200  0.60909100  1
  C  885  1  0.03078000  0.88518700  0.63500700  1
  C  888  1  0.95454900  0.95680700  0.58614900  1
  C  895  1  0.02367900  0.55855600  0.93351300  1
  C  896  1  0.02084600  0.58473600  0.95733400  1
  C  897  1  0.99099600  0.59015600  0.97750000  1
  C  898  1  0.96094200  0.57059200  0.97480000  1
  C  899  1  0.96248300  0.54489100  0.95027300  1
  C  900  1  0.99303400  0.53922300  0.93045900  1
  C  903  1  0.03073600  0.62472000  0.99009900  1
  C  906  1  0.95461300  0.50422400  0.91836900  1
  C  913  1  0.02365700  0.24972400  0.31657500  1
  C  914  1  0.02077400  0.24729700  0.29036800  1
  C  915  1  0.99094700  0.26205300  0.28494500  1
  C  916  1  0.96086400  0.27891000  0.30449200  1
  C  917  1  0.96243400  0.28012100  0.33020900  1
  C  918  1  0.99298200  0.26598500  0.33589200  1
  C  921  1  0.03077400  0.24014900  0.25041800  1
  C  924  1  0.95466000  0.28900100  0.37092200  1
  C  931  1  0.52367100  0.89161900  0.29153100  1
  C  932  1  0.52078200  0.91540900  0.28912100  1
  C  933  1  0.49094800  0.93558000  0.30388300  1
  C  934  1  0.46087100  0.93287700  0.32073500  1
  C  935  1  0.46247700  0.90837300  0.32195000  1
  C  936  1  0.49299300  0.88854400  0.30777600  1
  C  939  1  0.53076000  0.94822300  0.28198900  1
  C  942  1  0.45458500  0.87646100  0.33070100  1
  C  949  1  0.52365300  0.27476300  0.98351400  1
  C  950  1  0.52075700  0.24855700  0.95973400  1
  C  951  1  0.49090700  0.24312900  0.93956500  1
  C  952  1  0.46086100  0.26269400  0.94225000  1
  C  953  1  0.46242100  0.28840600  0.96676400  1
  C  954  1  0.49299300  0.29408700  0.98656800  1
  C  957  1  0.53077300  0.20861400  0.92691600  1
  C  960  1  0.45455400  0.32908200  0.99865400  1
  C  967  1  0.52368100  0.58348100  0.60034600  1
  C  968  1  0.52085100  0.58582600  0.62651900  1
  C  969  1  0.49099800  0.57107700  0.63193200  1
  C  970  1  0.46093600  0.55422600  0.61236900  1
  C  971  1  0.46247400  0.55306300  0.58667200  1
  C  972  1  0.49303100  0.56721300  0.58101200  1
  C  975  1  0.53074500  0.59302400  0.66649500  1
  C  978  1  0.45459700  0.54432300  0.54601300  1
  C  985  1  0.75771600  0.77229300  0.14264500  1
  C  986  1  0.77985200  0.77379900  0.12168300  1
  C  987  1  0.77118600  0.75583400  0.09396200  1
  C  988  1  0.74001900  0.73545600  0.08520900  1
  C  989  1  0.71663800  0.73470600  0.10613200  1
  C  990  1  0.72616000  0.75210400  0.13382200  1
  C  993  1  0.82153200  0.78216100  0.09800600  1
  C  996  1  0.67866800  0.72380800  0.12955400  1
  C  1003  1  0.75776900  0.24518200  0.10277800  1
  C  1004  1  0.77992500  0.22272300  0.10128300  1
  C  1005  1  0.77125900  0.21296100  0.11924400  1
  C  1006  1  0.74009000  0.22457900  0.13962100  1
  C  1007  1  0.71677100  0.24629000  0.14040600  1
  C  1008  1  0.72620800  0.25654000  0.12296300  1
  C  1011  1  0.82160500  0.19068100  0.09291600  1
  C  1014  1  0.67857200  0.28048000  0.15117800  1
  C  1021  1  0.75771700  0.73247700  0.62995200  1
  C  1022  1  0.77984400  0.75344200  0.65242500  1
  C  1023  1  0.77115500  0.78116400  0.66219800  1
  C  1024  1  0.74003400  0.78991800  0.65054400  1
  C  1025  1  0.71665100  0.76899100  0.62887600  1
  C  1026  1  0.72618600  0.74130400  0.61857300  1
  C  1029  1  0.82152000  0.77712000  0.68447000  1
  C  1032  1  0.67855600  0.74556300  0.59462300  1
  C  1039  1  0.25783000  0.06098600  0.77422200  1
  C  1040  1  0.27998700  0.05950300  0.79518800  1
  C  1041  1  0.27128200  0.07744900  0.82290900  1
  C  1042  1  0.24013100  0.09783600  0.83165500  1
  C  1043  1  0.21675700  0.09858200  0.81072800  1
  C  1044  1  0.22630800  0.08119700  0.78304000  1
  C  1047  1  0.32152100  0.05105100  0.81887200  1
  C  1050  1  0.17871300  0.10942500  0.78729600  1
  C  1057  1  0.25777400  0.58812700  0.81411700  1
  C  1058  1  0.27991900  0.61058900  0.81561500  1
  C  1059  1  0.27124800  0.62034300  0.79764800  1
  C  1060  1  0.24006600  0.60872400  0.77727900  1
  C  1061  1  0.21667900  0.58705700  0.77653800  1
  C  1062  1  0.22620900  0.57676600  0.79393800  1
  C  1065  1  0.32161100  0.64261700  0.82396000  1
  C  1068  1  0.17869400  0.55274900  0.76565700  1
  C  1075  1  0.25778700  0.10088000  0.28702800  1
  C  1076  1  0.27993700  0.07991000  0.26457100  1
  C  1077  1  0.27125800  0.05219000  0.25481400  1
  C  1078  1  0.24008500  0.04344100  0.26643800  1
  C  1079  1  0.21677200  0.06437300  0.28814800  1
  C  1080  1  0.22622100  0.09206300  0.29839200  1
  C  1083  1  0.32160800  0.05622500  0.23252900  1
  C  1086  1  0.17857900  0.08780100  0.32233700  1
  N  667  1  0.80968000  0.86451500  0.44590600  1
  N  670  1  0.74486000  0.96334200  0.47297500  1
  N  675  1  0.77673500  0.92661000  0.41630900  1
  N  677  1  0.77767000  0.90102900  0.50238100  1
  N  685  1  0.80967700  0.45625100  0.01061200  1
  N  688  1  0.74492300  0.38448500  0.91176400  1
  N  693  1  0.77674600  0.36455500  0.94850800  1
  N  695  1  0.77771900  0.47620400  0.97407900  1
  N  703  1  0.80966400  0.42917500  0.41881200  1
  N  706  1  0.74491500  0.40215600  0.49062300  1
  N  711  1  0.77675700  0.45882100  0.51052100  1
  N  713  1  0.77769700  0.37269700  0.39888900  1
  N  721  1  0.30972500  0.96872900  0.47095200  1
  N  724  1  0.24487900  0.86991500  0.44391500  1
  N  729  1  0.27673400  0.90666500  0.50058300  1
  N  731  1  0.27771800  0.93220100  0.41448000  1
  N  739  1  0.30964700  0.37704600  0.90632700  1
  N  742  1  0.24486300  0.44882900  0.00515700  1
  N  747  1  0.27670000  0.46874400  0.96839900  1
  N  749  1  0.27768300  0.35710500  0.94286700  1
  N  757  1  0.30966000  0.40409100  0.49804900  1
  N  760  1  0.24487900  0.43119700  0.42630900  1
  N  765  1  0.27670600  0.37452200  0.40636300  1
  N  767  1  0.27769600  0.46058000  0.51802200  1
  N  775  1  0.99161700  0.95279700  0.29238000  1
  N  778  1  0.00791000  0.87288500  0.31801900  1
  N  783  1  0.93876300  0.87023300  0.28110600  1
  N  785  1  0.05659800  0.95764200  0.33314300  1
  N  793  1  0.99160700  0.21440500  0.92224800  1
  N  796  1  0.00792900  0.31993400  0.00221500  1
  N  801  1  0.93874100  0.28567400  0.00482600  1
  N  803  1  0.05661100  0.25033000  0.91743900  1
  N  811  1  0.99159900  0.58269400  0.66063500  1
  N  814  1  0.00793800  0.55714000  0.55511400  1
  N  819  1  0.93875700  0.59401600  0.58937600  1
  N  821  1  0.05660500  0.54197400  0.62472800  1
  N  829  1  0.49162000  0.88035900  0.62443100  1
  N  832  1  0.50796500  0.96039300  0.59896000  1
  N  837  1  0.43874500  0.96295900  0.63579300  1
  N  839  1  0.55664700  0.87558500  0.58371000  1
  N  847  1  0.49162300  0.61888800  0.99459200  1
  N  850  1  0.50791200  0.51334700  0.91465900  1
  N  855  1  0.43875400  0.54761200  0.91202300  1
  N  857  1  0.55661000  0.58296600  0.99941900  1
  N  865  1  0.49160200  0.25057800  0.25619100  1
  N  868  1  0.50791800  0.27616200  0.36172500  1
  N  873  1  0.43873200  0.23928500  0.32746800  1
  N  875  1  0.55660000  0.29132000  0.29211200  1
  N  883  1  0.99825100  0.87717200  0.61773800  1
  N  886  1  0.98755300  0.96458900  0.60303500  1
  N  891  1  0.05596900  0.96137800  0.63734000  1
  N  893  1  0.93406500  0.87828300  0.57938700  1
  N  901  1  0.99823000  0.61543700  0.99810300  1
  N  904  1  0.98754200  0.51337600  0.91057200  1
  N  909  1  0.05596000  0.55091900  0.91384700  1
  N  911  1  0.93403200  0.57591500  0.99691400  1
  N  919  1  0.99823000  0.25740500  0.25968000  1
  N  922  1  0.98758000  0.27204400  0.36177800  1
  N  927  1  0.05597900  0.23774800  0.32424000  1
  N  929  1  0.93403500  0.29574100  0.29917400  1
  N  937  1  0.49821100  0.95620300  0.29923900  1
  N  940  1  0.48758600  0.86870200  0.31381300  1
  N  945  1  0.55599000  0.87197700  0.27953700  1
  N  947  1  0.43403400  0.95501900  0.33757300  1
  N  955  1  0.49824200  0.21788600  0.91892200  1
  N  958  1  0.48756400  0.31996100  0.00641500  1
  N  963  1  0.55598400  0.28242400  0.00314800  1
  N  965  1  0.43404400  0.25737400  0.92009400  1
  N  973  1  0.49823600  0.57574100  0.65720800  1
  N  976  1  0.48753300  0.56126500  0.55516800  1
  N  981  1  0.55596200  0.59551500  0.59271400  1
  N  983  1  0.43401900  0.53743000  0.61768300  1
  N  991  1  0.79801600  0.76145900  0.07942700  1
  N  994  1  0.70188800  0.74467200  0.14816800  1
  N  999  1  0.76909200  0.78741000  0.17078300  1
  N  1001  1  0.73420700  0.71643700  0.05690100  1
  N  1009  1  0.79806600  0.19278400  0.11360000  1
  N  1012  1  0.70187500  0.27828500  0.13036900  1
  N  1017  1  0.76913300  0.25817500  0.08763400  1
  N  1019  1  0.73427100  0.21528400  0.15863300  1
  N  1027  1  0.79805600  0.79570000  0.68231100  1
  N  1030  1  0.70187000  0.72695600  0.59682100  1
  N  1035  1  0.76911300  0.70434400  0.61694100  1
  N  1037  1  0.73423400  0.81822400  0.65982300  1
  N  1045  1  0.29806900  0.07179900  0.83744800  1
  N  1048  1  0.20195300  0.08857000  0.76868500  1
  N  1053  1  0.26918700  0.04584400  0.74608200  1
  N  1055  1  0.23426600  0.11682700  0.85996300  1
  N  1063  1  0.29808500  0.64049700  0.80326300  1
  N  1066  1  0.20192500  0.55499700  0.78651500  1
  N  1071  1  0.26915300  0.57510900  0.82923600  1
  N  1073  1  0.23424700  0.61800900  0.75825800  1
  N  1081  1  0.29806000  0.03764900  0.23463600  1
  N  1084  1  0.20189100  0.10640900  0.32013600  1
  N  1089  1  0.26915900  0.12901700  0.30001400  1
  N  1091  1  0.23425000  0.01513400  0.25714400  1
  O  668  1  0.81114600  0.87407300  0.41081900  1
  O  671  1  0.74488100  0.95421900  0.50838300  1
  O  686  1  0.81112900  0.41160700  0.00106000  1
  O  689  1  0.74496200  0.42901200  0.92087900  1
  O  704  1  0.81110700  0.46429000  0.46344600  1
  O  707  1  0.74492800  0.36673100  0.44610300  1
  O  722  1  0.31114500  0.95919800  0.50606000  1
  O  725  1  0.24491300  0.87902200  0.40849800  1
  O  740  1  0.31109200  0.42168400  0.91586200  1
  O  743  1  0.24490700  0.40430700  0.99605500  1
  O  758  1  0.31110700  0.36900800  0.45340200  1
  O  761  1  0.24492600  0.46660000  0.47083900  1
  O  776  1  0.94468400  0.91780600  0.27057000  1
  O  779  1  0.05643600  0.90708200  0.33861500  1
  O  794  1  0.94465000  0.22757800  0.95722700  1
  O  797  1  0.05643600  0.30635100  0.96801200  1
  O  812  1  0.94466000  0.60451200  0.64746800  1
  O  815  1  0.05643000  0.53650800  0.56869000  1
  O  830  1  0.44467200  0.91534100  0.64625900  1
  O  833  1  0.55648500  0.92619700  0.57832400  1
  O  848  1  0.44467900  0.60571400  0.95960700  1
  O  851  1  0.55644800  0.52694200  0.94884900  1
  O  866  1  0.44464400  0.22877800  0.26936900  1
  O  869  1  0.55642300  0.29678000  0.34813900  1
  O  884  1  0.04640900  0.91055700  0.64228900  1
  O  887  1  0.93766000  0.93198200  0.57983100  1
  O  902  1  0.04637800  0.60665200  0.96472500  1
  O  905  1  0.93763200  0.52272800  0.94316300  1
  O  920  1  0.04640200  0.23284400  0.26849000  1
  O  923  1  0.93763000  0.29522600  0.35238400  1
  O  938  1  0.54639200  0.92284300  0.27466700  1
  O  941  1  0.43766800  0.90128500  0.33703800  1
  O  956  1  0.54640700  0.22668400  0.95229200  1
  O  959  1  0.43765800  0.31059400  0.97382300  1
  O  974  1  0.54638600  0.60034300  0.64843600  1
  O  977  1  0.43761800  0.53802400  0.56451100  1
  O  992  1  0.81232300  0.79068800  0.12485800  1
  O  995  1  0.68650100  0.71626800  0.10278300  1
  O  1010  1  0.81236600  0.20898900  0.08437200  1
  O  1013  1  0.68655400  0.26132800  0.15880100  1
  O  1028  1  0.81236400  0.75027200  0.66610800  1
  O  1031  1  0.68655100  0.77234100  0.61376500  1
  O  1046  1  0.31239900  0.04257700  0.79201900  1
  O  1049  1  0.18658000  0.11699300  0.81407000  1
  O  1064  1  0.31240200  0.62429800  0.83249300  1
  O  1067  1  0.18653000  0.57197400  0.75811000  1
  O  1082  1  0.31238100  0.08308000  0.25083500  1
  O  1085  1  0.18655200  0.06102400  0.30318800  1
