# generated using pymatgen
data_H8C13N7
_symmetry_space_group_name_H-M   'P 1'
_cell_length_a   61.24370000
_cell_length_b   65.58860000
_cell_length_c   65.62880000
_cell_angle_alpha   90.00000000
_cell_angle_beta   90.00000000
_cell_angle_gamma   90.00000000
_symmetry_Int_Tables_number   1
_chemical_formula_structural   H8C13N7
_chemical_formula_sum   'H512 C832 N448'
_cell_volume   263623.57473340
_cell_formula_units_Z   64
loop_
 _symmetry_equiv_pos_site_id
 _symmetry_equiv_pos_as_xyz
  1  'x, y, z'
loop_
 _atom_site_type_symbol
 _atom_site_label
 _atom_site_symmetry_multiplicity
 _atom_site_fract_x
 _atom_site_fract_y
 _atom_site_fract_z
 _atom_site_occupancy
  H  7  1  0.97763400  0.42251000  0.88397600  1
  H  16  1  0.95097400  0.37111000  0.87843000  1
  H  19  1  0.98927800  0.35421300  0.86647500  1
  H  20  1  0.99221200  0.35377500  0.84153800  1
  H  21  1  0.01637600  0.40138900  0.92366900  1
  H  22  1  0.01674600  0.40025600  0.89863800  1
  H  23  1  0.94619100  0.38228900  0.95909000  1
  H  24  1  0.92762600  0.37051100  0.94582600  1
  H  25  1  0.00287400  0.42071700  0.80582800  1
  H  26  1  0.99670600  0.44150700  0.81818400  1
  H  31  1  0.92285600  0.34899500  0.91504500  1
  H  32  1  0.00829400  0.37521800  0.81396800  1
  H  33  1  0.96534200  0.45024300  0.84734000  1
  H  34  1  0.99001400  0.40669400  0.95035000  1
  H  41  1  0.47767400  0.07567700  0.13052600  1
  H  50  1  0.45097100  0.12705300  0.13608100  1
  H  53  1  0.48920200  0.14399200  0.14801100  1
  H  54  1  0.49205700  0.14444300  0.17295800  1
  H  55  1  0.51644500  0.09697300  0.09080800  1
  H  56  1  0.51680300  0.09803200  0.11584400  1
  H  57  1  0.44617200  0.11583100  0.05542500  1
  H  58  1  0.42758700  0.12756600  0.06871200  1
  H  59  1  0.50293900  0.07750900  0.20866000  1
  H  60  1  0.49678900  0.05671200  0.19630600  1
  H  65  1  0.42283900  0.14914800  0.09936200  1
  H  66  1  0.50827000  0.12301300  0.20052900  1
  H  67  1  0.46538400  0.04797100  0.16722500  1
  H  68  1  0.49009000  0.09154700  0.06414800  1
  H  75  1  0.22873200  0.37191200  0.17947200  1
  H  84  1  0.20121100  0.37814800  0.12837200  1
  H  87  1  0.23911900  0.39039000  0.11128500  1
  H  88  1  0.24192500  0.41536700  0.11115400  1
  H  89  1  0.26689100  0.33249400  0.15748000  1
  H  90  1  0.26734700  0.35754900  0.15647100  1
  H  91  1  0.19626700  0.29735700  0.13913300  1
  H  92  1  0.17762800  0.31076800  0.12763100  1
  H  93  1  0.25296300  0.45047200  0.17839300  1
  H  94  1  0.24750300  0.43766300  0.19906500  1
  H  99  1  0.17280500  0.34167100  0.10627000  1
  H  100  1  0.25864200  0.44281200  0.13317800  1
  H  101  1  0.21680100  0.40839100  0.20774400  1
  H  102  1  0.24028800  0.30600100  0.16336100  1
  H  109  1  0.72868400  0.12631700  0.83502800  1
  H  118  1  0.70117500  0.12010800  0.88613900  1
  H  121  1  0.73913600  0.10787100  0.90322600  1
  H  122  1  0.74204400  0.08290400  0.90336100  1
  H  123  1  0.76683200  0.16568700  0.85682100  1
  H  124  1  0.76728900  0.14064000  0.85790400  1
  H  125  1  0.69627900  0.20089200  0.87531000  1
  H  126  1  0.67763100  0.18749800  0.88681500  1
  H  127  1  0.75303300  0.04780600  0.83616700  1
  H  128  1  0.74752200  0.06055900  0.81546400  1
  H  133  1  0.67277000  0.15661700  0.90818700  1
  H  134  1  0.75861600  0.05543700  0.88137400  1
  H  135  1  0.71672400  0.09000700  0.80676200  1
  H  136  1  0.74031000  0.19223200  0.85111300  1
  H  143  1  0.50907100  0.07574500  0.88439400  1
  H  152  1  0.53505100  0.12765000  0.87807500  1
  H  155  1  0.49634400  0.14382300  0.86661500  1
  H  156  1  0.49330200  0.14410300  0.84169300  1
  H  157  1  0.47153000  0.09591800  0.92474500  1
  H  158  1  0.47062800  0.09653800  0.89968900  1
  H  159  1  0.53998900  0.12051900  0.95935700  1
  H  160  1  0.55816100  0.13218700  0.94547500  1
  H  161  1  0.48357000  0.07695100  0.80625900  1
  H  162  1  0.48999200  0.05626300  0.81867000  1
  H  167  1  0.56207100  0.15223200  0.91269700  1
  H  168  1  0.47756000  0.12241600  0.81426900  1
  H  169  1  0.52116700  0.04764700  0.84850000  1
  H  170  1  0.50010700  0.09250600  0.95195600  1
  H  177  1  0.00902300  0.42252500  0.13011700  1
  H  186  1  0.03506700  0.37064500  0.13643800  1
  H  189  1  0.99644600  0.35441500  0.14786900  1
  H  190  1  0.99348100  0.35411500  0.17279900  1
  H  191  1  0.97146500  0.40218700  0.08973300  1
  H  192  1  0.97057600  0.40163600  0.11479300  1
  H  193  1  0.04003200  0.37782000  0.05516000  1
  H  194  1  0.05822300  0.36619000  0.06905500  1
  H  195  1  0.98348300  0.42125500  0.20823300  1
  H  196  1  0.98988200  0.44195400  0.19583200  1
  H  201  1  0.06210400  0.34608000  0.10169900  1
  H  202  1  0.97758700  0.37577400  0.20018800  1
  H  203  1  0.02109500  0.45058300  0.16609600  1
  H  204  1  0.00007900  0.40572300  0.06254900  1
  H  211  1  0.25798100  0.12669300  0.17949300  1
  H  220  1  0.28481300  0.11968600  0.12788600  1
  H  223  1  0.24646800  0.10798200  0.11150700  1
  H  224  1  0.24353200  0.08302500  0.11151600  1
  H  225  1  0.22100600  0.16679900  0.15846200  1
  H  226  1  0.22000300  0.14172500  0.15796700  1
  H  227  1  0.28998600  0.20106200  0.13459500  1
  H  228  1  0.30822300  0.18704000  0.12318600  1
  H  229  1  0.23347200  0.04815500  0.17895300  1
  H  230  1  0.23919200  0.06101100  0.19953700  1
  H  235  1  0.31214800  0.15411800  0.10330000  1
  H  236  1  0.22715300  0.05574700  0.13375800  1
  H  237  1  0.26972600  0.09101000  0.20809800  1
  H  238  1  0.24991500  0.19382500  0.16242100  1
  H  245  1  0.75802500  0.37154000  0.83501200  1
  H  254  1  0.78483600  0.37851900  0.88663200  1
  H  257  1  0.74643000  0.39021700  0.90300600  1
  H  258  1  0.74339000  0.41516400  0.90299900  1
  H  259  1  0.72106400  0.33147400  0.85585000  1
  H  260  1  0.72005700  0.35654400  0.85641400  1
  H  261  1  0.78995000  0.29714200  0.87987500  1
  H  262  1  0.80820000  0.31115000  0.89128300  1
  H  263  1  0.73336900  0.45002200  0.83560600  1
  H  264  1  0.73914600  0.43722300  0.81499500  1
  H  269  1  0.81215900  0.34405800  0.91117300  1
  H  270  1  0.72711000  0.44248700  0.88072900  1
  H  271  1  0.76976600  0.40709200  0.80640800  1
  H  272  1  0.74988700  0.30440100  0.85205000  1
  H  279  1  0.99281500  0.57879700  0.12802200  1
  H  288  1  0.03405900  0.62479900  0.13682700  1
  H  291  1  0.00263900  0.64596300  0.15057800  1
  H  292  1  0.00044100  0.64519300  0.17554800  1
  H  293  1  0.96508400  0.60709100  0.08958500  1
  H  294  1  0.96413600  0.60776000  0.11459700  1
  H  295  1  0.03856700  0.61632500  0.05595300  1
  H  296  1  0.05834400  0.62515600  0.06994600  1
  H  297  1  0.97204300  0.58116500  0.20748400  1
  H  298  1  0.96968900  0.56097300  0.19310600  1
  H  303  1  0.06298800  0.64746800  0.10041400  1
  H  304  1  0.97797100  0.62600500  0.20185800  1
  H  305  1  0.96631700  0.55150800  0.14872200  1
  H  306  1  0.99167500  0.59620900  0.06399200  1
  H  313  1  0.49278400  0.91946000  0.88646300  1
  H  322  1  0.53405200  0.87345700  0.87763500  1
  H  325  1  0.50270800  0.85229500  0.86390100  1
  H  326  1  0.50057800  0.85308500  0.83892800  1
  H  327  1  0.46510600  0.89104700  0.92493300  1
  H  328  1  0.46413000  0.89044500  0.89991600  1
  H  329  1  0.53863500  0.88200000  0.95849100  1
  H  330  1  0.55839600  0.87317200  0.94446500  1
  H  331  1  0.47202900  0.91707700  0.80700000  1
  H  332  1  0.46965200  0.93726700  0.82137900  1
  H  337  1  0.56299500  0.85077900  0.91409300  1
  H  338  1  0.47796600  0.87225600  0.81262500  1
  H  339  1  0.46629600  0.94675000  0.86575600  1
  H  340  1  0.49172100  0.90202600  0.95050400  1
  H  347  1  0.75157200  0.62753500  0.83440400  1
  H  356  1  0.78570100  0.62038700  0.88437700  1
  H  359  1  0.74971000  0.60627300  0.90239100  1
  H  360  1  0.75067900  0.58117300  0.90192400  1
  H  361  1  0.71783100  0.66539600  0.85901300  1
  H  362  1  0.71774400  0.64032800  0.85986400  1
  H  363  1  0.78921600  0.70109200  0.87374300  1
  H  364  1  0.80844600  0.68782700  0.88451700  1
  H  365  1  0.75555400  0.54576400  0.83397900  1
  H  366  1  0.75315700  0.55977300  0.81362300  1
  H  371  1  0.81402400  0.65743200  0.90611600  1
  H  372  1  0.77085200  0.55423200  0.87651300  1
  H  373  1  0.76949000  0.59764100  0.80511200  1
  H  374  1  0.74389100  0.69207200  0.85147200  1
  H  381  1  0.25164700  0.87067100  0.18011300  1
  H  390  1  0.28571800  0.87781100  0.13008500  1
  H  393  1  0.24961900  0.89191800  0.11212100  1
  H  394  1  0.25048300  0.91702400  0.11259300  1
  H  395  1  0.21790200  0.83284900  0.15573500  1
  H  396  1  0.21780500  0.85791300  0.15481000  1
  H  397  1  0.28921400  0.79711300  0.14076300  1
  H  398  1  0.30843800  0.81036800  0.12996800  1
  H  399  1  0.25560200  0.95246000  0.18049600  1
  H  400  1  0.25325400  0.93846500  0.20086200  1
  H  405  1  0.31403600  0.84075900  0.10837700  1
  H  406  1  0.27081000  0.94396300  0.13784200  1
  H  407  1  0.26951400  0.90042200  0.20942300  1
  H  408  1  0.24391400  0.80613100  0.16305200  1
  H  415  1  0.49147900  0.91930300  0.12769200  1
  H  424  1  0.45137400  0.87245100  0.13723400  1
  H  427  1  0.48359100  0.85194900  0.15040000  1
  H  428  1  0.48597500  0.85281000  0.17534500  1
  H  429  1  0.51858800  0.89225300  0.08848000  1
  H  430  1  0.52022400  0.89196500  0.11348300  1
  H  431  1  0.44619800  0.87643800  0.05582000  1
  H  432  1  0.42687500  0.86763400  0.07044000  1
  H  433  1  0.51325300  0.91730500  0.20695600  1
  H  434  1  0.51519100  0.93750900  0.19253900  1
  H  439  1  0.42354900  0.84703500  0.10356500  1
  H  440  1  0.50794200  0.87244200  0.20150200  1
  H  441  1  0.51822300  0.94665700  0.14785000  1
  H  442  1  0.48856600  0.90151200  0.06240200  1
  H  449  1  0.99152000  0.57887400  0.88678800  1
  H  458  1  0.95135700  0.62570200  0.87725700  1
  H  461  1  0.98347600  0.64623300  0.86409300  1
  H  462  1  0.98579300  0.64536500  0.83914600  1
  H  463  1  0.01862000  0.60607500  0.92600400  1
  H  464  1  0.02024900  0.60629600  0.90099800  1
  H  465  1  0.94618300  0.62164000  0.95866300  1
  H  466  1  0.92685000  0.63042400  0.94403900  1
  H  467  1  0.01327700  0.58092400  0.80752200  1
  H  468  1  0.01524000  0.56071800  0.82193400  1
  H  473  1  0.92353200  0.65110900  0.91103200  1
  H  474  1  0.00788800  0.62580400  0.81300600  1
  H  475  1  0.01827400  0.55154000  0.86659100  1
  H  476  1  0.98865900  0.59670000  0.95207900  1
  H  483  1  0.73283200  0.87037300  0.83433100  1
  H  492  1  0.69949000  0.87815000  0.88483100  1
  H  495  1  0.73599800  0.89178200  0.90224600  1
  H  496  1  0.73529600  0.91688400  0.90171600  1
  H  497  1  0.76575100  0.83179000  0.85795600  1
  H  498  1  0.76638100  0.85688100  0.85836100  1
  H  499  1  0.69581400  0.79683200  0.87833100  1
  H  500  1  0.67693000  0.81068700  0.88897900  1
  H  501  1  0.73009800  0.95219800  0.83378800  1
  H  502  1  0.73204300  0.93812800  0.81343300  1
  H  507  1  0.67227700  0.84303300  0.90911600  1
  H  508  1  0.71463100  0.94380000  0.87644000  1
  H  509  1  0.71561700  0.90014900  0.80482700  1
  H  510  1  0.73704000  0.80452100  0.85208800  1
  H  517  1  0.23275600  0.62788200  0.18017100  1
  H  526  1  0.19948500  0.62007100  0.12961700  1
  H  529  1  0.23607700  0.60643300  0.11226500  1
  H  530  1  0.23548200  0.58132700  0.11282800  1
  H  531  1  0.26565700  0.66642200  0.15675300  1
  H  532  1  0.26631300  0.64133600  0.15628500  1
  H  533  1  0.19578800  0.70138400  0.13614400  1
  H  534  1  0.17691800  0.68752800  0.12548000  1
  H  535  1  0.23016700  0.54603400  0.18073300  1
  H  536  1  0.23203200  0.56010800  0.20108900  1
  H  541  1  0.17226300  0.65519000  0.10535100  1
  H  542  1  0.21460500  0.55442000  0.13821000  1
  H  543  1  0.21560300  0.59828900  0.20970800  1
  H  544  1  0.23698000  0.69372000  0.16241300  1
  H  551  1  0.48475100  0.92273400  0.38603800  1
  H  560  1  0.45017700  0.87295700  0.37835800  1
  H  563  1  0.48578300  0.85496100  0.36390900  1
  H  564  1  0.48496100  0.85580200  0.33882500  1
  H  565  1  0.51799200  0.89791700  0.42366800  1
  H  566  1  0.51820100  0.89711200  0.39861900  1
  H  567  1  0.44646600  0.88314800  0.45903600  1
  H  568  1  0.42720800  0.87254100  0.44566600  1
  H  569  1  0.48168400  0.92426200  0.30427700  1
  H  570  1  0.48426400  0.94440700  0.31858400  1
  H  575  1  0.42175600  0.85101300  0.41524600  1
  H  576  1  0.46489400  0.88223300  0.31211800  1
  H  577  1  0.46717000  0.95243900  0.35615000  1
  H  578  1  0.49182600  0.90546100  0.45022200  1
  H  585  1  0.98476800  0.57546000  0.62848800  1
  H  594  1  0.95015700  0.62517700  0.63614000  1
  H  597  1  0.98562900  0.64327800  0.65053900  1
  H  598  1  0.98473400  0.64246700  0.67561700  1
  H  599  1  0.01805200  0.60044300  0.59082800  1
  H  600  1  0.01824800  0.60117300  0.61588100  1
  H  601  1  0.94646000  0.61491700  0.55547000  1
  H  602  1  0.92718000  0.62548100  0.56885600  1
  H  603  1  0.98172800  0.57401600  0.71024800  1
  H  604  1  0.98426200  0.55385900  0.69595400  1
  H  609  1  0.92173600  0.64710100  0.59916900  1
  H  610  1  0.96489500  0.61602200  0.70234700  1
  H  611  1  0.96715000  0.54578900  0.65848400  1
  H  612  1  0.99192500  0.59276600  0.56427800  1
  H  619  1  0.74384500  0.86998100  0.67801000  1
  H  628  1  0.70143400  0.87873500  0.63272100  1
  H  631  1  0.73231600  0.89217400  0.61097300  1
  H  632  1  0.73454000  0.91715400  0.61154700  1
  H  633  1  0.77057900  0.83124100  0.64911600  1
  H  634  1  0.77160300  0.85627100  0.64850100  1
  H  635  1  0.69688500  0.79774900  0.64086700  1
  H  636  1  0.67701500  0.81185500  0.63240500  1
  H  637  1  0.76516200  0.94933000  0.67452100  1
  H  638  1  0.76804500  0.93508400  0.69472700  1
  H  643  1  0.67236300  0.84220500  0.61008300  1
  H  644  1  0.75723800  0.94345600  0.62970800  1
  H  645  1  0.77139100  0.89094000  0.70454200  1
  H  646  1  0.74394100  0.80578100  0.66071500  1
  H  653  1  0.24378700  0.62827400  0.33651900  1
  H  662  1  0.20141500  0.61950300  0.38183100  1
  H  665  1  0.23235700  0.60606300  0.40356700  1
  H  666  1  0.23466800  0.58108900  0.40299700  1
  H  667  1  0.27056200  0.66697300  0.36523600  1
  H  668  1  0.27158900  0.64195300  0.36590200  1
  H  669  1  0.19687900  0.70048900  0.37366500  1
  H  670  1  0.17700900  0.68638800  0.38213300  1
  H  671  1  0.26518300  0.54895400  0.33999600  1
  H  672  1  0.26802800  0.56319000  0.31977400  1
  H  677  1  0.17234400  0.65603500  0.40445200  1
  H  678  1  0.25729500  0.55480500  0.38476700  1
  H  679  1  0.27142700  0.60720900  0.30998300  1
  H  680  1  0.24392700  0.69245600  0.35381600  1
  H  687  1  0.00227000  0.57537800  0.38642200  1
  H  696  1  0.03604800  0.62569100  0.37808300  1
  H  699  1  0.99994700  0.64305900  0.36404500  1
  H  700  1  0.00053000  0.64211600  0.33896400  1
  H  701  1  0.96980600  0.59924900  0.42470500  1
  H  702  1  0.96906800  0.59960000  0.39963900  1
  H  703  1  0.03986000  0.61970600  0.45937000  1
  H  704  1  0.05878200  0.63015900  0.44541400  1
  H  705  1  0.00418400  0.57362000  0.30462900  1
  H  706  1  0.00204000  0.55349000  0.31901900  1
  H  711  1  0.06330900  0.65020600  0.41308400  1
  H  712  1  0.02111100  0.61575700  0.31235400  1
  H  713  1  0.01913600  0.54540000  0.35677800  1
  H  714  1  0.99859200  0.59335900  0.45184700  1
  H  721  1  0.50221500  0.92286200  0.62807800  1
  H  730  1  0.53607200  0.87262500  0.63643300  1
  H  733  1  0.50014600  0.85514900  0.65045200  1
  H  734  1  0.50079800  0.85609300  0.67552800  1
  H  735  1  0.46973500  0.89880300  0.58978500  1
  H  736  1  0.46900900  0.89853000  0.61485500  1
  H  737  1  0.53988800  0.87864100  0.55514500  1
  H  738  1  0.55883500  0.86823800  0.56911600  1
  H  739  1  0.50403900  0.92462400  0.70987300  1
  H  740  1  0.50192800  0.94474700  0.69547200  1
  H  745  1  0.56334000  0.84811400  0.60135400  1
  H  746  1  0.52115400  0.88262800  0.70215100  1
  H  747  1  0.51908900  0.95283400  0.65776900  1
  H  748  1  0.49853800  0.90485000  0.56266300  1
  H  755  1  0.74314000  0.62857700  0.67789500  1
  H  764  1  0.78454800  0.61910600  0.63180200  1
  H  767  1  0.75292900  0.60621200  0.61065300  1
  H  768  1  0.75053000  0.58125800  0.61131900  1
  H  769  1  0.71703100  0.66805500  0.65018700  1
  H  770  1  0.71533900  0.64303900  0.64994200  1
  H  771  1  0.78970600  0.70060500  0.63545400  1
  H  772  1  0.80916800  0.68591200  0.62703300  1
  H  773  1  0.72078600  0.54944200  0.67471200  1
  H  774  1  0.71825600  0.56373400  0.69492800  1
  H  779  1  0.81246400  0.65290300  0.60637100  1
  H  780  1  0.72834800  0.55508800  0.62987500  1
  H  781  1  0.71531200  0.60820000  0.70444700  1
  H  782  1  0.74716100  0.69404800  0.66023000  1
  H  789  1  0.24318100  0.86963600  0.33661300  1
  H  798  1  0.28456700  0.87911400  0.38271300  1
  H  801  1  0.25289300  0.89200600  0.40386400  1
  H  802  1  0.25041400  0.91695500  0.40320400  1
  H  803  1  0.21704100  0.83019500  0.36416200  1
  H  804  1  0.21534800  0.85520500  0.36444700  1
  H  805  1  0.28967700  0.79760700  0.37908200  1
  H  806  1  0.30915000  0.81229500  0.38748700  1
  H  807  1  0.22075100  0.94874300  0.33980700  1
  H  808  1  0.21825000  0.93446600  0.31957200  1
  H  813  1  0.31247600  0.84530000  0.40812900  1
  H  814  1  0.22832900  0.94313700  0.38461800  1
  H  815  1  0.21527100  0.89010600  0.31005800  1
  H  816  1  0.24713300  0.80417400  0.35429600  1
  H  823  1  0.48607200  0.08074200  0.62779500  1
  H  832  1  0.53515100  0.12196200  0.63648100  1
  H  835  1  0.50676300  0.14522800  0.65151800  1
  H  836  1  0.50721200  0.14350900  0.67652800  1
  H  837  1  0.46421600  0.11124000  0.58975800  1
  H  838  1  0.46348600  0.11195100  0.61477600  1
  H  839  1  0.53815700  0.11354500  0.55574400  1
  H  840  1  0.55875800  0.12066100  0.56966900  1
  H  841  1  0.48632300  0.07711300  0.70944000  1
  H  842  1  0.47594500  0.05963200  0.69472900  1
  H  847  1  0.56475200  0.14342600  0.59903400  1
  H  848  1  0.51881300  0.11232900  0.70178200  1
  H  849  1  0.46067100  0.05356400  0.65186800  1
  H  850  1  0.48949400  0.09739000  0.56404700  1
  H  857  1  0.98607300  0.41750000  0.38668600  1
  H  866  1  0.03517000  0.37632500  0.37799000  1
  H  869  1  0.00694800  0.35301900  0.36296600  1
  H  870  1  0.00746100  0.35476000  0.33796600  1
  H  871  1  0.96425200  0.38686300  0.42474400  1
  H  872  1  0.96349600  0.38622000  0.39971900  1
  H  873  1  0.03821000  0.38483200  0.45870600  1
  H  874  1  0.05880300  0.37773000  0.44475000  1
  H  875  1  0.98628500  0.42109800  0.30503800  1
  H  876  1  0.97594100  0.43859500  0.31975300  1
  H  881  1  0.06478300  0.35485900  0.41545800  1
  H  882  1  0.01881200  0.38609000  0.31268300  1
  H  883  1  0.96069400  0.44468700  0.36262900  1
  H  884  1  0.98951500  0.40084000  0.45044100  1
  H  891  1  0.23760000  0.12878600  0.33683800  1
  H  900  1  0.28543400  0.11983500  0.37901800  1
  H  903  1  0.25661600  0.10455200  0.40157500  1
  H  904  1  0.25710300  0.07954000  0.39969000  1
  H  905  1  0.21466400  0.16652100  0.36731000  1
  H  906  1  0.21399400  0.14147200  0.36782900  1
  H  907  1  0.28847600  0.20071500  0.37108900  1
  H  908  1  0.30892300  0.18676300  0.37851500  1
  H  909  1  0.23701700  0.04706500  0.33294500  1
  H  910  1  0.22741000  0.06196600  0.31522600  1
  H  915  1  0.31462700  0.15716900  0.40107100  1
  H  916  1  0.26908700  0.05423700  0.36805300  1
  H  917  1  0.21317100  0.10568000  0.30896400  1
  H  918  1  0.24016700  0.19227400  0.35383600  1
  H  925  1  0.73767000  0.36942000  0.67766000  1
  H  934  1  0.78544800  0.37837800  0.63541200  1
  H  937  1  0.75652100  0.39365400  0.61288400  1
  H  938  1  0.75690300  0.41867200  0.61476400  1
  H  939  1  0.71466500  0.33172100  0.64739300  1
  H  940  1  0.71399600  0.35676000  0.64681700  1
  H  941  1  0.78847500  0.29750000  0.64336300  1
  H  942  1  0.80891800  0.31144600  0.63591500  1
  H  943  1  0.73703800  0.45115300  0.68153300  1
  H  944  1  0.72749700  0.43625100  0.69928200  1
  H  949  1  0.81463000  0.34104300  0.61336800  1
  H  950  1  0.76909200  0.44396800  0.64629100  1
  H  951  1  0.71318200  0.39264200  0.70552100  1
  H  952  1  0.74018600  0.30593700  0.66064300  1
  H  959  1  0.99802200  0.41757400  0.62740000  1
  H  968  1  0.95010500  0.37522100  0.63678500  1
  H  971  1  0.97934100  0.35262200  0.65140500  1
  H  972  1  0.97918400  0.35438500  0.67640900  1
  H  973  1  0.01966500  0.38826000  0.58867800  1
  H  974  1  0.02107300  0.38786300  0.61369000  1
  H  975  1  0.94630500  0.37889100  0.55545600  1
  H  976  1  0.92612200  0.37178700  0.56997900  1
  H  977  1  0.99952400  0.42093300  0.70906400  1
  H  978  1  0.00929400  0.43861000  0.69422600  1
  H  983  1  0.92178000  0.35059900  0.60193400  1
  H  984  1  0.96679100  0.38578500  0.70159200  1
  H  985  1  0.02402400  0.44460000  0.65105900  1
  H  986  1  0.99041900  0.40095200  0.56243800  1
  H  993  1  0.49805600  0.08064600  0.38707900  1
  H  1002  1  0.45008100  0.12292300  0.37770500  1
  H  1005  1  0.47911900  0.14558000  0.36307100  1
  H  1006  1  0.47890300  0.14379600  0.33807700  1
  H  1007  1  0.51968500  0.11013100  0.42579000  1
  H  1008  1  0.52109100  0.11045700  0.40077400  1
  H  1009  1  0.44630300  0.11916800  0.45902400  1
  H  1010  1  0.42610600  0.12624000  0.44449600  1
  H  1011  1  0.49959100  0.07730700  0.30541500  1
  H  1012  1  0.50935200  0.05962900  0.32025600  1
  H  1017  1  0.42175500  0.14752800  0.41262400  1
  H  1018  1  0.46677300  0.11232300  0.31289200  1
  H  1019  1  0.52405600  0.05362400  0.36342700  1
  H  1020  1  0.49053900  0.09728700  0.45202900  1
  H  1027  1  0.24649600  0.36900800  0.33679000  1
  H  1036  1  0.19980500  0.37869400  0.38002500  1
  H  1039  1  0.22940200  0.39364500  0.40187900  1
  H  1040  1  0.22918300  0.41864800  0.39989200  1
  H  1041  1  0.26922000  0.33065800  0.36612400  1
  H  1042  1  0.27053100  0.35570200  0.36631600  1
  H  1043  1  0.19613800  0.29726700  0.37678300  1
  H  1044  1  0.17608000  0.31178600  0.38419400  1
  H  1045  1  0.24873800  0.45071700  0.33293000  1
  H  1046  1  0.25778300  0.43566700  0.31508300  1
  H  1051  1  0.17192000  0.34392700  0.40515300  1
  H  1052  1  0.21640600  0.44380600  0.36808400  1
  H  1053  1  0.27147500  0.39170200  0.30897900  1
  H  1054  1  0.23985000  0.30434900  0.35386900  1
  H  1061  1  0.74641800  0.12923500  0.67771000  1
  H  1070  1  0.69978500  0.11953700  0.63440500  1
  H  1073  1  0.72950100  0.10461200  0.61258000  1
  H  1074  1  0.72938000  0.07960300  0.61456100  1
  H  1075  1  0.76918000  0.16757000  0.64857800  1
  H  1076  1  0.77050600  0.14253500  0.64833900  1
  H  1077  1  0.69610600  0.20096200  0.63767400  1
  H  1078  1  0.67605900  0.18644300  0.63024200  1
  H  1079  1  0.74866900  0.04751300  0.68154700  1
  H  1080  1  0.75764600  0.06256000  0.69942600  1
  H  1085  1  0.67190100  0.15430100  0.60928600  1
  H  1086  1  0.71637300  0.05444900  0.64632800  1
  H  1087  1  0.77144300  0.10643700  0.70550400  1
  H  1088  1  0.73980100  0.19390300  0.66060300  1
  H  1095  1  0.02238800  0.37127500  0.74418300  1
  H  1106  1  0.52234000  0.12692800  0.27031600  1
  H  1117  1  0.27248000  0.51336800  0.13497700  1
  H  1128  1  0.77246500  0.98487300  0.87943900  1
  H  1139  1  0.46330700  0.12644900  0.74461800  1
  H  1150  1  0.96336000  0.37152200  0.26987900  1
  H  1161  1  0.21314700  0.98533200  0.13520400  1
  H  1172  1  0.71313300  0.51287100  0.87937200  1
  H  1183  1  0.96369600  0.62259900  0.27197400  1
  H  1194  1  0.46369500  0.87574100  0.74251700  1
  H  1205  1  0.52227800  0.87556900  0.27155300  1
  H  1216  1  0.02221700  0.62280100  0.74295100  1
  H  1227  1  0.77143200  0.01299900  0.62897600  1
  H  1238  1  0.27140100  0.48524000  0.38569500  1
  H  1249  1  0.71417000  0.48560900  0.62887200  1
  H  1260  1  0.21416700  0.01260600  0.38566200  1
  H  1271  1  0.02193000  0.48488200  0.87423200  1
  H  1282  1  0.52188600  0.01331000  0.14020200  1
  H  1293  1  0.27437500  0.38193800  0.24163300  1
  H  1304  1  0.77440700  0.11621300  0.77286100  1
  H  1315  1  0.46328200  0.01350900  0.87354400  1
  H  1326  1  0.96329600  0.48475700  0.14088700  1
  H  1337  1  0.21080400  0.11544300  0.24149600  1
  H  1348  1  0.71075300  0.38287500  0.77300700  1
  H  1359  1  0.70840800  0.61139000  0.77157500  1
  H  1370  1  0.20841000  0.88691100  0.24291200  1
  H  1381  1  0.77734900  0.88731800  0.77180600  1
  H  1392  1  0.27734300  0.61088100  0.24270100  1
  H  1403  1  0.52953700  0.98555900  0.36917000  1
  H  1414  1  0.02948100  0.51265900  0.64524400  1
  H  1425  1  0.95607100  0.51290200  0.36867800  1
  H  1436  1  0.45604600  0.98534800  0.64576200  1
  H  1447  1  0.85158700  0.33815300  0.91393900  1
  H  1458  1  0.35157800  0.16002900  0.10052700  1
  H  1469  1  0.10147500  0.34296200  0.09589500  1
  H  1480  1  0.60146500  0.15528900  0.91860900  1
  H  1491  1  0.13307400  0.65937900  0.10209200  1
  H  1502  1  0.63307800  0.83882800  0.91236200  1
  H  1513  1  0.88468700  0.65375100  0.91762200  1
  H  1524  1  0.38469500  0.84443800  0.09686800  1
  H  1535  1  0.35127900  0.83901800  0.41097800  1
  H  1546  1  0.85126900  0.65915900  0.60349100  1
  H  1557  1  0.60247500  0.84450700  0.59762500  1
  H  1568  1  0.10246200  0.65374500  0.41690700  1
  H  1579  1  0.63350100  0.15763100  0.60505000  1
  H  1590  1  0.13351900  0.34061100  0.40939800  1
  H  1601  1  0.38332600  0.15140700  0.41575400  1
  H  1612  1  0.88334000  0.34677400  0.59871600  1
  H  1623  1  0.99014800  0.34937500  0.02389500  1
  H  1634  1  0.49010800  0.14883900  0.99059400  1
  H  1645  1  0.24032200  0.23247300  0.10604500  1
  H  1656  1  0.74020900  0.26576700  0.90840900  1
  H  1667  1  0.99485600  0.65323600  0.99075400  1
  H  1678  1  0.49498700  0.84497800  0.02373700  1
  H  1689  1  0.74522200  0.76574500  0.90848600  1
  H  1700  1  0.24511800  0.73249300  0.10600500  1
  H  1711  1  0.49046200  0.84844500  0.52388000  1
  H  1722  1  0.99042700  0.64974900  0.49061400  1
  H  1733  1  0.74089000  0.73261800  0.60364800  1
  H  1744  1  0.24072900  0.76563300  0.41086400  1
  H  1755  1  0.49445400  0.15373400  0.49076500  1
  H  1766  1  0.99461700  0.34449100  0.52373100  1
  H  1777  1  0.24470500  0.26562100  0.41031200  1
  H  1788  1  0.74459000  0.23261800  0.60414200  1
  C  1  1  0.98480600  0.39329700  0.87221200  1
  C  2  1  0.98217800  0.41462900  0.87111500  1
  C  3  1  0.98475300  0.42549900  0.85282100  1
  C  4  1  0.99051200  0.41528900  0.83446000  1
  C  5  1  0.99092200  0.39342200  0.83425100  1
  C  6  1  0.98845800  0.38255300  0.85331900  1
  C  9  1  0.97868400  0.38446200  0.89185400  1
  C  10  1  0.98831100  0.38959800  0.91123300  1
  C  11  1  0.97711000  0.38548500  0.93022600  1
  C  12  1  0.95553700  0.37689900  0.92942600  1
  C  13  1  0.94690900  0.37045900  0.91026700  1
  C  14  1  0.95842700  0.37433300  0.89208600  1
  C  27  1  0.92618400  0.36219900  0.90826800  1
  C  28  1  0.98567800  0.39217800  0.94928300  1
  C  29  1  0.99473500  0.38340500  0.81535400  1
  C  30  1  0.97965200  0.44597100  0.85312400  1
  C  35  1  0.48489900  0.10489700  0.14226900  1
  C  36  1  0.48223600  0.08356700  0.14337800  1
  C  37  1  0.48478800  0.07270300  0.16167900  1
  C  38  1  0.49055000  0.08292200  0.18003500  1
  C  39  1  0.49092900  0.10479000  0.18024100  1
  C  40  1  0.48846000  0.11565100  0.16116900  1
  C  43  1  0.47864400  0.11367500  0.12263400  1
  C  44  1  0.48832800  0.10860700  0.10326100  1
  C  45  1  0.47711400  0.11271600  0.08427400  1
  C  46  1  0.45552800  0.12127700  0.08507400  1
  C  47  1  0.44689500  0.12770100  0.10424100  1
  C  48  1  0.45841800  0.12384200  0.12242100  1
  C  61  1  0.42618600  0.13600200  0.10624000  1
  C  62  1  0.48569400  0.10604800  0.06521100  1
  C  63  1  0.49472200  0.11481300  0.19914000  1
  C  64  1  0.47967100  0.05223500  0.16139100  1
  C  69  1  0.23535800  0.38409300  0.15032400  1
  C  70  1  0.23311800  0.38489300  0.17169400  1
  C  71  1  0.23581700  0.40305200  0.18276600  1
  C  72  1  0.24119200  0.42160900  0.17272100  1
  C  73  1  0.24127900  0.42209500  0.15087100  1
  C  74  1  0.23870900  0.40315700  0.13978900  1
  C  77  1  0.22898200  0.36454500  0.14141000  1
  C  78  1  0.23865200  0.34510700  0.14629200  1
  C  79  1  0.22729400  0.32617000  0.14226600  1
  C  80  1  0.20564600  0.32707100  0.13387000  1
  C  81  1  0.19703400  0.34629700  0.12757700  1
  C  82  1  0.20863900  0.36444000  0.13145200  1
  C  95  1  0.17625000  0.34838700  0.11947200  1
  C  96  1  0.23584300  0.30707500  0.14887900  1
  C  97  1  0.24494600  0.44114500  0.14111300  1
  C  98  1  0.23095600  0.40243000  0.20326300  1
  C  103  1  0.73523500  0.11412400  0.86417700  1
  C  104  1  0.73306400  0.11333700  0.84280600  1
  C  105  1  0.73578700  0.09517400  0.83174800  1
  C  106  1  0.74118400  0.07662400  0.84179800  1
  C  107  1  0.74127500  0.07614800  0.86365000  1
  C  108  1  0.73869400  0.09508600  0.87473100  1
  C  111  1  0.72898800  0.13369000  0.87314000  1
  C  112  1  0.73864000  0.15311500  0.86819200  1
  C  113  1  0.72729600  0.17205900  0.87220700  1
  C  114  1  0.70564400  0.17117800  0.88059800  1
  C  115  1  0.69701100  0.15196000  0.88689600  1
  C  116  1  0.70861200  0.13380900  0.88304600  1
  C  129  1  0.67622300  0.14988500  0.89499500  1
  C  130  1  0.73585100  0.19115100  0.86558800  1
  C  131  1  0.74493800  0.05710000  0.87341600  1
  C  132  1  0.73096700  0.09578100  0.81124300  1
  C  137  1  0.50159300  0.10483400  0.87251000  1
  C  138  1  0.50439200  0.08351800  0.87151100  1
  C  139  1  0.50171400  0.07251900  0.85330400  1
  C  140  1  0.49583700  0.08259300  0.83489400  1
  C  141  1  0.49521200  0.10445500  0.83458200  1
  C  142  1  0.49763700  0.11543800  0.85358700  1
  C  145  1  0.50783200  0.11390200  0.89202000  1
  C  146  1  0.49864600  0.10880400  0.91160600  1
  C  147  1  0.50978700  0.11389600  0.93037700  1
  C  148  1  0.53085800  0.12344700  0.92925200  1
  C  149  1  0.53921000  0.12939200  0.90984200  1
  C  150  1  0.52778200  0.12457000  0.89185100  1
  C  163  1  0.55960600  0.13819600  0.90747200  1
  C  164  1  0.50185300  0.10739600  0.94969900  1
  C  165  1  0.49120700  0.11435800  0.81566000  1
  C  166  1  0.50667600  0.05202100  0.85378500  1
  C  171  1  0.00150600  0.39342200  0.14197400  1
  C  172  1  0.00433100  0.41473800  0.14298900  1
  C  173  1  0.00166400  0.42572500  0.16120500  1
  C  174  1  0.99578800  0.41563600  0.17960700  1
  C  175  1  0.99520300  0.39377300  0.17991300  1
  C  176  1  0.99764000  0.38280300  0.16090300  1
  C  179  1  0.00788300  0.38441600  0.12247000  1
  C  180  1  0.99863900  0.38944700  0.10288900  1
  C  181  1  0.00979500  0.38436100  0.08412600  1
  C  182  1  0.03088300  0.37483500  0.08525200  1
  C  183  1  0.03923900  0.36890600  0.10466700  1
  C  184  1  0.02780300  0.37371400  0.12265800  1
  C  197  1  0.05961800  0.36006900  0.10703900  1
  C  198  1  0.00184900  0.39083300  0.06479600  1
  C  199  1  0.99122100  0.38386100  0.19883800  1
  C  200  1  0.00662500  0.44622400  0.16074200  1
  C  205  1  0.25103300  0.11441100  0.15046200  1
  C  206  1  0.25345000  0.11369800  0.17181800  1
  C  207  1  0.25063700  0.09562200  0.18300700  1
  C  208  1  0.24513600  0.07702300  0.17308600  1
  C  209  1  0.24481700  0.07644700  0.15123900  1
  C  210  1  0.24735500  0.09532500  0.14005300  1
  C  213  1  0.25753800  0.13382300  0.14132100  1
  C  214  1  0.24831500  0.15347000  0.14616200  1
  C  215  1  0.25963000  0.17217600  0.14114500  1
  C  216  1  0.28078700  0.17093700  0.13178100  1
  C  217  1  0.28910700  0.15145800  0.12598900  1
  C  218  1  0.27757600  0.13351500  0.13082000  1
  C  231  1  0.30956200  0.14898300  0.11734200  1
  C  232  1  0.25172900  0.19154600  0.14755000  1
  C  233  1  0.24092900  0.05738600  0.14157600  1
  C  234  1  0.25535200  0.09641500  0.20352800  1
  C  239  1  0.75114200  0.38383400  0.86404300  1
  C  240  1  0.75349700  0.38453500  0.84268700  1
  C  241  1  0.75065900  0.40261400  0.83151000  1
  C  242  1  0.74512700  0.42120300  0.84143700  1
  C  243  1  0.74480900  0.42177200  0.86328600  1
  C  244  1  0.74735600  0.40289300  0.87446800  1
  C  247  1  0.75751800  0.36440300  0.87323000  1
  C  248  1  0.74831400  0.34476700  0.86832600  1
  C  249  1  0.75961300  0.32605400  0.87333600  1
  C  250  1  0.78077300  0.32727300  0.88270000  1
  C  251  1  0.78911500  0.34674300  0.88849400  1
  C  252  1  0.77758700  0.36469600  0.88368500  1
  C  265  1  0.80957600  0.34920400  0.89713400  1
  C  266  1  0.75170700  0.30668900  0.86691800  1
  C  267  1  0.74091300  0.44082700  0.87295800  1
  C  268  1  0.75533000  0.40183400  0.81098100  1
  C  273  1  0.99640800  0.60754800  0.14202400  1
  C  274  1  0.99142300  0.58657200  0.14156400  1
  C  275  1  0.98476800  0.57570100  0.15893600  1
  C  276  1  0.98352900  0.58546300  0.17828200  1
  C  277  1  0.99046500  0.60629000  0.18003100  1
  C  278  1  0.99608000  0.61742200  0.16170200  1
  C  281  1  0.00474400  0.61574600  0.12273700  1
  C  282  1  0.99470000  0.61301200  0.10302300  1
  C  283  1  0.00692900  0.61570800  0.08434800  1
  C  284  1  0.02941500  0.62176400  0.08565600  1
  C  285  1  0.03839700  0.62671000  0.10510200  1
  C  286  1  0.02638200  0.62300600  0.12303600  1
  C  299  1  0.05933000  0.63440600  0.10733100  1
  C  300  1  0.99799200  0.61008000  0.06512300  1
  C  301  1  0.98954600  0.61565100  0.19955100  1
  C  302  1  0.97998600  0.55534800  0.15595700  1
  C  307  1  0.49634700  0.89069300  0.87247200  1
  C  308  1  0.49139000  0.91167900  0.87292500  1
  C  309  1  0.48473900  0.92254800  0.85554800  1
  C  310  1  0.48350800  0.91278400  0.83620300  1
  C  311  1  0.49046500  0.89196300  0.83445900  1
  C  312  1  0.49607400  0.88083300  0.85278900  1
  C  315  1  0.50477600  0.88256100  0.89175500  1
  C  316  1  0.49471400  0.88524100  0.91146700  1
  C  317  1  0.50695900  0.88254100  0.93013300  1
  C  318  1  0.52944600  0.87648800  0.92881400  1
  C  319  1  0.53841200  0.87153900  0.90936000  1
  C  320  1  0.52638900  0.87525000  0.89143200  1
  C  333  1  0.55932600  0.86380400  0.90711300  1
  C  334  1  0.49803200  0.88815200  0.94936900  1
  C  335  1  0.48954800  0.88260200  0.81493700  1
  C  336  1  0.47996300  0.94290400  0.85852100  1
  C  341  1  0.75085600  0.61394700  0.86353300  1
  C  342  1  0.75026200  0.61390600  0.84204800  1
  C  343  1  0.75039900  0.59580800  0.83056100  1
  C  344  1  0.75149300  0.57641000  0.84029700  1
  C  345  1  0.75136800  0.57551000  0.86214600  1
  C  346  1  0.75124200  0.59436600  0.87359100  1
  C  349  1  0.75713000  0.63360000  0.87245700  1
  C  350  1  0.74692800  0.65299500  0.86833700  1
  C  351  1  0.75826000  0.67204800  0.87192800  1
  C  352  1  0.78027700  0.67135500  0.87946800  1
  C  353  1  0.78934500  0.65221600  0.88541600  1
  C  354  1  0.77787300  0.63397600  0.88169200  1
  C  367  1  0.81030400  0.65031800  0.89319000  1
  C  368  1  0.74922200  0.69108400  0.86569900  1
  C  369  1  0.75570800  0.55640500  0.87150200  1
  C  370  1  0.75407200  0.59800200  0.80993600  1
  C  375  1  0.25099400  0.88427000  0.15099800  1
  C  376  1  0.25035200  0.88430200  0.17247300  1
  C  377  1  0.25048100  0.90240700  0.18394100  1
  C  378  1  0.25154900  0.92180800  0.17420100  1
  C  379  1  0.25139100  0.92269600  0.15235000  1
  C  380  1  0.25126200  0.90383700  0.14090800  1
  C  383  1  0.25712000  0.86461100  0.14198700  1
  C  384  1  0.24694600  0.84522300  0.14618100  1
  C  385  1  0.25826500  0.82616700  0.14258400  1
  C  386  1  0.28027600  0.82685000  0.13502900  1
  C  387  1  0.28935400  0.84598300  0.12907200  1
  C  388  1  0.27788300  0.86422700  0.13278300  1
  C  401  1  0.31031600  0.84787500  0.12130300  1
  C  402  1  0.24923400  0.80713100  0.14882400  1
  C  403  1  0.25571300  0.94179700  0.14298000  1
  C  404  1  0.25410000  0.90025700  0.20457800  1
  C  409  1  0.48863000  0.89051300  0.14174600  1
  C  410  1  0.49319100  0.91157000  0.14122400  1
  C  411  1  0.49996500  0.92254300  0.15849800  1
  C  412  1  0.50156000  0.91283300  0.17785000  1
  C  413  1  0.49496400  0.89192100  0.17970000  1
  C  414  1  0.48942900  0.88066300  0.16143100  1
  C  417  1  0.48019800  0.88207100  0.12259400  1
  C  418  1  0.48975700  0.88492200  0.10267400  1
  C  419  1  0.47742700  0.88114700  0.08426200  1
  C  420  1  0.45539900  0.87388100  0.08594400  1
  C  421  1  0.44680900  0.86943200  0.10564500  1
  C  422  1  0.45883100  0.87414300  0.12332300  1
  C  435  1  0.42623400  0.86117700  0.10840500  1
  C  436  1  0.48551300  0.88682100  0.06476900  1
  C  437  1  0.49617400  0.88261600  0.19923400  1
  C  438  1  0.50471500  0.94288400  0.15537800  1
  C  443  1  0.98868200  0.60768200  0.87275300  1
  C  444  1  0.99322400  0.58661700  0.87326000  1
  C  445  1  0.99999700  0.57565700  0.85598000  1
  C  446  1  0.00158100  0.58537500  0.83663000  1
  C  447  1  0.99495400  0.60627900  0.83479100  1
  C  448  1  0.98941800  0.61752700  0.85306600  1
  C  451  1  0.98016300  0.61605400  0.89190400  1
  C  452  1  0.98976400  0.61326200  0.91181300  1
  C  453  1  0.97743200  0.61703100  0.93022500  1
  C  454  1  0.95539400  0.62427500  0.92855100  1
  C  455  1  0.94679700  0.62872100  0.90885100  1
  C  456  1  0.95881400  0.62401400  0.89116800  1
  C  469  1  0.92623100  0.63700300  0.90609300  1
  C  470  1  0.98553700  0.61137900  0.94971900  1
  C  471  1  0.99615400  0.61559400  0.81526000  1
  C  472  1  0.00475100  0.55531500  0.85908700  1
  C  477  1  0.73403700  0.88400200  0.86342100  1
  C  478  1  0.73439400  0.88399800  0.84193400  1
  C  479  1  0.73452000  0.90207800  0.83040900  1
  C  480  1  0.73371700  0.92150700  0.84011500  1
  C  481  1  0.73396800  0.92244400  0.86195900  1
  C  482  1  0.73405300  0.90361200  0.87343700  1
  C  485  1  0.72765200  0.86446000  0.87253500  1
  C  486  1  0.73745900  0.84487300  0.86842200  1
  C  487  1  0.72615400  0.82603400  0.87299200  1
  C  488  1  0.70458700  0.82702700  0.88152900  1
  C  489  1  0.69578000  0.84640500  0.88697400  1
  C  490  1  0.70716700  0.86445900  0.88229300  1
  C  503  1  0.67514300  0.84865900  0.89531300  1
  C  504  1  0.73453600  0.80674100  0.86688200  1
  C  505  1  0.72972100  0.94156300  0.87132200  1
  C  506  1  0.73099600  0.89989300  0.80975800  1
  C  511  1  0.23391300  0.61422100  0.15110200  1
  C  512  1  0.23431200  0.61424900  0.17258300  1
  C  513  1  0.23445500  0.59617200  0.18410200  1
  C  514  1  0.23370100  0.57673300  0.17440700  1
  C  515  1  0.23397000  0.57579200  0.15256100  1
  C  516  1  0.23404400  0.59461900  0.14107100  1
  C  519  1  0.22766800  0.63376100  0.14189500  1
  C  520  1  0.23743700  0.65334700  0.14607200  1
  C  521  1  0.22613900  0.67218400  0.14149100  1
  C  522  1  0.20457600  0.67119300  0.13294000  1
  C  523  1  0.19577200  0.65181600  0.12748800  1
  C  524  1  0.20716300  0.63376300  0.13216300  1
  C  537  1  0.17513300  0.64955800  0.11915100  1
  C  538  1  0.23449900  0.69148000  0.14762000  1
  C  539  1  0.22974300  0.55666300  0.14320700  1
  C  540  1  0.23098100  0.59832800  0.20476200  1
  C  545  1  0.48507600  0.89375500  0.37211700  1
  C  546  1  0.48600500  0.91523400  0.37233100  1
  C  547  1  0.48616600  0.92695100  0.35439600  1
  C  548  1  0.48509300  0.91748300  0.33487400  1
  C  549  1  0.48479300  0.89563800  0.33369500  1
  C  550  1  0.48465600  0.88395000  0.35240500  1
  C  553  1  0.47882500  0.88461000  0.39167600  1
  C  554  1  0.48892200  0.88863500  0.41113400  1
  C  555  1  0.47751600  0.88502200  0.43013400  1
  C  556  1  0.45547400  0.87755200  0.42932700  1
  C  557  1  0.44644000  0.87174000  0.41014000  1
  C  558  1  0.45799700  0.87551800  0.39196500  1
  C  571  1  0.42548600  0.86395200  0.40814900  1
  C  572  1  0.48647300  0.89123600  0.44921100  1
  C  573  1  0.48022600  0.88661300  0.31446900  1
  C  574  1  0.48255600  0.94756700  0.35683600  1
  C  579  1  0.98517800  0.60446400  0.64237800  1
  C  580  1  0.98606600  0.58297700  0.64218300  1
  C  581  1  0.98615100  0.57126900  0.66012800  1
  C  582  1  0.98510100  0.58076700  0.67963900  1
  C  583  1  0.98482500  0.60261600  0.68079300  1
  C  584  1  0.98467300  0.61428100  0.66207500  1
  C  587  1  0.97877900  0.61350300  0.62280900  1
  C  588  1  0.98893800  0.60955300  0.60336300  1
  C  589  1  0.97752300  0.61315300  0.58436400  1
  C  590  1  0.95546500  0.62058700  0.58516200  1
  C  591  1  0.94641600  0.62638400  0.60435200  1
  C  592  1  0.95797300  0.62262700  0.62253000  1
  C  605  1  0.92547500  0.63420200  0.60633600  1
  C  606  1  0.98650400  0.60696900  0.56528600  1
  C  607  1  0.98022900  0.61163900  0.70001500  1
  C  608  1  0.98253400  0.55065400  0.65770800  1
  C  613  1  0.73953800  0.88382600  0.64927000  1
  C  614  1  0.74510600  0.88346800  0.67011500  1
  C  615  1  0.75225400  0.90087200  0.68067400  1
  C  616  1  0.75330400  0.92015600  0.67075600  1
  C  617  1  0.74568000  0.92181900  0.65014600  1
  C  618  1  0.73965500  0.90344700  0.63927600  1
  C  621  1  0.73082000  0.86453900  0.64140900  1
  C  622  1  0.74089300  0.84480100  0.64390700  1
  C  623  1  0.72855200  0.82616500  0.64137000  1
  C  624  1  0.70600100  0.82752100  0.63554700  1
  C  625  1  0.69699500  0.84700400  0.63075100  1
  C  626  1  0.70908100  0.86491300  0.63442600  1
  C  639  1  0.67605900  0.84926700  0.62305100  1
  C  640  1  0.73752300  0.80692700  0.64689500  1
  C  641  1  0.74629300  0.94129000  0.64067000  1
  C  642  1  0.75758400  0.89806000  0.70092600  1
  C  647  1  0.23945200  0.61440400  0.36523900  1
  C  648  1  0.24505700  0.61478400  0.34440700  1
  C  649  1  0.25221700  0.59738600  0.33384300  1
  C  650  1  0.25328800  0.57810100  0.34375800  1
  C  651  1  0.24568100  0.57642800  0.36437400  1
  C  652  1  0.23965100  0.59479300  0.37525300  1
  C  655  1  0.23081900  0.63369600  0.37316900  1
  C  656  1  0.24088000  0.65342900  0.37063000  1
  C  657  1  0.22854400  0.67206700  0.37316900  1
  C  658  1  0.20599500  0.67071700  0.37899400  1
  C  659  1  0.19698200  0.65123500  0.38379000  1
  C  660  1  0.20906500  0.63332400  0.38012300  1
  C  673  1  0.17604100  0.64897700  0.39148100  1
  C  674  1  0.23751000  0.69130500  0.36763600  1
  C  675  1  0.24630600  0.55695100  0.37383800  1
  C  676  1  0.25754800  0.60021100  0.31359600  1
  C  681  1  0.00146400  0.60430300  0.37241900  1
  C  682  1  0.00077600  0.58281800  0.37270500  1
  C  683  1  0.00036800  0.57104000  0.35481200  1
  C  684  1  0.00117300  0.58044900  0.33524600  1
  C  685  1  0.00134600  0.60229100  0.33399700  1
  C  686  1  0.00150400  0.61404100  0.35266400  1
  C  689  1  0.00780000  0.61365700  0.39186000  1
  C  690  1  0.99808000  0.60965000  0.41150200  1
  C  691  1  0.00944800  0.61425300  0.43029300  1
  C  692  1  0.03104100  0.62272700  0.42919700  1
  C  693  1  0.03982600  0.62802900  0.40977800  1
  C  694  1  0.02836900  0.62328100  0.39178700  1
  C  707  1  0.06044800  0.63640200  0.40743700  1
  C  708  1  0.00114200  0.60815200  0.44961800  1
  C  709  1  0.00581200  0.61129400  0.31473700  1
  C  710  1  0.00378900  0.55039900  0.35728200  1
  C  715  1  0.50135500  0.89392600  0.64207800  1
  C  716  1  0.50068400  0.91541700  0.64179000  1
  C  717  1  0.50032300  0.92720300  0.65968300  1
  C  718  1  0.50110800  0.91778300  0.67924600  1
  C  719  1  0.50129300  0.89594100  0.68049400  1
  C  720  1  0.50148900  0.88419500  0.66183000  1
  C  723  1  0.50784400  0.88466300  0.62263200  1
  C  724  1  0.49806300  0.88858300  0.60299800  1
  C  725  1  0.50944500  0.88399400  0.58421500  1
  C  726  1  0.53105900  0.87556100  0.58530900  1
  C  727  1  0.53985700  0.87028300  0.60473200  1
  C  728  1  0.52839400  0.87501800  0.62272400  1
  C  741  1  0.56046800  0.86188600  0.60707100  1
  C  742  1  0.50112500  0.89006100  0.56488000  1
  C  743  1  0.50581900  0.88697300  0.69975900  1
  C  744  1  0.50374200  0.94784200  0.65721200  1
  C  749  1  0.74678900  0.61467400  0.64911000  1
  C  750  1  0.74158400  0.61510100  0.67003400  1
  C  751  1  0.73428000  0.59780100  0.68067800  1
  C  752  1  0.73290200  0.57850600  0.67080900  1
  C  753  1  0.74026400  0.57673300  0.65012900  1
  C  754  1  0.74623700  0.59504300  0.63913600  1
  C  757  1  0.75561500  0.63383000  0.64101600  1
  C  758  1  0.74599700  0.65376500  0.64361700  1
  C  759  1  0.75844900  0.67214500  0.64002000  1
  C  760  1  0.78056400  0.67043100  0.63300600  1
  C  761  1  0.78919800  0.65070000  0.62872400  1
  C  762  1  0.77710700  0.63304300  0.63339600  1
  C  775  1  0.80976900  0.64791800  0.62045300  1
  C  776  1  0.75030500  0.69164900  0.64556900  1
  C  777  1  0.73942700  0.55723600  0.64072200  1
  C  778  1  0.72894400  0.60075300  0.70091000  1
  C  783  1  0.24686300  0.88356100  0.36538100  1
  C  784  1  0.24161700  0.88311600  0.34446800  1
  C  785  1  0.23430200  0.90041100  0.33382500  1
  C  786  1  0.23290600  0.91970600  0.34369400  1
  C  787  1  0.24026200  0.92148500  0.36437700  1
  C  788  1  0.24623900  0.90318000  0.37537600  1
  C  791  1  0.25560700  0.86439900  0.37353600  1
  C  792  1  0.24599600  0.84446900  0.37090300  1
  C  793  1  0.25843500  0.82608600  0.37450600  1
  C  794  1  0.28055300  0.82778700  0.38151600  1
  C  795  1  0.28920200  0.84751700  0.38578800  1
  C  796  1  0.27711600  0.86518000  0.38112100  1
  C  809  1  0.30977700  0.85029100  0.39405000  1
  C  810  1  0.25029000  0.80658400  0.36895200  1
  C  811  1  0.23941600  0.94098400  0.37378000  1
  C  812  1  0.22896600  0.89745400  0.31359600  1
  C  817  1  0.49601700  0.10792300  0.64221500  1
  C  818  1  0.48737000  0.08799900  0.64161600  1
  C  819  1  0.48194700  0.07693100  0.65925600  1
  C  820  1  0.48628500  0.08509600  0.67898400  1
  C  821  1  0.49499500  0.10534300  0.68059900  1
  C  822  1  0.49928300  0.11676600  0.66216100  1
  C  825  1  0.50486700  0.11540900  0.62275700  1
  C  826  1  0.49442200  0.11386200  0.60308300  1
  C  827  1  0.50672500  0.11550700  0.58431800  1
  C  828  1  0.52968600  0.11976700  0.58545700  1
  C  829  1  0.53923000  0.12400800  0.60482000  1
  C  830  1  0.52712600  0.12088600  0.62280800  1
  C  843  1  0.56048600  0.13104900  0.60684800  1
  C  844  1  0.49716800  0.11066000  0.56513800  1
  C  845  1  0.50271200  0.11204200  0.69990300  1
  C  846  1  0.47582600  0.05687600  0.65617100  1
  C  851  1  0.99596600  0.39029100  0.37227300  1
  C  852  1  0.98734100  0.41022700  0.37286800  1
  C  853  1  0.98195100  0.42131300  0.35522700  1
  C  854  1  0.98628300  0.41313400  0.33550200  1
  C  855  1  0.99498300  0.39288200  0.33389300  1
  C  856  1  0.99928500  0.38146900  0.35232900  1
  C  859  1  0.00490700  0.38290100  0.39173200  1
  C  860  1  0.99443800  0.38438400  0.41140300  1
  C  861  1  0.00675400  0.38275000  0.43016200  1
  C  862  1  0.02972200  0.37851600  0.42902100  1
  C  863  1  0.03926100  0.37427400  0.40965300  1
  C  864  1  0.02715300  0.37739500  0.39166800  1
  C  877  1  0.06051200  0.36721900  0.40761800  1
  C  878  1  0.99719900  0.38757400  0.44935000  1
  C  879  1  0.00271100  0.38620600  0.31458300  1
  C  880  1  0.97584000  0.44137000  0.35830900  1
  C  885  1  0.24660500  0.11414700  0.36418200  1
  C  886  1  0.23860800  0.11490400  0.34404000  1
  C  887  1  0.23347100  0.09734300  0.33271700  1
  C  888  1  0.23739300  0.07754200  0.34089800  1
  C  889  1  0.24557800  0.07577200  0.36130600  1
  C  890  1  0.24966200  0.09412500  0.37293200  1
  C  893  1  0.25530500  0.13357100  0.37191600  1
  C  894  1  0.24482700  0.15323700  0.37029200  1
  C  895  1  0.25706200  0.17202400  0.37223300  1
  C  896  1  0.27992400  0.17090500  0.37693400  1
  C  897  1  0.28941600  0.15152300  0.38126400  1
  C  898  1  0.27741800  0.13351600  0.37785600  1
  C  911  1  0.31056600  0.14947900  0.38856300  1
  C  912  1  0.24756400  0.19120400  0.36723500  1
  C  913  1  0.25301600  0.05636600  0.36798300  1
  C  914  1  0.22799100  0.10063100  0.31254700  1
  C  919  1  0.74670600  0.38407300  0.65034100  1
  C  920  1  0.73868400  0.38330500  0.67047000  1
  C  921  1  0.73356300  0.40086900  0.68178800  1
  C  922  1  0.73744400  0.42067200  0.67359600  1
  C  923  1  0.74559200  0.42244100  0.65317400  1
  C  924  1  0.74967300  0.40408900  0.64154300  1
  C  927  1  0.75530800  0.36464900  0.64250800  1
  C  928  1  0.74483800  0.34498700  0.64418500  1
  C  929  1  0.75706400  0.32619900  0.64223200  1
  C  930  1  0.77992400  0.32731000  0.63751300  1
  C  931  1  0.78941700  0.34668800  0.63317500  1
  C  932  1  0.77742600  0.36469900  0.63658200  1
  C  945  1  0.81056900  0.34872800  0.62588100  1
  C  946  1  0.74757300  0.30701800  0.64724000  1
  C  947  1  0.75302000  0.44184500  0.64648500  1
  C  948  1  0.72804100  0.39759700  0.70195000  1
  C  953  1  0.98891100  0.39018800  0.64190900  1
  C  954  1  0.99711100  0.41027300  0.64122200  1
  C  955  1  0.00277800  0.42135100  0.65879300  1
  C  956  1  0.99889800  0.41311200  0.67857400  1
  C  957  1  0.99043700  0.39278500  0.68028500  1
  C  958  1  0.98615800  0.38127800  0.66190000  1
  C  961  1  0.97999900  0.38242600  0.62257600  1
  C  962  1  0.99003400  0.38414500  0.60271400  1
  C  963  1  0.97757400  0.38139100  0.58418700  1
  C  964  1  0.95499000  0.37576400  0.58565300  1
  C  965  1  0.94584300  0.37200800  0.60526500  1
  C  966  1  0.95795400  0.37621600  0.62301000  1
  C  979  1  0.92499200  0.36423900  0.60781300  1
  C  980  1  0.98626400  0.38649400  0.56476400  1
  C  981  1  0.98288000  0.38605400  0.69963500  1
  C  982  1  0.00894200  0.44138200  0.65564400  1
  C  987  1  0.48896700  0.10804800  0.37257400  1
  C  988  1  0.49716200  0.08795800  0.37326000  1
  C  989  1  0.50281100  0.07687100  0.35568700  1
  C  990  1  0.49892800  0.08511800  0.33590900  1
  C  991  1  0.49045200  0.10544100  0.33420400  1
  C  992  1  0.48614800  0.11693400  0.35258600  1
  C  995  1  0.47997000  0.11571500  0.39191300  1
  C  996  1  0.49004600  0.11407000  0.41176400  1
  C  997  1  0.47758400  0.11680300  0.43029300  1
  C  998  1  0.45498600  0.12238900  0.42883800  1
  C  999  1  0.44582700  0.12613800  0.40922900  1
  C  1000  1  0.45793100  0.12193800  0.39147800  1
  C  1013  1  0.42497500  0.13391400  0.40669000  1
  C  1014  1  0.48629700  0.11172700  0.44971400  1
  C  1015  1  0.48286500  0.11213600  0.31485100  1
  C  1016  1  0.50897500  0.05684100  0.35883300  1
  C  1021  1  0.23828800  0.38378200  0.36427600  1
  C  1022  1  0.24585600  0.38290400  0.34399500  1
  C  1023  1  0.25122800  0.40037500  0.33262700  1
  C  1024  1  0.24774000  0.42024100  0.34082500  1
  C  1025  1  0.23978200  0.42214400  0.36129400  1
  C  1026  1  0.23571400  0.40386600  0.37303600  1
  C  1029  1  0.22954900  0.36448700  0.37231200  1
  C  1030  1  0.23963100  0.34463800  0.37054500  1
  C  1031  1  0.22727100  0.32608700  0.37358200  1
  C  1032  1  0.20480300  0.32753000  0.37960500  1
  C  1033  1  0.19568400  0.34715000  0.38344200  1
  C  1034  1  0.20766100  0.36491900  0.37896200  1
  C  1047  1  0.17493200  0.34969500  0.39143300  1
  C  1048  1  0.23592300  0.30666200  0.36838000  1
  C  1049  1  0.23246700  0.44160400  0.36793600  1
  C  1050  1  0.25672700  0.39698500  0.31248200  1
  C  1055  1  0.73818400  0.11445100  0.65024200  1
  C  1056  1  0.74577200  0.11533800  0.67051100  1
  C  1057  1  0.75111900  0.09786200  0.68187600  1
  C  1058  1  0.74766400  0.07799400  0.67366800  1
  C  1059  1  0.73975000  0.07609600  0.65318100  1
  C  1060  1  0.73569600  0.09437600  0.64143500  1
  C  1063  1  0.72953500  0.13374600  0.64211600  1
  C  1064  1  0.73960100  0.15359400  0.64393400  1
  C  1065  1  0.72724800  0.17214300  0.64087900  1
  C  1066  1  0.70478300  0.17070400  0.63484200  1
  C  1067  1  0.69566700  0.15108200  0.63099800  1
  C  1068  1  0.70764200  0.13331200  0.63547600  1
  C  1081  1  0.67491600  0.14853600  0.62300600  1
  C  1082  1  0.73588500  0.19157000  0.64609500  1
  C  1083  1  0.73243200  0.05664300  0.64652100  1
  C  1084  1  0.75666000  0.10123400  0.70201400  1
  C  1089  1  0.98515200  0.38365200  0.77881500  1
  C  1091  1  0.00742200  0.37570600  0.74944400  1
  C  1092  1  0.99083100  0.38165500  0.73568600  1
  C  1094  1  0.96849500  0.38978600  0.76502000  1
  C  1096  1  0.95017300  0.39783300  0.77099700  1
  C  1100  1  0.48512400  0.11451000  0.23568300  1
  C  1102  1  0.50736500  0.12252900  0.26505100  1
  C  1103  1  0.49077600  0.11654700  0.27880000  1
  C  1105  1  0.46845300  0.10840500  0.24947100  1
  C  1107  1  0.45012000  0.10039200  0.24347500  1
  C  1111  1  0.23478300  0.47753900  0.14156500  1
  C  1113  1  0.25715200  0.50763900  0.13719300  1
  C  1114  1  0.23939100  0.52084200  0.14110300  1
  C  1116  1  0.21697100  0.49080000  0.14572900  1
  C  1118  1  0.19784700  0.48421700  0.15128700  1
  C  1122  1  0.73475200  0.02071200  0.87299000  1
  C  1124  1  0.75711800  0.99059800  0.87732900  1
  C  1125  1  0.73934800  0.97738100  0.87348700  1
  C  1127  1  0.71694000  0.00744800  0.86884600  1
  C  1129  1  0.69782700  0.01402400  0.86324500  1
  C  1133  1  0.50075200  0.11424400  0.77911400  1
  C  1135  1  0.47833700  0.12214400  0.74982500  1
  C  1136  1  0.49494800  0.11636400  0.73601400  1
  C  1138  1  0.51743200  0.10831400  0.76525700  1
  C  1140  1  0.53586100  0.10044000  0.77117700  1
  C  1144  1  0.00071300  0.38400400  0.23539400  1
  C  1146  1  0.97834300  0.37596600  0.26466900  1
  C  1147  1  0.99488800  0.38189700  0.27847800  1
  C  1149  1  0.01735300  0.39003300  0.24925200  1
  C  1151  1  0.03573500  0.39801400  0.24334400  1
  C  1155  1  0.25103500  0.02097700  0.14178400  1
  C  1157  1  0.22852700  0.99098700  0.13729300  1
  C  1158  1  0.24626100  0.97767500  0.14096100  1
  C  1160  1  0.26882500  0.00762600  0.14571400  1
  C  1162  1  0.28799200  0.01409500  0.15126700  1
  C  1166  1  0.75101700  0.47723700  0.87269900  1
  C  1168  1  0.72850300  0.50722100  0.87721000  1
  C  1169  1  0.74622300  0.52052700  0.87347500  1
  C  1171  1  0.76878800  0.49059300  0.86871200  1
  C  1173  1  0.78796100  0.48411500  0.86318100  1
  C  1177  1  0.99976600  0.61230300  0.23556600  1
  C  1179  1  0.97857500  0.61885000  0.26601900  1
  C  1180  1  0.99603600  0.61327300  0.27896100  1
  C  1182  1  0.01721800  0.60634800  0.24854800  1
  C  1184  1  0.03549700  0.59898100  0.24166400  1
  C  1188  1  0.49978900  0.88597800  0.77891900  1
  C  1190  1  0.47859300  0.87941800  0.74847300  1
  C  1191  1  0.49606900  0.88498600  0.73554000  1
  C  1193  1  0.51727300  0.89184900  0.76594100  1
  C  1195  1  0.53558700  0.89912300  0.77284100  1
  C  1199  1  0.48601900  0.88579500  0.23528200  1
  C  1201  1  0.50736000  0.87926600  0.26565000  1
  C  1202  1  0.48991500  0.88475800  0.27864300  1
  C  1204  1  0.46856900  0.89160700  0.24833600  1
  C  1206  1  0.45019500  0.89882600  0.24152100  1
  C  1210  1  0.98600200  0.61243000  0.77921000  1
  C  1212  1  0.00729800  0.61910000  0.74884700  1
  C  1213  1  0.98987400  0.61358600  0.73583100  1
  C  1215  1  0.96858000  0.60656600  0.76615200  1
  C  1217  1  0.95026300  0.59920000  0.77294700  1
  C  1221  1  0.73645700  0.97739400  0.64415300  1
  C  1223  1  0.75709700  0.00736800  0.63461000  1
  C  1224  1  0.74083900  0.02068600  0.64213900  1
  C  1226  1  0.72017900  0.99075900  0.65190500  1
  C  1228  1  0.70285500  0.98425400  0.66133800  1
  C  1232  1  0.23651300  0.52083900  0.37033900  1
  C  1234  1  0.25711400  0.49087700  0.37996400  1
  C  1235  1  0.24091600  0.47756500  0.37232100  1
  C  1237  1  0.22026100  0.50747700  0.36253000  1
  C  1239  1  0.20297000  0.51397500  0.35303700  1
  C  1243  1  0.74920700  0.52111200  0.64414600  1
  C  1245  1  0.72851800  0.49120300  0.63451000  1
  C  1246  1  0.74471900  0.47783200  0.64205100  1
  C  1248  1  0.76544100  0.50770000  0.65189700  1
  C  1250  1  0.78274700  0.51414000  0.66140000  1
  C  1254  1  0.24918800  0.97710900  0.37033600  1
  C  1256  1  0.22849400  0.00701500  0.37997400  1
  C  1257  1  0.24467300  0.02038200  0.37239100  1
  C  1259  1  0.26540400  0.99052500  0.36255400  1
  C  1261  1  0.28272800  0.98407800  0.35308000  1
  C  1265  1  0.99155600  0.52166300  0.85459900  1
  C  1267  1  0.00911800  0.49131400  0.86660000  1
  C  1268  1  0.99267100  0.47928000  0.85770400  1
  C  1270  1  0.97503300  0.50958400  0.84560000  1
  C  1272  1  0.95876500  0.51696700  0.83520100  1
  C  1276  1  0.49152500  0.97653600  0.15986600  1
  C  1278  1  0.50907300  0.00688000  0.14783500  1
  C  1279  1  0.49263200  0.01891900  0.15673600  1
  C  1281  1  0.47501600  0.98861900  0.16888000  1
  C  1283  1  0.45875300  0.98124000  0.17928900  1
  C  1287  1  0.24271600  0.39890200  0.27874100  1
  C  1289  1  0.26100800  0.38853700  0.24822500  1
  C  1290  1  0.24391100  0.39658000  0.23636400  1
  C  1292  1  0.22545200  0.40690200  0.26687100  1
  C  1294  1  0.20850800  0.41619300  0.27442100  1
  C  1298  1  0.74266500  0.09936300  0.73576400  1
  C  1300  1  0.76100600  0.10967400  0.76627400  1
  C  1301  1  0.74389900  0.10165900  0.77814200  1
  C  1303  1  0.72539100  0.09139600  0.74764000  1
  C  1305  1  0.70843900  0.08210700  0.74010100  1
  C  1309  1  0.49365900  0.97645100  0.85445700  1
  C  1311  1  0.47621600  0.00695300  0.86620100  1
  C  1312  1  0.49309100  0.01882300  0.85779400  1
  C  1314  1  0.51060000  0.98836600  0.84592300  1
  C  1316  1  0.52704600  0.98082600  0.83588600  1
  C  1320  1  0.99366400  0.52179500  0.16002600  1
  C  1322  1  0.97621700  0.49130400  0.14825800  1
  C  1323  1  0.99306000  0.47942500  0.15670900  1
  C  1325  1  0.01057900  0.50987100  0.16858800  1
  C  1327  1  0.02701400  0.51740300  0.17864900  1
  C  1331  1  0.24241400  0.09909900  0.27891000  1
  C  1333  1  0.22427300  0.10917400  0.24822200  1
  C  1334  1  0.24176900  0.10163800  0.23653300  1
  C  1336  1  0.26007300  0.09160600  0.26721500  1
  C  1338  1  0.27715400  0.08267600  0.27493300  1
  C  1342  1  0.74242900  0.39912300  0.73560000  1
  C  1344  1  0.72423300  0.38912700  0.76628400  1
  C  1345  1  0.74172900  0.39665600  0.77797700  1
  C  1347  1  0.76008200  0.40662100  0.74730200  1
  C  1349  1  0.77719700  0.41549500  0.73958600  1
  C  1353  1  0.74125100  0.59559900  0.73478300  1
  C  1355  1  0.72204700  0.60514500  0.76513200  1
  C  1356  1  0.73937300  0.59784000  0.77716100  1
  C  1358  1  0.75850300  0.58791800  0.74687700  1
  C  1360  1  0.77592200  0.57926200  0.73952900  1
  C  1364  1  0.24127700  0.90261100  0.27972300  1
  C  1366  1  0.22205600  0.89313400  0.24936200  1
  C  1367  1  0.23939000  0.90044000  0.23734400  1
  C  1369  1  0.25853500  0.91029600  0.26763900  1
  C  1371  1  0.27597000  0.91891500  0.27499800  1
  C  1375  1  0.74471700  0.90274600  0.73470500  1
  C  1377  1  0.76367600  0.89335800  0.76523300  1
  C  1378  1  0.74604800  0.90030600  0.77709000  1
  C  1380  1  0.72714100  0.91004700  0.74663000  1
  C  1382  1  0.70964700  0.91842200  0.73911000  1
  C  1386  1  0.24467500  0.59554600  0.27981300  1
  C  1388  1  0.26366000  0.60486900  0.24928100  1
  C  1389  1  0.24602100  0.59793600  0.23742600  1
  C  1391  1  0.22709600  0.58824700  0.26789500  1
  C  1393  1  0.20960000  0.57987800  0.27541700  1
  C  1397  1  0.49561200  0.02279000  0.35682200  1
  C  1399  1  0.51537300  0.99219100  0.36429300  1
  C  1400  1  0.49733800  0.98035500  0.35822700  1
  C  1402  1  0.47753700  0.01093400  0.35055800  1
  C  1404  1  0.45945200  0.01849700  0.34339200  1
  C  1408  1  0.99557900  0.47543200  0.65765800  1
  C  1410  1  0.01533000  0.50602900  0.65015700  1
  C  1411  1  0.99731600  0.51786500  0.65627300  1
  C  1413  1  0.97751800  0.48728900  0.66395900  1
  C  1415  1  0.95944800  0.47972800  0.67116000  1
  C  1419  1  0.98969800  0.47530100  0.35677500  1
  C  1421  1  0.97024700  0.50611000  0.36405500  1
  C  1422  1  0.98858600  0.51774300  0.35840400  1
  C  1424  1  0.00809600  0.48695100  0.35095000  1
  C  1426  1  0.02621000  0.47918400  0.34406700  1
  C  1430  1  0.48967000  0.02294000  0.65770200  1
  C  1432  1  0.47021500  0.99213600  0.65040800  1
  C  1433  1  0.48854200  0.98049900  0.65608400  1
  C  1435  1  0.50805400  0.01128400  0.66355500  1
  C  1437  1  0.52617200  0.01904600  0.67043000  1
  C  1441  1  0.89031100  0.36816800  0.89589400  1
  C  1443  1  0.85832600  0.34934300  0.90514300  1
  C  1444  1  0.84592300  0.36017100  0.89060000  1
  C  1446  1  0.87789200  0.37901700  0.88128700  1
  C  1448  1  0.88598100  0.39306200  0.86949200  1
  C  1452  1  0.39030300  0.13003700  0.11860500  1
  C  1454  1  0.35831300  0.14884300  0.10932700  1
  C  1455  1  0.34591800  0.13804700  0.12390100  1
  C  1457  1  0.37788600  0.11920700  0.13322700  1
  C  1459  1  0.38597500  0.10517100  0.14503400  1
  C  1463  1  0.14046400  0.36084500  0.12569400  1
  C  1465  1  0.10832100  0.35173200  0.10704400  1
  C  1466  1  0.09606000  0.36634700  0.11792100  1
  C  1468  1  0.12818100  0.37550700  0.13660800  1
  C  1470  1  0.13640800  0.38726700  0.15061100  1
  C  1474  1  0.64043500  0.13742800  0.88877300  1
  C  1476  1  0.60830000  0.14654000  0.90743600  1
  C  1477  1  0.59603200  0.13192700  0.89656200  1
  C  1479  1  0.62814500  0.12277000  0.87786000  1
  C  1481  1  0.63637000  0.11100300  0.86386300  1
  C  1485  1  0.09491600  0.62873900  0.12015200  1
  C  1487  1  0.12656100  0.64811400  0.11093600  1
  C  1488  1  0.13911800  0.63758100  0.12557100  1
  C  1490  1  0.10750300  0.61817200  0.13483300  1
  C  1492  1  0.09964900  0.60402100  0.14663200  1
  C  1496  1  0.59492500  0.86948400  0.89432000  1
  C  1498  1  0.62656600  0.85009800  0.90352400  1
  C  1499  1  0.63913100  0.86065300  0.88891000  1
  C  1501  1  0.60751800  0.88006600  0.87965400  1
  C  1503  1  0.59966700  0.89422300  0.86786000  1
  C  1507  1  0.84574600  0.63690400  0.88723300  1
  C  1509  1  0.87783800  0.64525100  0.90626900  1
  C  1510  1  0.88997900  0.63063100  0.89526400  1
  C  1512  1  0.85786000  0.62216500  0.87625600  1
  C  1514  1  0.84953100  0.61067000  0.86208800  1
  C  1518  1  0.34575500  0.86129200  0.12725600  1
  C  1520  1  0.37784300  0.85294400  0.10821700  1
  C  1521  1  0.38998500  0.86757000  0.11921400  1
  C  1523  1  0.35786900  0.87604100  0.13822300  1
  C  1525  1  0.34954000  0.88753600  0.15238900  1
  C  1529  1  0.39011200  0.86974100  0.39449900  1
  C  1531  1  0.35810100  0.85045000  0.40256000  1
  C  1532  1  0.34596700  0.86144900  0.38793000  1
  C  1534  1  0.37801300  0.88070800  0.37974300  1
  C  1536  1  0.38631800  0.89497900  0.36836300  1
  C  1540  1  0.89009700  0.62844500  0.61999800  1
  C  1542  1  0.85808700  0.64772900  0.61191400  1
  C  1543  1  0.84596200  0.63676800  0.62658000  1
  C  1545  1  0.87800100  0.61750500  0.63477500  1
  C  1547  1  0.88630400  0.60324100  0.64616800  1
  C  1551  1  0.64055600  0.86243500  0.62841900  1
  C  1553  1  0.60897200  0.85335700  0.60889000  1
  C  1554  1  0.59643600  0.86809600  0.61931100  1
  C  1556  1  0.62799500  0.87722900  0.63886300  1
  C  1558  1  0.63583400  0.88902800  0.65301700  1
  C  1562  1  0.14053500  0.63582600  0.38609900  1
  C  1564  1  0.10895100  0.64491100  0.40562500  1
  C  1565  1  0.09640900  0.63018300  0.39519700  1
  C  1567  1  0.12796600  0.62104400  0.37564500  1
  C  1569  1  0.13580500  0.60924300  0.36149200  1
  C  1573  1  0.59533500  0.12626500  0.62168800  1
  C  1575  1  0.62693200  0.14620400  0.61364200  1
  C  1576  1  0.63917300  0.13578900  0.62861300  1
  C  1578  1  0.60754400  0.11588500  0.63677900  1
  C  1580  1  0.59947400  0.10162300  0.64830900  1
  C  1584  1  0.09535900  0.37198700  0.39277000  1
  C  1586  1  0.12695100  0.35203700  0.40080400  1
  C  1587  1  0.13919500  0.36245800  0.38584100  1
  C  1589  1  0.10756900  0.38236800  0.37767900  1
  C  1591  1  0.09950100  0.39663300  0.36615200  1
  C  1595  1  0.34556200  0.13487700  0.38393100  1
  C  1597  1  0.37692400  0.14289900  0.40418700  1
  C  1598  1  0.38937900  0.12814600  0.39367600  1
  C  1600  1  0.35797800  0.11998900  0.37346600  1
  C  1602  1  0.35012300  0.10857200  0.35901300  1
  C  1606  1  0.84557000  0.36331900  0.63052400  1
  C  1608  1  0.87693300  0.35528700  0.61027600  1
  C  1609  1  0.88939000  0.37003900  0.62079000  1
  C  1611  1  0.85798400  0.37820900  0.64098700  1
  C  1613  1  0.85012700  0.38962900  0.65543800  1
  C  1617  1  0.99025100  0.38291700  0.98597300  1
  C  1619  1  0.99124400  0.36345500  0.01730600  1
  C  1620  1  0.99539900  0.38094900  0.02921000  1
  C  1622  1  0.99459900  0.40059600  0.99790700  1
  C  1624  1  0.99639900  0.41874200  0.99022900  1
  C  1628  1  0.49025600  0.11530600  0.02852400  1
  C  1630  1  0.49121300  0.13476100  0.99718600  1
  C  1631  1  0.49536600  0.11726400  0.98528400  1
  C  1633  1  0.49458500  0.09762400  0.01658900  1
  C  1635  1  0.49638100  0.07947700  0.02426800  1
  C  1639  1  0.24028600  0.27038100  0.13960400  1
  C  1641  1  0.24135600  0.23905500  0.12012600  1
  C  1642  1  0.24543400  0.22713700  0.13761700  1
  C  1644  1  0.24451300  0.25842300  0.15728800  1
  C  1646  1  0.24617200  0.26607700  0.17544700  1
  C  1650  1  0.74032000  0.22784200  0.87486900  1
  C  1652  1  0.74128200  0.25918100  0.89433200  1
  C  1653  1  0.74536500  0.27110500  0.87684400  1
  C  1655  1  0.74456200  0.23980100  0.85719100  1
  C  1657  1  0.74629300  0.23214100  0.83903900  1
  C  1661  1  0.99501600  0.61950300  0.02850000  1
  C  1663  1  0.99400500  0.63911000  0.99727700  1
  C  1664  1  0.99049300  0.62157600  0.98525700  1
  C  1666  1  0.99136800  0.60177900  0.01643200  1
  C  1668  1  0.99018900  0.58351200  0.02394100  1
  C  1672  1  0.49514800  0.87872300  0.98600500  1
  C  1674  1  0.49410500  0.85910200  0.01721600  1
  C  1675  1  0.49047700  0.87661900  0.02922800  1
  C  1677  1  0.49136200  0.89643100  0.99806200  1
  C  1679  1  0.49012900  0.91469400  0.99055500  1
  C  1683  1  0.74523800  0.72782200  0.87493900  1
  C  1685  1  0.74425700  0.75916400  0.89440000  1
  C  1686  1  0.74040800  0.77111100  0.87688100  1
  C  1688  1  0.74125200  0.73980700  0.85722800  1
  C  1690  1  0.73977100  0.73216900  0.83904700  1
  C  1694  1  0.24522400  0.77039900  0.13957300  1
  C  1696  1  0.24418200  0.73906800  0.12009500  1
  C  1697  1  0.24034800  0.72711800  0.13761500  1
  C  1699  1  0.24128700  0.75840300  0.15728800  1
  C  1701  1  0.23987500  0.76603100  0.17547800  1
  C  1705  1  0.49035600  0.88200600  0.48596500  1
  C  1707  1  0.49142600  0.86253700  0.51730000  1
  C  1708  1  0.49531500  0.88006500  0.52923900  1
  C  1710  1  0.49444600  0.89971600  0.49793200  1
  C  1712  1  0.49596200  0.91790200  0.49028900  1
  C  1716  1  0.99037400  0.61619600  0.52853600  1
  C  1718  1  0.99140400  0.63565800  0.49719600  1
  C  1719  1  0.99529200  0.61812900  0.48526000  1
  C  1721  1  0.99444300  0.59848200  0.51656600  1
  C  1723  1  0.99595600  0.58029600  0.52421100  1
  C  1727  1  0.74046700  0.77033500  0.63740600  1
  C  1729  1  0.74170000  0.73913800  0.61777000  1
  C  1730  1  0.74531300  0.72712800  0.63528200  1
  C  1732  1  0.74423200  0.75827500  0.65510900  1
  C  1734  1  0.74535900  0.76576300  0.67337700  1
  C  1738  1  0.24045600  0.72789800  0.37712600  1
  C  1740  1  0.24159400  0.75910800  0.39674800  1
  C  1741  1  0.24524200  0.77111800  0.37924100  1
  C  1743  1  0.24430100  0.73994900  0.35943200  1
  C  1745  1  0.24553100  0.73245400  0.34117200  1
  C  1749  1  0.49499500  0.12001300  0.52852000  1
  C  1751  1  0.49377500  0.13960500  0.49729400  1
  C  1752  1  0.49050800  0.12202900  0.48527200  1
  C  1754  1  0.49158400  0.10225000  0.51645200  1
  C  1756  1  0.49075000  0.08396500  0.52396400  1
  C  1760  1  0.99513000  0.37822000  0.48598300  1
  C  1762  1  0.99389200  0.35861700  0.51719800  1
  C  1763  1  0.99049100  0.37617800  0.52920800  1
  C  1765  1  0.99155700  0.39596500  0.49803600  1
  C  1767  1  0.99064900  0.41424700  0.49052300  1
  C  1771  1  0.24509500  0.22784300  0.37660900  1
  C  1773  1  0.24393100  0.25908600  0.39619700  1
  C  1774  1  0.24047200  0.27110700  0.37865700  1
  C  1776  1  0.24149400  0.23990800  0.35888200  1
  C  1778  1  0.24050800  0.23239100  0.34061700  1
  C  1782  1  0.74508100  0.27038400  0.63785700  1
  C  1784  1  0.74385500  0.23915000  0.61826100  1
  C  1785  1  0.74041500  0.22713000  0.63580200  1
  C  1787  1  0.74153600  0.25831300  0.65559000  1
  C  1789  1  0.74061500  0.26582400  0.67386100  1
  N  8  1  0.99604400  0.42672100  0.81770700  1
  N  15  1  0.94245200  0.37570700  0.94637000  1
  N  17  1  0.98979700  0.36179300  0.85376600  1
  N  18  1  0.00853900  0.39836400  0.91117800  1
  N  42  1  0.49610200  0.07149700  0.19678600  1
  N  49  1  0.44244300  0.12244700  0.06812700  1
  N  51  1  0.48975500  0.13641200  0.16071900  1
  N  52  1  0.50857800  0.09988600  0.10331100  1
  N  76  1  0.24667700  0.43827800  0.18429700  1
  N  83  1  0.19249300  0.31015800  0.13272500  1
  N  85  1  0.23970800  0.40300500  0.11902500  1
  N  86  1  0.25901300  0.34504500  0.15478600  1
  N  110  1  0.74666500  0.05995000  0.83022700  1
  N  117  1  0.69249900  0.18809700  0.88172600  1
  N  119  1  0.73972900  0.09525200  0.89549300  1
  N  120  1  0.75899400  0.15315300  0.85969100  1
  N  144  1  0.49042000  0.07105400  0.81818200  1
  N  151  1  0.54369900  0.12617200  0.94618500  1
  N  153  1  0.49595800  0.13618100  0.85393900  1
  N  154  1  0.47891000  0.09913700  0.91205400  1
  N  178  1  0.99034100  0.42716300  0.19631900  1
  N  185  1  0.04372800  0.37213200  0.06831800  1
  N  187  1  0.99601500  0.36205700  0.16054400  1
  N  188  1  0.97887700  0.39907000  0.10243300  1
  N  212  1  0.23977500  0.06039000  0.18476000  1
  N  219  1  0.29371500  0.18782700  0.12909400  1
  N  221  1  0.24600100  0.09539700  0.11930300  1
  N  222  1  0.22843300  0.15405000  0.15556000  1
  N  246  1  0.73976000  0.43784000  0.82976600  1
  N  253  1  0.79369000  0.31037600  0.88537700  1
  N  255  1  0.74596300  0.40280600  0.89521700  1
  N  256  1  0.72844100  0.34421100  0.85891600  1
  N  280  1  0.97516400  0.57479800  0.19449200  1
  N  287  1  0.04290100  0.62197700  0.06894600  1
  N  289  1  0.00065400  0.63776000  0.16275600  1
  N  290  1  0.97303900  0.60807500  0.10234000  1
  N  314  1  0.47514000  0.92344400  0.81999100  1
  N  321  1  0.54294100  0.87628700  0.94551800  1
  N  323  1  0.50065300  0.86049700  0.85173100  1
  N  324  1  0.47304800  0.89016600  0.91216100  1
  N  348  1  0.75342500  0.55925900  0.82840500  1
  N  355  1  0.79333100  0.68835800  0.88010000  1
  N  357  1  0.75130900  0.59389800  0.89437600  1
  N  358  1  0.72604900  0.65290800  0.86103400  1
  N  382  1  0.25347800  0.93896800  0.18608100  1
  N  389  1  0.29332700  0.80984200  0.13439800  1
  N  391  1  0.25127200  0.90429300  0.12012100  1
  N  392  1  0.22608100  0.84532700  0.15351200  1
  N  416  1  0.50994000  0.92361400  0.19397700  1
  N  423  1  0.44201500  0.87186700  0.06928100  1
  N  425  1  0.48540000  0.86022300  0.16255400  1
  N  426  1  0.51105700  0.89096300  0.10143800  1
  N  450  1  0.00997100  0.57460800  0.82050000  1
  N  457  1  0.94201100  0.62626500  0.94521900  1
  N  459  1  0.98536900  0.63796200  0.85194900  1
  N  460  1  0.01107900  0.60725400  0.91304000  1
  N  484  1  0.73193900  0.93866400  0.82821300  1
  N  491  1  0.69173500  0.81001600  0.88373700  1
  N  493  1  0.73434200  0.90414400  0.89422200  1
  N  494  1  0.75793300  0.84447000  0.86020500  1
  N  518  1  0.23196000  0.55957200  0.18630900  1
  N  525  1  0.19171900  0.68820200  0.13073200  1
  N  527  1  0.23437500  0.59407900  0.12028600  1
  N  528  1  0.25789400  0.65374600  0.15431600  1
  N  552  1  0.48362100  0.92963300  0.31787400  1
  N  559  1  0.44235300  0.87685500  0.44627500  1
  N  561  1  0.48427900  0.86316300  0.35165400  1
  N  562  1  0.50984700  0.89582800  0.41115500  1
  N  586  1  0.98362800  0.56863300  0.69665200  1
  N  593  1  0.94235200  0.62125200  0.56820700  1
  N  595  1  0.98426700  0.63506600  0.66280200  1
  N  596  1  0.00988600  0.60241300  0.60335000  1
  N  620  1  0.76217000  0.93638300  0.68104400  1
  N  627  1  0.69249900  0.81081300  0.63541000  1
  N  629  1  0.73453600  0.90440100  0.61905600  1
  N  630  1  0.76264700  0.84403900  0.64848200  1
  N  654  1  0.26214300  0.56188000  0.33345100  1
  N  661  1  0.19249200  0.68742500  0.37912600  1
  N  663  1  0.23456000  0.59383700  0.39548000  1
  N  664  1  0.26263100  0.65418400  0.36605900  1
  N  688  1  0.00251400  0.56826500  0.31826300  1
  N  695  1  0.04394300  0.62501100  0.44615500  1
  N  697  1  0.00152200  0.63483000  0.35181800  1
  N  698  1  0.97755400  0.60154700  0.41200500  1
  N  722  1  0.50241800  0.92997300  0.69623100  1
  N  729  1  0.54396300  0.87330200  0.56834800  1
  N  731  1  0.50156400  0.86341000  0.66267700  1
  N  732  1  0.47751100  0.89662700  0.60249500  1
  N  756  1  0.72396900  0.56237200  0.68119200  1
  N  763  1  0.79396600  0.68709700  0.63106800  1
  N  765  1  0.75087100  0.59401400  0.61881400  1
  N  766  1  0.72457100  0.65506700  0.64926100  1
  N  790  1  0.22397900  0.93583700  0.33329900  1
  N  797  1  0.29394900  0.81111500  0.38345500  1
  N  799  1  0.25085400  0.90420600  0.39570300  1
  N  800  1  0.22457000  0.84317700  0.36526800  1
  N  824  1  0.48253600  0.07305200  0.69573700  1
  N  831  1  0.54305400  0.11890800  0.56868500  1
  N  833  1  0.50603400  0.13655800  0.66350300  1
  N  834  1  0.47230400  0.11123900  0.60248100  1
  N  858  1  0.98252800  0.42517300  0.31874600  1
  N  865  1  0.04309100  0.37940100  0.44579100  1
  N  867  1  0.00604700  0.36168500  0.35098600  1
  N  868  1  0.97231600  0.38697700  0.41200500  1
  N  892  1  0.23370700  0.06084900  0.32875200  1
  N  899  1  0.29326300  0.18771700  0.37640700  1
  N  901  1  0.25596600  0.09261600  0.39282300  1
  N  902  1  0.22277100  0.15380300  0.36721200  1
  N  926  1  0.73375600  0.43736900  0.68573900  1
  N  933  1  0.79325900  0.31049600  0.63803700  1
  N  935  1  0.75593300  0.40558600  0.62163900  1
  N  936  1  0.72279000  0.34443000  0.64727700  1
  N  960  1  0.00286600  0.42512700  0.69530000  1
  N  967  1  0.94162700  0.37467700  0.56888900  1
  N  969  1  0.97994500  0.36134000  0.66336000  1
  N  970  1  0.01192500  0.38793800  0.60159100  1
  N  994  1  0.50291200  0.07310600  0.31918200  1
  N  1001  1  0.44162900  0.12344100  0.44560900  1
  N  1003  1  0.47990900  0.13686100  0.35112500  1
  N  1004  1  0.51194800  0.11032800  0.41287100  1
  N  1028  1  0.25163400  0.43687800  0.32866100  1
  N  1035  1  0.19151700  0.31072600  0.38098700  1
  N  1037  1  0.22992600  0.40553100  0.39305200  1
  N  1038  1  0.26144100  0.34356000  0.36633300  1
  N  1062  1  0.75154400  0.06135300  0.68583200  1
  N  1069  1  0.69149400  0.18750400  0.63345800  1
  N  1071  1  0.72995600  0.09272700  0.62140400  1
  N  1072  1  0.76140500  0.15467000  0.64816100  1
  N  1090  1  0.00410900  0.37714000  0.77000500  1
  N  1093  1  0.97216400  0.38883800  0.74448600  1
  N  1097  1  0.93405900  0.40503900  0.77630900  1
  N  1098  1  0.98366600  0.38762800  0.79903800  1
  N  1099  1  0.99516700  0.38409100  0.71561100  1
  N  1101  1  0.50407000  0.12105800  0.24448900  1
  N  1104  1  0.47210600  0.10937000  0.27000500  1
  N  1108  1  0.43399600  0.09321700  0.23815000  1
  N  1109  1  0.48366100  0.11056300  0.21545300  1
  N  1110  1  0.49514300  0.11414600  0.29887500  1
  N  1112  1  0.25426500  0.48696000  0.13780700  1
  N  1115  1  0.22011700  0.51143700  0.14561200  1
  N  1119  1  0.18101100  0.47839000  0.15632800  1
  N  1120  1  0.23348900  0.45724600  0.14527500  1
  N  1121  1  0.24244500  0.54092500  0.14487900  1
  N  1123  1  0.75424100  0.01127800  0.87668700  1
  N  1126  1  0.72009200  0.98681200  0.86895600  1
  N  1130  1  0.68099900  0.01984500  0.85816800  1
  N  1131  1  0.73347800  0.04100000  0.86925300  1
  N  1132  1  0.74240000  0.95731800  0.86962800  1
  N  1134  1  0.48171400  0.12064800  0.77037400  1
  N  1137  1  0.51371000  0.10931200  0.74473400  1
  N  1141  1  0.55207300  0.09338700  0.77643400  1
  N  1142  1  0.50231500  0.11027000  0.79933200  1
  N  1143  1  0.49052400  0.11397200  0.71595100  1
  N  1145  1  0.98172300  0.37746100  0.24412200  1
  N  1148  1  0.01362600  0.38903100  0.26977500  1
  N  1152  1  0.05190300  0.40516200  0.23810000  1
  N  1153  1  0.00229600  0.38797600  0.21517500  1
  N  1154  1  0.99050100  0.38421600  0.29855800  1
  N  1156  1  0.23149000  0.01165100  0.13807200  1
  N  1159  1  0.26558200  0.98700300  0.14547200  1
  N  1163  1  0.30487100  0.01981800  0.15630600  1
  N  1164  1  0.25241500  0.04125600  0.14555700  1
  N  1165  1  0.24313400  0.95761000  0.14474400  1
  N  1167  1  0.73147700  0.48655700  0.87645700  1
  N  1170  1  0.76554900  0.51121600  0.86895600  1
  N  1174  1  0.80484200  0.47838500  0.85816200  1
  N  1175  1  0.75240100  0.45695200  0.86896200  1
  N  1176  1  0.74310400  0.54060600  0.86975900  1
  N  1178  1  0.98101700  0.61799000  0.24531200  1
  N  1181  1  0.01448200  0.60681600  0.26923100  1
  N  1185  1  0.05159900  0.59237900  0.23559200  1
  N  1186  1  0.00016900  0.60874500  0.21519500  1
  N  1187  1  0.99296300  0.60980700  0.29909100  1
  N  1189  1  0.48102600  0.88031000  0.76918100  1
  N  1192  1  0.51454600  0.89137300  0.74526000  1
  N  1196  1  0.55172200  0.90564400  0.77892400  1
  N  1197  1  0.50017600  0.88951200  0.79929700  1
  N  1198  1  0.49296000  0.88839600  0.71540300  1
  N  1200  1  0.50483600  0.88016900  0.24495400  1
  N  1203  1  0.47137000  0.89109400  0.26901000  1
  N  1207  1  0.43400600  0.90530300  0.23551600  1
  N  1208  1  0.48548900  0.88935500  0.21491300  1
  N  1209  1  0.49302400  0.88811700  0.29879000  1
  N  1211  1  0.00479100  0.61813700  0.76954200  1
  N  1214  1  0.97138900  0.60711200  0.74548100  1
  N  1218  1  0.93412600  0.59259600  0.77893700  1
  N  1219  1  0.98548500  0.60884500  0.79957500  1
  N  1220  1  0.99302000  0.61017600  0.71570300  1
  N  1222  1  0.75443200  0.98672100  0.63609300  1
  N  1225  1  0.72320300  0.01139900  0.65083200  1
  N  1229  1  0.68759800  0.97850700  0.66973400  1
  N  1230  1  0.73614500  0.95705800  0.64792000  1
  N  1231  1  0.74494400  0.04082200  0.64449500  1
  N  1233  1  0.25444100  0.51152500  0.37849600  1
  N  1236  1  0.22329300  0.48683800  0.36359000  1
  N  1240  1  0.18774400  0.51971700  0.34459100  1
  N  1241  1  0.23616200  0.54118000  0.36659200  1
  N  1242  1  0.24498400  0.45741800  0.36999200  1
  N  1244  1  0.73122800  0.51184100  0.63603300  1
  N  1247  1  0.76235200  0.48707100  0.65080300  1
  N  1251  1  0.79799100  0.51982700  0.66986000  1
  N  1252  1  0.74961100  0.54145100  0.64789100  1
  N  1253  1  0.74057600  0.45770900  0.64443400  1
  N  1255  1  0.23121700  0.98637800  0.37847000  1
  N  1258  1  0.26231900  0.01115500  0.36365000  1
  N  1262  1  0.29798500  0.97838500  0.34464800  1
  N  1263  1  0.24960000  0.95676700  0.36660400  1
  N  1264  1  0.24055900  0.04051600  0.37006300  1
  N  1266  1  0.00791700  0.51187700  0.86473600  1
  N  1269  1  0.97641800  0.48904100  0.84744200  1
  N  1273  1  0.94445500  0.52349700  0.82596800  1
  N  1274  1  0.99107600  0.54180600  0.85302800  1
  N  1275  1  0.99409000  0.45915300  0.85837900  1
  N  1277  1  0.50787600  0.98631700  0.14971200  1
  N  1280  1  0.47639700  0.00916100  0.16702600  1
  N  1284  1  0.44444800  0.97471200  0.18852900  1
  N  1285  1  0.49104700  0.95639400  0.16144700  1
  N  1286  1  0.49407100  0.03904400  0.15607200  1
  N  1288  1  0.25980800  0.39005000  0.26881800  1
  N  1291  1  0.22693100  0.40552800  0.24632800  1
  N  1295  1  0.19362500  0.42446900  0.28111600  1
  N  1296  1  0.24227300  0.40059000  0.29881700  1
  N  1297  1  0.24530500  0.39646700  0.21622700  1
  N  1299  1  0.75979000  0.10817100  0.74568000  1
  N  1302  1  0.72690000  0.09273800  0.76818300  1
  N  1306  1  0.69355100  0.07383200  0.73341500  1
  N  1307  1  0.74220300  0.09768600  0.71568800  1
  N  1308  1  0.74533400  0.10170400  0.79827600  1
  N  1310  1  0.47716800  0.98638500  0.86425500  1
  N  1313  1  0.50946800  0.00891600  0.84785200  1
  N  1317  1  0.54151100  0.97415100  0.82697300  1
  N  1318  1  0.49393200  0.95631100  0.85284100  1
  N  1319  1  0.49189600  0.03895800  0.85847900  1
  N  1321  1  0.97718200  0.51187100  0.15020000  1
  N  1324  1  0.00943400  0.48932200  0.16666500  1
  N  1328  1  0.04146800  0.52406800  0.18758200  1
  N  1329  1  0.99394600  0.54193400  0.16164200  1
  N  1330  1  0.99186600  0.45928900  0.15600500  1
  N  1332  1  0.22521700  0.10757600  0.26882100  1
  N  1335  1  0.25884500  0.09304300  0.24666000  1
  N  1339  1  0.29215800  0.07471800  0.28177900  1
  N  1340  1  0.24264100  0.09735400  0.29898300  1
  N  1341  1  0.24061400  0.10175500  0.21638500  1
  N  1343  1  0.72520800  0.39068400  0.74568400  1
  N  1346  1  0.75883300  0.40520900  0.76785700  1
  N  1350  1  0.79222900  0.42340500  0.73274100  1
  N  1351  1  0.74268700  0.40083400  0.71552600  1
  N  1352  1  0.74056500  0.39656100  0.79812500  1
  N  1354  1  0.72369800  0.60384800  0.74455100  1
  N  1357  1  0.75673600  0.58931300  0.76740600  1
  N  1361  1  0.79125700  0.57155800  0.73304400  1
  N  1362  1  0.74221200  0.59445400  0.71464700  1
  N  1363  1  0.73807000  0.59803100  0.79729500  1
  N  1365  1  0.22371100  0.89439500  0.26994400  1
  N  1368  1  0.25676500  0.90893400  0.24711000  1
  N  1372  1  0.29131800  0.92658800  0.28149200  1
  N  1373  1  0.24225000  0.90372000  0.29986100  1
  N  1374  1  0.23808700  0.90029200  0.21721000  1
  N  1376  1  0.76229100  0.89474000  0.74464000  1
  N  1379  1  0.72864700  0.90857300  0.76717300  1
  N  1383  1  0.69425000  0.92587900  0.73246800  1
  N  1384  1  0.74398400  0.90394100  0.71456500  1
  N  1385  1  0.74710800  0.90004900  0.79723700  1
  N  1387  1  0.26226400  0.60351800  0.26987400  1
  N  1390  1  0.22861500  0.58968800  0.24735000  1
  N  1394  1  0.19420100  0.57242400  0.28206200  1
  N  1395  1  0.24392700  0.59438300  0.29995500  1
  N  1396  1  0.24709500  0.59811900  0.21728100  1
  N  1398  1  0.51383900  0.01282700  0.36337400  1
  N  1401  1  0.47929500  0.99038000  0.35142100  1
  N  1405  1  0.44355000  0.02519100  0.33697900  1
  N  1406  1  0.49475200  0.04289200  0.35554700  1
  N  1407  1  0.49856100  0.96018700  0.35781100  1
  N  1409  1  0.01379300  0.48539400  0.65107100  1
  N  1412  1  0.97928000  0.50784300  0.66310400  1
  N  1416  1  0.94355900  0.47303500  0.67760500  1
  N  1417  1  0.99471500  0.45533100  0.65893000  1
  N  1418  1  0.99853400  0.53803400  0.65667100  1
  N  1420  1  0.97148200  0.48546100  0.36303700  1
  N  1423  1  0.00662500  0.50752300  0.35188500  1
  N  1427  1  0.04213600  0.47230600  0.33790200  1
  N  1428  1  0.99029400  0.45520000  0.35540800  1
  N  1429  1  0.98764000  0.53792100  0.35801700  1
  N  1431  1  0.47145800  0.01278500  0.65142000  1
  N  1434  1  0.50658000  0.99071200  0.66261300  1
  N  1438  1  0.54210200  0.02592200  0.67658900  1
  N  1439  1  0.49027300  0.04304000  0.65906500  1
  N  1440  1  0.48759500  0.96031800  0.65645400  1
  N  1442  1  0.87983300  0.35377400  0.90721600  1
  N  1445  1  0.85639400  0.37441000  0.87920100  1
  N  1449  1  0.89317500  0.40543600  0.85909300  1
  N  1450  1  0.91127300  0.37229400  0.89889500  1
  N  1451  1  0.82506200  0.35700900  0.88648000  1
  N  1453  1  0.37982500  0.14441800  0.10726500  1
  N  1456  1  0.35638800  0.12381500  0.13531000  1
  N  1460  1  0.39316700  0.09280500  0.15544400  1
  N  1461  1  0.41127200  0.12592800  0.11563000  1
  N  1462  1  0.32505400  0.14120300  0.12800600  1
  N  1464  1  0.12984500  0.34956400  0.11136200  1
  N  1467  1  0.10666900  0.37769400  0.13211000  1
  N  1471  1  0.14372300  0.39763500  0.16294800  1
  N  1472  1  0.16144200  0.35776800  0.12968900  1
  N  1473  1  0.07520800  0.37057500  0.11486900  1
  N  1475  1  0.62982400  0.14870300  0.90311600  1
  N  1478  1  0.60663700  0.12057800  0.88237200  1
  N  1482  1  0.64368300  0.10062800  0.85153000  1
  N  1483  1  0.66141500  0.14049700  0.88478300  1
  N  1484  1  0.57519300  0.12767600  0.89965600  1
  N  1486  1  0.10517200  0.64328000  0.10883100  1
  N  1489  1  0.12890500  0.62315900  0.13695300  1
  N  1493  1  0.09265900  0.59155100  0.15703800  1
  N  1494  1  0.07398100  0.62438600  0.11713500  1
  N  1495  1  0.15995000  0.64099300  0.12960400  1
  N  1497  1  0.60517600  0.85493100  0.90562900  1
  N  1500  1  0.62892100  0.87508200  0.87753600  1
  N  1504  1  0.59268000  0.90670100  0.85746100  1
  N  1505  1  0.57398400  0.87382400  0.89731800  1
  N  1506  1  0.65995900  0.85723500  0.88486800  1
  N  1508  1  0.85640500  0.64779700  0.90182400  1
  N  1511  1  0.87930600  0.61961400  0.88086000  1
  N  1515  1  0.84211800  0.60053100  0.84961400  1
  N  1516  1  0.82481400  0.64023800  0.88326000  1
  N  1517  1  0.91079800  0.62621600  0.89838200  1
  N  1519  1  0.35641400  0.85039400  0.11266800  1
  N  1522  1  0.37931100  0.87859400  0.13361400  1
  N  1526  1  0.34212800  0.89767600  0.16486500  1
  N  1527  1  0.32482200  0.85795700  0.13123100  1
  N  1528  1  0.41079800  0.87199000  0.11607700  1
  N  1530  1  0.37948100  0.85502700  0.40525500  1
  N  1533  1  0.35661600  0.87597900  0.37705000  1
  N  1537  1  0.39370600  0.90754800  0.35832000  1
  N  1538  1  0.41100900  0.87381200  0.39795500  1
  N  1539  1  0.32518800  0.85822700  0.38339400  1
  N  1541  1  0.87946600  0.64314700  0.60922400  1
  N  1544  1  0.85660800  0.62224600  0.63747200  1
  N  1548  1  0.89368900  0.59067900  0.65622100  1
  N  1549  1  0.91099600  0.62437200  0.61655400  1
  N  1550  1  0.82518100  0.63999300  0.63111000  1
  N  1552  1  0.63031300  0.85113600  0.61385400  1
  N  1555  1  0.60663700  0.87946000  0.63375200  1
  N  1559  1  0.64281400  0.89943000  0.66549300  1
  N  1560  1  0.66145600  0.85932500  0.63288400  1
  N  1561  1  0.57563800  0.87223100  0.61579500  1
  N  1563  1  0.13029600  0.64712000  0.40066900  1
  N  1566  1  0.10660800  0.61881800  0.38075500  1
  N  1570  1  0.14278400  0.59883800  0.34901800  1
  N  1571  1  0.16143800  0.63893000  0.38164000  1
  N  1572  1  0.07561700  0.62604000  0.39873200  1
  N  1574  1  0.60573900  0.14104800  0.61082200  1
  N  1577  1  0.62878300  0.12116200  0.63959300  1
  N  1581  1  0.59228500  0.08905800  0.65847900  1
  N  1582  1  0.57449000  0.12184400  0.61817500  1
  N  1583  1  0.65988400  0.13940200  0.63317200  1
  N  1585  1  0.10576000  0.35719900  0.40363100  1
  N  1588  1  0.12880700  0.37708900  0.37486300  1
  N  1592  1  0.09231400  0.40920100  0.35598300  1
  N  1593  1  0.07451500  0.37641000  0.39628000  1
  N  1594  1  0.15990300  0.35884000  0.38127500  1
  N  1596  1  0.35575300  0.14564000  0.39891300  1
  N  1599  1  0.37920000  0.11726500  0.37885200  1
  N  1603  1  0.34312400  0.09849700  0.34628100  1
  N  1604  1  0.32474900  0.13834600  0.37935800  1
  N  1605  1  0.41011800  0.12372200  0.39733800  1
  N  1607  1  0.85576200  0.35254900  0.61554900  1
  N  1610  1  0.87920800  0.38092800  0.63560800  1
  N  1614  1  0.84312700  0.39970500  0.66816700  1
  N  1615  1  0.82475500  0.35985400  0.63509200  1
  N  1616  1  0.91012800  0.37446000  0.61712700  1
  N  1618  1  0.98869000  0.36520400  0.99673500  1
  N  1621  1  0.99714000  0.39879800  0.01860000  1
  N  1625  1  0.99807900  0.43487800  0.98361600  1
  N  1626  1  0.98578900  0.38128600  0.96579000  1
  N  1627  1  0.99975600  0.37876300  0.04928100  1
  N  1629  1  0.48867300  0.13301400  0.01775800  1
  N  1632  1  0.49711600  0.09941600  0.99589500  1
  N  1636  1  0.49805800  0.06334200  0.03088100  1
  N  1637  1  0.48577400  0.11693900  0.04870400  1
  N  1638  1  0.49972500  0.11946200  0.96521400  1
  N  1640  1  0.23880700  0.25963700  0.12188400  1
  N  1643  1  0.24704600  0.23772000  0.15548500  1
  N  1647  1  0.24772700  0.27266300  0.19159600  1
  N  1648  1  0.23584500  0.29057500  0.13797700  1
  N  1649  1  0.24972700  0.20704500  0.13544700  1
  N  1651  1  0.73876900  0.23859600  0.89257800  1
  N  1654  1  0.74706500  0.26050700  0.85899200  1
  N  1658  1  0.74791300  0.22554800  0.82289800  1
  N  1659  1  0.73586200  0.20765100  0.87649400  1
  N  1660  1  0.74968600  0.29119100  0.87902100  1
  N  1662  1  0.99635900  0.63730600  0.01786300  1
  N  1665  1  0.98909800  0.60363000  0.99573400  1
  N  1669  1  0.98907100  0.56727400  0.03040500  1
  N  1670  1  0.99948500  0.62095300  0.04867600  1
  N  1671  1  0.98628200  0.62365900  0.96516500  1
  N  1673  1  0.49649900  0.86091700  0.99663400  1
  N  1676  1  0.48906000  0.89456900  0.01875600  1
  N  1680  1  0.48896200  0.93092900  0.98409100  1
  N  1681  1  0.49956500  0.87728500  0.96581700  1
  N  1682  1  0.48629700  0.87454000  0.04932500  1
  N  1684  1  0.74671700  0.73856900  0.89266000  1
  N  1687  1  0.73882900  0.76052100  0.85901300  1
  N  1691  1  0.73838200  0.72558500  0.82288400  1
  N  1692  1  0.74980800  0.70764600  0.87649800  1
  N  1693  1  0.73600300  0.79119000  0.87899100  1
  N  1695  1  0.24665700  0.75966100  0.12184200  1
  N  1698  1  0.23884800  0.73769100  0.15549700  1
  N  1702  1  0.23854600  0.77260400  0.19164900  1
  N  1703  1  0.24980100  0.79057400  0.13801600  1
  N  1704  1  0.23597200  0.70703200  0.13551100  1
  N  1706  1  0.48891600  0.86427600  0.49672000  1
  N  1709  1  0.49690200  0.89793200  0.51863500  1
  N  1713  1  0.49738400  0.93407000  0.48370400  1
  N  1714  1  0.48583800  0.88044300  0.46577700  1
  N  1715  1  0.49971900  0.87795600  0.54931800  1
  N  1717  1  0.98890700  0.63392100  0.51777900  1
  N  1720  1  0.99689000  0.60026300  0.49586300  1
  N  1724  1  0.99737500  0.56412900  0.53079800  1
  N  1725  1  0.98583100  0.61775700  0.54872000  1
  N  1726  1  0.99969700  0.62025300  0.46518200  1
  N  1728  1  0.73921400  0.75971900  0.61959400  1
  N  1731  1  0.74662300  0.73758400  0.65323600  1
  N  1735  1  0.74643500  0.77220800  0.68961700  1
  N  1736  1  0.73596400  0.79050800  0.63598800  1
  N  1737  1  0.74956300  0.70703900  0.63322400  1
  N  1739  1  0.23912800  0.73852500  0.39492600  1
  N  1742  1  0.24666600  0.76064300  0.36130300  1
  N  1746  1  0.24669800  0.72600500  0.32494000  1
  N  1747  1  0.23595600  0.70772400  0.37854000  1
  N  1748  1  0.24952500  0.79119900  0.38130400  1
  N  1750  1  0.49617700  0.13782900  0.51788400  1
  N  1753  1  0.48931900  0.10407300  0.49575400  1
  N  1757  1  0.48993800  0.06772400  0.53045900  1
  N  1758  1  0.49967300  0.12133300  0.54866300  1
  N  1759  1  0.48612500  0.12398300  0.46519800  1
  N  1761  1  0.99633500  0.36040300  0.49661400  1
  N  1764  1  0.98926000  0.39413400  0.51873000  1
  N  1768  1  0.98977600  0.43048500  0.48402700  1
  N  1769  1  0.99975600  0.37691800  0.46582800  1
  N  1770  1  0.98614300  0.37422700  0.54928900  1
  N  1772  1  0.24637700  0.23849100  0.39440500  1
  N  1775  1  0.23917400  0.26061200  0.36072100  1
  N  1779  1  0.23956300  0.22589800  0.32439000  1
  N  1780  1  0.24979400  0.20769300  0.37794400  1
  N  1781  1  0.23606700  0.29118300  0.38064500  1
  N  1783  1  0.74631400  0.25974200  0.62005400  1
  N  1786  1  0.73919500  0.23761200  0.65375000  1
  N  1790  1  0.73972900  0.27231000  0.69009500  1
  N  1791  1  0.74978700  0.29053400  0.63652000  1
  N  1792  1  0.73603000  0.20704500  0.63382400  1
