# generated using pymatgen
data_H7C18(NO2)2
_symmetry_space_group_name_H-M   'P 1'
_cell_length_a   40.67010000
_cell_length_b   68.56990000
_cell_length_c   68.56990000
_cell_angle_alpha   120.00000000
_cell_angle_beta   90.00000000
_cell_angle_gamma   90.00000000
_symmetry_Int_Tables_number   1
_chemical_formula_structural   H7C18(NO2)2
_chemical_formula_sum   'H336 C864 N96 O192'
_cell_volume   165604.79376458
_cell_formula_units_Z   48
loop_
 _symmetry_equiv_pos_site_id
 _symmetry_equiv_pos_as_xyz
  1  'x, y, z'
loop_
 _atom_site_type_symbol
 _atom_site_label
 _atom_site_symmetry_multiplicity
 _atom_site_fract_x
 _atom_site_fract_y
 _atom_site_fract_z
 _atom_site_occupancy
  H  7  1  0.93687100  0.67095500  0.06731100  1
  H  16  1  0.89925800  0.71888100  0.12313500  1
  H  19  1  0.83211600  0.67574100  0.10079300  1
  H  20  1  0.88275700  0.63891400  0.08863000  1
  H  21  1  0.85293700  0.67917700  0.02044500  1
  H  22  1  0.91051800  0.68926200  0.17515300  1
  H  29  1  0.93685400  0.45719900  0.32676200  1
  H  38  1  0.89921700  0.46508100  0.27884900  1
  H  41  1  0.83206400  0.48588100  0.32199900  1
  H  42  1  0.88272000  0.51055800  0.35882200  1
  H  43  1  0.85294200  0.40209500  0.31853500  1
  H  44  1  0.91048700  0.54672100  0.30845400  1
  H  51  1  0.93685900  0.93040600  0.54053200  1
  H  60  1  0.89924500  0.87459600  0.53264700  1
  H  63  1  0.83208900  0.89694000  0.51184200  1
  H  64  1  0.88274000  0.90910100  0.48718300  1
  H  65  1  0.85291800  0.97727900  0.59562200  1
  H  66  1  0.91050900  0.82257700  0.45100500  1
  H  73  1  0.43685000  0.36807300  0.88909400  1
  H  82  1  0.39924700  0.32015000  0.83327900  1
  H  85  1  0.33208000  0.36330400  0.85563000  1
  H  86  1  0.38271400  0.40011600  0.86778300  1
  H  87  1  0.35292800  0.35987100  0.93597600  1
  H  88  1  0.41050600  0.34976600  0.78126000  1
  H  95  1  0.43687000  0.58184800  0.62963500  1
  H  104  1  0.39925700  0.57395200  0.67756100  1
  H  107  1  0.33211700  0.55315100  0.63442200  1
  H  108  1  0.38276300  0.52848400  0.59759600  1
  H  109  1  0.35293100  0.63693600  0.63786300  1
  H  110  1  0.41052800  0.49231800  0.64795200  1
  H  117  1  0.43686700  0.10864100  0.41588900  1
  H  126  1  0.39923300  0.16443800  0.42377000  1
  H  129  1  0.33207800  0.14209100  0.44457200  1
  H  130  1  0.38272900  0.12994000  0.46924600  1
  H  131  1  0.35295300  0.06176500  0.36078700  1
  H  132  1  0.41048400  0.21647200  0.50541000  1
  H  139  1  0.01004800  0.58184400  0.88909200  1
  H  148  1  0.04766000  0.57395600  0.83328500  1
  H  151  1  0.11481500  0.55314600  0.85562900  1
  H  152  1  0.06416900  0.52849300  0.86779100  1
  H  153  1  0.09398200  0.63692800  0.93597200  1
  H  154  1  0.03639600  0.49231400  0.78126700  1
  H  161  1  0.01004000  0.10863300  0.62964700  1
  H  170  1  0.04765300  0.16444400  0.67756700  1
  H  173  1  0.11481500  0.14209000  0.63440500  1
  H  174  1  0.06418100  0.12993800  0.59759800  1
  H  175  1  0.09395500  0.06174200  0.63784000  1
  H  176  1  0.03641400  0.21646400  0.64794800  1
  H  183  1  0.01002300  0.36808200  0.41587200  1
  H  192  1  0.04763800  0.32016000  0.42377000  1
  H  195  1  0.11477600  0.36330700  0.44457800  1
  H  196  1  0.06413700  0.40012500  0.46923800  1
  H  197  1  0.09395700  0.35987000  0.36079000  1
  H  198  1  0.03636700  0.34976900  0.50540400  1
  H  205  1  0.51002400  0.45721100  0.06733200  1
  H  214  1  0.54767100  0.46508800  0.12312200  1
  H  217  1  0.61481600  0.48589400  0.10077300  1
  H  218  1  0.56416200  0.51057100  0.08863100  1
  H  219  1  0.59393600  0.40210800  0.02044900  1
  H  220  1  0.53641400  0.54672500  0.17516500  1
  H  227  1  0.51003400  0.93040200  0.32676300  1
  H  236  1  0.54764400  0.87459400  0.27884400  1
  H  239  1  0.61480100  0.89693700  0.32199800  1
  H  240  1  0.56415900  0.90909800  0.35881200  1
  H  241  1  0.59397200  0.97728100  0.31855900  1
  H  242  1  0.53638200  0.82257500  0.30846400  1
  H  249  1  0.51004900  0.67096000  0.54053200  1
  H  258  1  0.54765600  0.71887800  0.53263900  1
  H  261  1  0.61482100  0.67571700  0.51183100  1
  H  262  1  0.56418900  0.63891200  0.48717500  1
  H  263  1  0.59396300  0.67915600  0.59561600  1
  H  264  1  0.53640900  0.68926300  0.45100300  1
  H  271  1  0.01002800  0.36809300  0.88909700  1
  H  280  1  0.04765500  0.32016500  0.83327900  1
  H  283  1  0.11480000  0.36330400  0.85563000  1
  H  284  1  0.06415600  0.40013300  0.86778200  1
  H  285  1  0.09395000  0.35986100  0.93596900  1
  H  286  1  0.03641100  0.34977200  0.78125000  1
  H  293  1  0.01003800  0.58183600  0.62964600  1
  H  302  1  0.04765500  0.57394800  0.67756000  1
  H  305  1  0.11481000  0.55314100  0.63441800  1
  H  306  1  0.06416600  0.52847200  0.59758800  1
  H  307  1  0.09395200  0.63693200  0.63787200  1
  H  308  1  0.03638400  0.49231000  0.64795300  1
  H  315  1  0.01004300  0.10863500  0.41588700  1
  H  324  1  0.04764300  0.16444300  0.42377400  1
  H  327  1  0.11481800  0.14209500  0.44457600  1
  H  328  1  0.06417800  0.12993800  0.46923400  1
  H  329  1  0.09397900  0.06176000  0.36079500  1
  H  330  1  0.03639400  0.21646200  0.50541200  1
  H  337  1  0.51003900  0.67096200  0.06731600  1
  H  346  1  0.54763600  0.71888400  0.12313300  1
  H  349  1  0.61480100  0.67573200  0.10078600  1
  H  350  1  0.56418200  0.63891800  0.08862500  1
  H  351  1  0.59395500  0.67915800  0.02042900  1
  H  352  1  0.53638500  0.68926300  0.17514900  1
  H  359  1  0.51003600  0.45720500  0.32678200  1
  H  368  1  0.54766600  0.46509000  0.27885300  1
  H  371  1  0.61481100  0.48588100  0.32199500  1
  H  372  1  0.56416200  0.51056600  0.35882000  1
  H  373  1  0.59396000  0.40210000  0.31854700  1
  H  374  1  0.53640400  0.54672300  0.30844900  1
  H  381  1  0.51002900  0.93039500  0.54052100  1
  H  390  1  0.54765600  0.87459600  0.53263700  1
  H  393  1  0.61480800  0.89693700  0.51183100  1
  H  394  1  0.56415900  0.90909400  0.48716100  1
  H  395  1  0.59394500  0.97726700  0.59562100  1
  H  396  1  0.53640900  0.82256200  0.45099800  1
  H  403  1  0.93685000  0.45720700  0.06732500  1
  H  412  1  0.89923100  0.46508900  0.12312800  1
  H  415  1  0.83207500  0.48590300  0.10078200  1
  H  416  1  0.88273700  0.51056500  0.08863500  1
  H  417  1  0.85292000  0.40212000  0.02044400  1
  H  418  1  0.91051100  0.54672400  0.17515900  1
  H  425  1  0.93686900  0.93040400  0.32677300  1
  H  434  1  0.89925500  0.87459200  0.27885400  1
  H  437  1  0.83210000  0.89694200  0.32201500  1
  H  438  1  0.88274200  0.90909600  0.35882200  1
  H  439  1  0.85295400  0.97729200  0.31858000  1
  H  440  1  0.91051300  0.82257400  0.30847200  1
  H  447  1  0.93687400  0.67094900  0.54052700  1
  H  456  1  0.89925000  0.71887000  0.53263500  1
  H  459  1  0.83210500  0.67572300  0.51183900  1
  H  460  1  0.88274200  0.63890300  0.48716400  1
  H  461  1  0.85295700  0.67917100  0.59562600  1
  H  462  1  0.91051800  0.68926500  0.45100000  1
  H  469  1  0.43688200  0.58182300  0.88907800  1
  H  478  1  0.39925500  0.57394100  0.83328300  1
  H  481  1  0.33210700  0.55312600  0.85562000  1
  H  482  1  0.38275900  0.52845400  0.86777000  1
  H  483  1  0.35296500  0.63691800  0.93595300  1
  H  484  1  0.41053100  0.49230400  0.78124200  1
  H  491  1  0.43687000  0.10863700  0.62964900  1
  H  500  1  0.39926000  0.16444000  0.67756400  1
  H  503  1  0.33209500  0.14209100  0.63440600  1
  H  504  1  0.38272900  0.12993600  0.59759800  1
  H  505  1  0.35294100  0.06175100  0.63785300  1
  H  506  1  0.41050400  0.21646300  0.64794800  1
  H  513  1  0.43686200  0.36808300  0.41588400  1
  H  522  1  0.39925200  0.32016200  0.42377600  1
  H  525  1  0.33210500  0.36332200  0.44459800  1
  H  526  1  0.38274900  0.40013000  0.46924800  1
  H  527  1  0.35294800  0.35989400  0.36080900  1
  H  528  1  0.41052300  0.34976900  0.50540700  1
  H  535  1  0.94719700  0.84347700  0.25295300  1
  H  540  1  0.87585800  0.81478400  0.27555500  1
  H  545  1  0.94720200  0.74478600  0.15425700  1
  H  546  1  0.87586200  0.72217800  0.18294200  1
  H  555  1  0.94717400  0.47030200  0.15424900  1
  H  560  1  0.87584000  0.52159900  0.18294000  1
  H  565  1  0.94715600  0.47029700  0.25294300  1
  H  566  1  0.87581900  0.52159200  0.27554300  1
  H  575  1  0.94718200  0.74478300  0.52743100  1
  H  580  1  0.87585300  0.72217600  0.47613100  1
  H  585  1  0.94718300  0.84347600  0.52743000  1
  H  586  1  0.87585700  0.81478100  0.47612700  1
  H  595  1  0.44720400  0.19556100  0.70346000  1
  H  600  1  0.37585400  0.22425000  0.68086300  1
  H  605  1  0.44720400  0.29425500  0.80215900  1
  H  606  1  0.37584700  0.31685400  0.77347400  1
  H  615  1  0.44718900  0.56873700  0.80216500  1
  H  620  1  0.37585900  0.51743700  0.77346700  1
  H  625  1  0.44719700  0.56874300  0.70347400  1
  H  626  1  0.37586400  0.51744400  0.68086300  1
  H  635  1  0.44720400  0.29426000  0.42899600  1
  H  640  1  0.37585200  0.31686400  0.48028100  1
  H  645  1  0.44717700  0.19556100  0.42899200  1
  H  646  1  0.37582500  0.22425400  0.48027700  1
  H  655  1  0.99972100  0.56874000  0.70347100  1
  H  660  1  0.07105100  0.51744000  0.68086400  1
  H  665  1  0.99972100  0.56873900  0.80216500  1
  H  666  1  0.07104800  0.51743700  0.77347000  1
  H  675  1  0.99971100  0.29426200  0.80215800  1
  H  680  1  0.07106800  0.31685800  0.77347100  1
  H  685  1  0.99970600  0.19556500  0.70346100  1
  H  686  1  0.07106600  0.22424800  0.68086300  1
  H  695  1  0.99970900  0.19555700  0.42898500  1
  H  700  1  0.07103900  0.22425500  0.48028500  1
  H  705  1  0.99969600  0.29424800  0.42898100  1
  H  706  1  0.07103100  0.31686000  0.48028000  1
  H  715  1  0.49972400  0.47030200  0.25294200  1
  H  720  1  0.57107600  0.52158800  0.27554300  1
  H  725  1  0.49973400  0.47030500  0.15424700  1
  H  726  1  0.57108600  0.52159000  0.18293800  1
  H  735  1  0.49969200  0.74478000  0.15424900  1
  H  740  1  0.57103900  0.72217700  0.18293500  1
  H  745  1  0.49969400  0.84347300  0.25294500  1
  H  746  1  0.57103400  0.81478200  0.27554600  1
  H  755  1  0.49971200  0.84347000  0.52741200  1
  H  760  1  0.57107100  0.81478300  0.47613300  1
  H  765  1  0.49970400  0.74477400  0.52741200  1
  H  766  1  0.57106600  0.72217600  0.47613400  1
  H  775  1  0.80669300  0.70738100  0.05595900  1
  H  780  1  0.80153500  0.64771600  0.05921400  1
  H  785  1  0.64020800  0.70737000  0.05595100  1
  H  786  1  0.64538400  0.64770700  0.05921000  1
  H  795  1  0.80668400  0.40942700  0.29031500  1
  H  800  1  0.80152000  0.47230500  0.35002500  1
  H  805  1  0.64019800  0.40942700  0.29031700  1
  H  806  1  0.64536400  0.47230600  0.35002800  1
  H  815  1  0.80668400  0.94174600  0.58830500  1
  H  820  1  0.80152300  0.93854500  0.52541100  1
  H  825  1  0.64020000  0.94173200  0.58829600  1
  H  826  1  0.64536900  0.93853000  0.52540100  1
  H  835  1  0.30668300  0.33164800  0.90043400  1
  H  840  1  0.30151000  0.39133500  0.89722200  1
  H  845  1  0.14019500  0.33164100  0.90042900  1
  H  846  1  0.14535600  0.39133000  0.89722000  1
  H  855  1  0.30669500  0.62962100  0.66607300  1
  H  860  1  0.30153200  0.56671100  0.60639600  1
  H  865  1  0.14021200  0.62961400  0.66607600  1
  H  866  1  0.14537800  0.56670400  0.60639900  1
  H  875  1  0.30669500  0.09731300  0.36811500  1
  H  880  1  0.30153400  0.10049000  0.43099700  1
  H  885  1  0.14021000  0.09731000  0.36812000  1
  H  886  1  0.14538100  0.10048700  0.43100300  1
  H  895  1  0.14022700  0.62961000  0.90044200  1
  H  900  1  0.14538300  0.56671100  0.89722800  1
  H  905  1  0.30671000  0.62959500  0.90042600  1
  H  906  1  0.30153900  0.56669600  0.89721300  1
  H  915  1  0.14021000  0.09727900  0.66605900  1
  H  920  1  0.14538100  0.10049900  0.60637600  1
  H  925  1  0.30669500  0.09727800  0.66605900  1
  H  926  1  0.30153400  0.10049600  0.60637600  1
  H  935  1  0.14020700  0.33167500  0.36810200  1
  H  940  1  0.14535600  0.39133200  0.43102900  1
  H  945  1  0.30669300  0.33169000  0.36811800  1
  H  946  1  0.30151000  0.39134500  0.43104500  1
  H  955  1  0.64019800  0.40943700  0.05599300  1
  H  960  1  0.64535400  0.47232000  0.05917100  1
  H  965  1  0.80668400  0.40944700  0.05599400  1
  H  966  1  0.80151000  0.47232900  0.05917300  1
  H  975  1  0.64021800  0.94176600  0.29035700  1
  H  980  1  0.64536900  0.93852900  0.35003000  1
  H  985  1  0.80670000  0.94176400  0.29036700  1
  H  986  1  0.80152200  0.93852000  0.35003800  1
  H  995  1  0.64021500  0.70737400  0.58829700  1
  H  1000  1  0.64539100  0.64769100  0.52539300  1
  H  1005  1  0.80670300  0.70738200  0.58830400  1
  H  1006  1  0.80154700  0.64769900  0.52540200  1
  H  1015  1  0.02411700  0.64441800  0.93307000  1
  H  1020  1  0.01996900  0.58391100  0.93472200  1
  H  1025  1  0.92277200  0.68954900  0.02332700  1
  H  1026  1  0.92694000  0.62740000  0.02169100  1
  H  1035  1  0.02411500  0.34948600  0.35330000  1
  H  1040  1  0.01996900  0.41164500  0.41380400  1
  H  1045  1  0.92277600  0.39461200  0.30816600  1
  H  1046  1  0.92694400  0.45512500  0.37031500  1
  H  1055  1  0.02410200  0.06465900  0.64824300  1
  H  1060  1  0.01998600  0.06299000  0.58607500  1
  H  1065  1  0.92276400  0.97440000  0.60311600  1
  H  1066  1  0.92696200  0.97602000  0.54259400  1
  H  1075  1  0.52411300  0.39462000  0.02333600  1
  H  1080  1  0.51992300  0.45513500  0.02170200  1
  H  1085  1  0.42278100  0.34948100  0.93307100  1
  H  1086  1  0.42690200  0.41164200  0.93472900  1
  H  1095  1  0.52411500  0.68955400  0.60310100  1
  H  1100  1  0.51998500  0.62739200  0.54259900  1
  H  1105  1  0.42276300  0.64442800  0.64822900  1
  H  1106  1  0.42695100  0.58391100  0.58608300  1
  H  1115  1  0.52411500  0.97438700  0.30817100  1
  H  1120  1  0.51996000  0.97603300  0.37032600  1
  H  1125  1  0.42279000  0.06465400  0.35330400  1
  H  1126  1  0.42694600  0.06300800  0.41381200  1
  H  1135  1  0.92278500  0.39463300  0.02334900  1
  H  1140  1  0.92692300  0.45513600  0.02169000  1
  H  1145  1  0.02412000  0.34949700  0.93308600  1
  H  1146  1  0.01994000  0.41164300  0.93471600  1
  H  1155  1  0.92279200  0.68954600  0.60310800  1
  H  1160  1  0.92695200  0.62739200  0.54260100  1
  H  1165  1  0.02412500  0.64441900  0.64824500  1
  H  1166  1  0.01997200  0.58390900  0.58609000  1
  H  1175  1  0.92279800  0.97437800  0.30817900  1
  H  1180  1  0.92692500  0.97604400  0.37034400  1
  H  1185  1  0.02412900  0.06464100  0.35330300  1
  H  1186  1  0.01994200  0.06302000  0.41382400  1
  H  1195  1  0.42278300  0.64440900  0.93306900  1
  H  1200  1  0.42697000  0.58389800  0.93470700  1
  H  1205  1  0.52411000  0.68955200  0.02333600  1
  H  1206  1  0.51998900  0.62739300  0.02168100  1
  H  1215  1  0.42279800  0.34948800  0.35332200  1
  H  1220  1  0.42689900  0.41165900  0.41381600  1
  H  1225  1  0.52414000  0.39461400  0.30819000  1
  H  1226  1  0.51992600  0.45513900  0.37032800  1
  H  1235  1  0.42279300  0.06465000  0.64824200  1
  H  1240  1  0.42695100  0.06300500  0.58608700  1
  H  1245  1  0.52411300  0.97438000  0.60310600  1
  H  1246  1  0.51996000  0.97602700  0.54259900  1
  H  1255  1  0.87677000  0.65444000  0.15007300  1
  H  1260  1  0.96206000  0.63228400  0.11000400  1
  H  1265  1  0.87675400  0.55646900  0.15006900  1
  H  1266  1  0.96204400  0.53854900  0.11000000  1
  H  1275  1  0.87673700  0.55647400  0.34328300  1
  H  1280  1  0.96200700  0.53854100  0.36543700  1
  H  1285  1  0.87676100  0.65444200  0.44125500  1
  H  1286  1  0.96202900  0.63227400  0.45917200  1
  H  1295  1  0.87674900  0.84766600  0.44127300  1
  H  1300  1  0.96205600  0.88772000  0.45918100  1
  H  1305  1  0.87675300  0.84766200  0.34330000  1
  H  1306  1  0.96205300  0.88772000  0.36544700  1
  H  1315  1  0.37674400  0.38458900  0.80633200  1
  H  1320  1  0.46202100  0.40674400  0.84641500  1
  H  1325  1  0.37677600  0.48255200  0.80631800  1
  H  1326  1  0.46204500  0.50047200  0.84640400  1
  H  1335  1  0.37678400  0.48257000  0.61312900  1
  H  1340  1  0.46206700  0.50048500  0.59097000  1
  H  1345  1  0.37677400  0.38460100  0.51515900  1
  H  1346  1  0.46206000  0.40675400  0.49723800  1
  H  1355  1  0.37673500  0.19139100  0.51516100  1
  H  1360  1  0.46201600  0.15131700  0.49723600  1
  H  1365  1  0.37673900  0.19137700  0.61312400  1
  H  1366  1  0.46203000  0.15131100  0.59096700  1
  H  1375  1  0.07016300  0.48258400  0.80635700  1
  H  1380  1  0.98485400  0.50048900  0.84640800  1
  H  1385  1  0.07016100  0.38460700  0.80634400  1
  H  1386  1  0.98486200  0.40675100  0.84640200  1
  H  1395  1  0.07017300  0.19138300  0.61312300  1
  H  1400  1  0.98488300  0.15131700  0.59097600  1
  H  1405  1  0.07016300  0.19137700  0.51514800  1
  H  1406  1  0.98487100  0.15131200  0.49723900  1
  H  1415  1  0.07011400  0.38458800  0.51515100  1
  H  1420  1  0.98483900  0.40675600  0.49723800  1
  H  1425  1  0.07014400  0.48255600  0.61312200  1
  H  1426  1  0.98487000  0.50048900  0.59097300  1
  H  1435  1  0.57015400  0.55648300  0.15009000  1
  H  1440  1  0.48488300  0.53855600  0.11000700  1
  H  1445  1  0.57015400  0.65444600  0.15007600  1
  H  1446  1  0.48487800  0.63228400  0.10999600  1
  H  1455  1  0.57014700  0.84766100  0.34328400  1
  H  1460  1  0.48484600  0.88772000  0.36543900  1
  H  1465  1  0.57015900  0.84764800  0.44124600  1
  H  1466  1  0.48486800  0.88771400  0.45917000  1
  H  1475  1  0.57016900  0.65444000  0.44125400  1
  H  1480  1  0.48488800  0.63228600  0.45917700  1
  H  1485  1  0.57014700  0.55647400  0.34327800  1
  H  1486  1  0.48487300  0.53855500  0.36543900  1
  C  1  1  0.89143000  0.68090700  0.08448000  1
  C  2  1  0.91235200  0.67327200  0.06562300  1
  C  3  1  0.89999500  0.66861100  0.04446600  1
  C  4  1  0.86593200  0.67130100  0.04208200  1
  C  5  1  0.84437200  0.67793200  0.06059900  1
  C  6  1  0.85725200  0.68275700  0.08176700  1
  C  9  1  0.90369400  0.68345800  0.10502800  1
  C  10  1  0.90954200  0.66418700  0.10705400  1
  C  11  1  0.91792400  0.66651500  0.12818200  1
  C  12  1  0.91946800  0.68835900  0.14746100  1
  C  13  1  0.91306800  0.70781200  0.14576000  1
  C  14  1  0.90518100  0.70504400  0.12443800  1
  C  23  1  0.89139200  0.46441200  0.31682700  1
  C  24  1  0.91233700  0.45318800  0.32444700  1
  C  25  1  0.89999300  0.43668900  0.32910900  1
  C  26  1  0.86592900  0.43161500  0.32642600  1
  C  27  1  0.84435800  0.44349700  0.31979800  1
  C  28  1  0.85721600  0.45984400  0.31497400  1
  C  31  1  0.90364800  0.48241200  0.31427300  1
  C  32  1  0.90950100  0.50370400  0.33354700  1
  C  33  1  0.91787800  0.52249800  0.33120700  1
  C  34  1  0.91942900  0.51993600  0.30936500  1
  C  35  1  0.91301800  0.49878000  0.28991500  1
  C  36  1  0.90512200  0.48022700  0.29268300  1
  C  45  1  0.89140100  0.91324900  0.53331300  1
  C  46  1  0.91234100  0.93209700  0.54453900  1
  C  47  1  0.89999300  0.95325800  0.56103700  1
  C  48  1  0.86592800  0.95564700  0.56610900  1
  C  49  1  0.84436100  0.93713500  0.55422800  1
  C  50  1  0.85722700  0.91596500  0.53788300  1
  C  53  1  0.90368200  0.89269700  0.51532700  1
  C  54  1  0.90952500  0.89067700  0.49403000  1
  C  55  1  0.91791600  0.86954600  0.47523300  1
  C  56  1  0.91946000  0.85026500  0.47779400  1
  C  57  1  0.91304900  0.85196800  0.49894800  1
  C  58  1  0.90515400  0.87328800  0.51750100  1
  C  67  1  0.39139600  0.35813500  0.87193500  1
  C  68  1  0.41233300  0.36575800  0.89078500  1
  C  69  1  0.39998000  0.37042700  0.91194500  1
  C  70  1  0.36591600  0.36774500  0.91433700  1
  C  71  1  0.34435000  0.36111900  0.89582200  1
  C  72  1  0.35722100  0.35628500  0.87465000  1
  C  75  1  0.40367800  0.35557000  0.85138500  1
  C  76  1  0.40951000  0.37484800  0.84936600  1
  C  77  1  0.41789200  0.37251900  0.82823800  1
  C  78  1  0.41945600  0.35067700  0.80895400  1
  C  79  1  0.41305400  0.33122300  0.81065600  1
  C  80  1  0.40517100  0.33398600  0.83197600  1
  C  89  1  0.39143100  0.57462900  0.63958600  1
  C  90  1  0.41235300  0.58585100  0.63195200  1
  C  91  1  0.39999200  0.60234800  0.62729100  1
  C  92  1  0.36593100  0.60742300  0.62998300  1
  C  93  1  0.34437200  0.59553600  0.63661400  1
  C  94  1  0.35725300  0.57919400  0.64143900  1
  C  97  1  0.40369800  0.55663400  0.64214000  1
  C  98  1  0.40954700  0.53533500  0.62286900  1
  C  99  1  0.41793200  0.51653700  0.62520000  1
  C  100  1  0.41947300  0.51910500  0.64704600  1
  C  101  1  0.41307100  0.54026000  0.66649700  1
  C  102  1  0.40518300  0.55881200  0.66372600  1
  C  111  1  0.39140600  0.12579000  0.42310100  1
  C  112  1  0.41235000  0.10694700  0.41187800  1
  C  113  1  0.40000500  0.08578600  0.39538000  1
  C  114  1  0.36594300  0.08339400  0.39030500  1
  C  115  1  0.34437200  0.10190500  0.40218700  1
  C  116  1  0.35722900  0.12307700  0.41853400  1
  C  119  1  0.40366100  0.14634500  0.44110100  1
  C  120  1  0.40951300  0.14836500  0.46239600  1
  C  121  1  0.41788500  0.16949800  0.48118800  1
  C  122  1  0.41943400  0.18877800  0.47862700  1
  C  123  1  0.41302600  0.18707100  0.45747000  1
  C  124  1  0.40513600  0.16575000  0.43891800  1
  C  133  1  0.05550600  0.57462300  0.87193900  1
  C  134  1  0.03456500  0.58585100  0.89078500  1
  C  135  1  0.04691500  0.60234700  0.91194600  1
  C  136  1  0.08098200  0.60741500  0.91433600  1
  C  137  1  0.10254800  0.59553200  0.89582500  1
  C  138  1  0.08968100  0.57919000  0.87465500  1
  C  141  1  0.04322500  0.55663600  0.85138600  1
  C  142  1  0.03738200  0.53534100  0.84936500  1
  C  143  1  0.02899100  0.51654300  0.82823500  1
  C  144  1  0.02744600  0.51910300  0.80895400  1
  C  145  1  0.03385600  0.54025800  0.81065700  1
  C  146  1  0.04175200  0.55881200  0.83197600  1
  C  155  1  0.05549900  0.12578700  0.63958000  1
  C  156  1  0.03456000  0.10694000  0.63196000  1
  C  157  1  0.04691000  0.08577900  0.62729200  1
  C  158  1  0.08097500  0.08338500  0.62996800  1
  C  159  1  0.10254300  0.10189800  0.63659200  1
  C  160  1  0.08967400  0.12306900  0.64142500  1
  C  163  1  0.04322000  0.14633900  0.64214500  1
  C  164  1  0.03738700  0.14835900  0.62286800  1
  C  165  1  0.02901300  0.16948800  0.62519900  1
  C  166  1  0.02745400  0.18877200  0.64703900  1
  C  167  1  0.03385600  0.18706800  0.66649300  1
  C  168  1  0.04173200  0.16574700  0.66372900  1
  C  177  1  0.05546400  0.35813500  0.42309300  1
  C  178  1  0.03454200  0.36576600  0.41186900  1
  C  179  1  0.04690000  0.37043000  0.39537500  1
  C  180  1  0.08096500  0.36774600  0.39030500  1
  C  181  1  0.10252400  0.36111700  0.40219200  1
  C  182  1  0.08964400  0.35629000  0.41853300  1
  C  185  1  0.04320000  0.35558100  0.44108800  1
  C  186  1  0.03735000  0.37485200  0.46238700  1
  C  187  1  0.02896600  0.37252200  0.48118600  1
  C  188  1  0.02742200  0.35067600  0.47861800  1
  C  189  1  0.03382500  0.33122500  0.45746300  1
  C  190  1  0.04171200  0.33399500  0.43891000  1
  C  199  1  0.55549000  0.46442300  0.08447600  1
  C  200  1  0.53454100  0.45320000  0.06563500  1
  C  201  1  0.54688400  0.43670100  0.04447300  1
  C  202  1  0.58094600  0.43162600  0.04207700  1
  C  203  1  0.60252200  0.44350900  0.06058700  1
  C  204  1  0.58966500  0.45985500  0.08175900  1
  C  207  1  0.54323500  0.48242300  0.10503300  1
  C  208  1  0.53738300  0.50371600  0.10705400  1
  C  209  1  0.52901100  0.52250800  0.12818900  1
  C  210  1  0.52746400  0.51994500  0.14746900  1
  C  211  1  0.53387400  0.49878700  0.14575900  1
  C  212  1  0.54176500  0.48023600  0.12443600  1
  C  221  1  0.55549200  0.91324800  0.31683100  1
  C  222  1  0.53455300  0.93209400  0.32445000  1
  C  223  1  0.54690100  0.95325500  0.32911500  1
  C  224  1  0.58096800  0.95564600  0.32643700  1
  C  225  1  0.60253600  0.93713400  0.31980900  1
  C  226  1  0.58966700  0.91596400  0.31498000  1
  C  229  1  0.54321000  0.89269500  0.31426500  1
  C  230  1  0.53737100  0.89067500  0.33354000  1
  C  231  1  0.52897900  0.86954600  0.33120800  1
  C  232  1  0.52743200  0.85026400  0.30936600  1
  C  233  1  0.53384000  0.85196700  0.28991500  1
  C  234  1  0.54173500  0.87328600  0.29268000  1
  C  243  1  0.55550700  0.68089200  0.53330900  1
  C  244  1  0.53456500  0.67327200  0.54453600  1
  C  245  1  0.54691600  0.66860500  0.56103000  1
  C  246  1  0.58098300  0.67128300  0.56610100  1
  C  247  1  0.60254900  0.67790500  0.55421100  1
  C  248  1  0.58968200  0.68273900  0.53787200  1
  C  251  1  0.54322500  0.68345700  0.51532300  1
  C  252  1  0.53739300  0.66418100  0.49402600  1
  C  253  1  0.52901600  0.66651100  0.47522700  1
  C  254  1  0.52745400  0.68835200  0.47778500  1
  C  255  1  0.53385500  0.70780500  0.49894200  1
  C  256  1  0.54173500  0.70504100  0.51749900  1
  C  265  1  0.05547400  0.35814000  0.87193300  1
  C  266  1  0.03454500  0.36577400  0.89078600  1
  C  267  1  0.04689600  0.37043500  0.91194600  1
  C  268  1  0.08095500  0.36774200  0.91433500  1
  C  269  1  0.10252100  0.36111200  0.89582200  1
  C  270  1  0.08965200  0.35628800  0.87465100  1
  C  273  1  0.04322000  0.35558900  0.85138400  1
  C  274  1  0.03737500  0.37485900  0.84935600  1
  C  275  1  0.02900300  0.37252400  0.82822500  1
  C  276  1  0.02745400  0.35068200  0.80894200  1
  C  277  1  0.03385400  0.33123200  0.81065000  1
  C  278  1  0.04173400  0.33400100  0.83197300  1
  C  287  1  0.05549400  0.57461900  0.63958400  1
  C  288  1  0.03455500  0.58584300  0.63196200  1
  C  289  1  0.04690800  0.60234200  0.62730200  1
  C  290  1  0.08097200  0.60741300  0.62998600  1
  C  291  1  0.10253800  0.59552900  0.63661600  1
  C  292  1  0.08967100  0.57918200  0.64143800  1
  C  295  1  0.04323200  0.55661900  0.64213700  1
  C  296  1  0.03738000  0.53532600  0.62286100  1
  C  297  1  0.02900000  0.51653300  0.62520000  1
  C  298  1  0.02744400  0.51909500  0.64704300  1
  C  299  1  0.03384700  0.54025200  0.66649500  1
  C  300  1  0.04175200  0.55880200  0.66372500  1
  C  309  1  0.05550100  0.12579100  0.42310500  1
  C  310  1  0.03456000  0.10694300  0.41187900  1
  C  311  1  0.04690800  0.08578100  0.39538000  1
  C  312  1  0.08097200  0.08339100  0.39030900  1
  C  313  1  0.10253800  0.10190400  0.40219200  1
  C  314  1  0.08967600  0.12307400  0.41853600  1
  C  317  1  0.04322000  0.14634300  0.44109300  1
  C  318  1  0.03738500  0.14836000  0.46238800  1
  C  319  1  0.02899300  0.16949000  0.48118600  1
  C  320  1  0.02744100  0.18877100  0.47862500  1
  C  321  1  0.03383900  0.18707000  0.45747300  1
  C  322  1  0.04173900  0.16575200  0.43891800  1
  C  331  1  0.55549200  0.68090000  0.08447500  1
  C  332  1  0.53455500  0.67327800  0.06562600  1
  C  333  1  0.54691100  0.66860800  0.04446500  1
  C  334  1  0.58097500  0.67128900  0.04207400  1
  C  335  1  0.60253900  0.67791400  0.06058900  1
  C  336  1  0.58966700  0.68274800  0.08175900  1
  C  339  1  0.54320800  0.68346300  0.10502500  1
  C  340  1  0.53738100  0.66418500  0.10704400  1
  C  341  1  0.52900100  0.66651200  0.12817100  1
  C  342  1  0.52743500  0.68835400  0.14745500  1
  C  343  1  0.53383500  0.70780800  0.14575300  1
  C  344  1  0.54171500  0.70504600  0.12443400  1
  C  353  1  0.55548200  0.46441500  0.31683000  1
  C  354  1  0.53455300  0.45319700  0.32446400  1
  C  355  1  0.54689900  0.43669700  0.32912300  1
  C  356  1  0.58095800  0.43161400  0.32643200  1
  C  357  1  0.60252400  0.44349800  0.31980000  1
  C  358  1  0.58966000  0.45984500  0.31497800  1
  C  361  1  0.54322500  0.48241300  0.31427500  1
  C  362  1  0.53737800  0.50371200  0.33354500  1
  C  363  1  0.52900300  0.52250400  0.33120500  1
  C  364  1  0.52745400  0.51994100  0.30936200  1
  C  365  1  0.53385700  0.49878400  0.28991400  1
  C  366  1  0.54174300  0.48023200  0.29268800  1
  C  375  1  0.55548700  0.91324200  0.53330600  1
  C  376  1  0.53454600  0.93208600  0.54453000  1
  C  377  1  0.54689600  0.95324700  0.56102900  1
  C  378  1  0.58096000  0.95563600  0.56610300  1
  C  379  1  0.60252900  0.93712300  0.55421800  1
  C  380  1  0.58966500  0.91595400  0.53787200  1
  C  383  1  0.54322800  0.89268900  0.51530500  1
  C  384  1  0.53737800  0.89067100  0.49401300  1
  C  385  1  0.52900600  0.86953700  0.47521900  1
  C  386  1  0.52745700  0.85025600  0.47778000  1
  C  387  1  0.53386200  0.85196300  0.49893600  1
  C  388  1  0.54175500  0.87328400  0.51749100  1
  C  397  1  0.89139000  0.46442800  0.08447800  1
  C  398  1  0.91233200  0.45320200  0.06563200  1
  C  399  1  0.89998400  0.43670300  0.04447000  1
  C  400  1  0.86591900  0.43163500  0.04207800  1
  C  401  1  0.84435200  0.44351800  0.06058900  1
  C  402  1  0.85721500  0.45986200  0.08176100  1
  C  405  1  0.90367200  0.48241300  0.10503300  1
  C  406  1  0.90952000  0.50371000  0.10705500  1
  C  407  1  0.91791500  0.52250300  0.12818500  1
  C  408  1  0.91945800  0.51993900  0.14746400  1
  C  409  1  0.91304200  0.49878500  0.14575800  1
  C  410  1  0.90514300  0.48023400  0.12443900  1
  C  419  1  0.89141200  0.91324800  0.31684100  1
  C  420  1  0.91235000  0.93209600  0.32446100  1
  C  421  1  0.89999800  0.95325700  0.32912900  1
  C  422  1  0.86593200  0.95564900  0.32645200  1
  C  423  1  0.84436600  0.93713600  0.31983000  1
  C  424  1  0.85723600  0.91596500  0.31499500  1
  C  427  1  0.90369500  0.89269600  0.31427400  1
  C  428  1  0.90953200  0.89067500  0.33355100  1
  C  429  1  0.91791600  0.86954700  0.33122300  1
  C  430  1  0.91946800  0.85026500  0.30937900  1
  C  431  1  0.91306100  0.85196800  0.28992600  1
  C  432  1  0.90518100  0.87328900  0.29269000  1
  C  441  1  0.89142600  0.68089400  0.53331300  1
  C  442  1  0.91235700  0.67326300  0.54453400  1
  C  443  1  0.90000900  0.66860200  0.56103200  1
  C  444  1  0.86594700  0.67129000  0.56611100  1
  C  445  1  0.84438100  0.67791700  0.55422400  1
  C  446  1  0.85724900  0.68274100  0.53787900  1
  C  449  1  0.90368300  0.68344700  0.51531400  1
  C  450  1  0.90952900  0.66417500  0.49401700  1
  C  451  1  0.91790700  0.66651300  0.47522200  1
  C  452  1  0.91946200  0.68835500  0.47778400  1
  C  453  1  0.91306100  0.70780600  0.49894100  1
  C  454  1  0.90517200  0.70503400  0.51749400  1
  C  463  1  0.39142300  0.57460500  0.87192800  1
  C  464  1  0.41236500  0.58583000  0.89077100  1
  C  465  1  0.40001400  0.60232700  0.91193100  1
  C  466  1  0.36595000  0.60739800  0.91432100  1
  C  467  1  0.34438200  0.59551200  0.89580900  1
  C  468  1  0.35724600  0.57916700  0.87463900  1
  C  471  1  0.40368500  0.55660600  0.85137300  1
  C  472  1  0.40954000  0.53531300  0.84935300  1
  C  473  1  0.41792000  0.51652300  0.82821900  1
  C  474  1  0.41947100  0.51908800  0.80894100  1
  C  475  1  0.41306800  0.54024500  0.81064800  1
  C  476  1  0.40516100  0.55879400  0.83197000  1
  C  485  1  0.39140600  0.12578800  0.63957900  1
  C  486  1  0.41235000  0.10694300  0.63196100  1
  C  487  1  0.40000500  0.08578000  0.62729800  1
  C  488  1  0.36594000  0.08338600  0.62997300  1
  C  489  1  0.34437200  0.10189700  0.63659800  1
  C  490  1  0.35723100  0.12306800  0.64142600  1
  C  493  1  0.40368500  0.14634000  0.64214500  1
  C  494  1  0.40952000  0.14836000  0.62286700  1
  C  495  1  0.41791000  0.16949000  0.62519900  1
  C  496  1  0.41945900  0.18877200  0.64704100  1
  C  497  1  0.41305600  0.18706800  0.66649300  1
  C  498  1  0.40516300  0.16574900  0.66372800  1
  C  507  1  0.39140900  0.35815200  0.42311200  1
  C  508  1  0.41234300  0.36577100  0.41188200  1
  C  509  1  0.39998700  0.37044000  0.39539100  1
  C  510  1  0.36592100  0.36776400  0.39032400  1
  C  511  1  0.34435700  0.36114100  0.40221700  1
  C  512  1  0.35723100  0.35630600  0.41855200  1
  C  515  1  0.40369500  0.35558200  0.44109400  1
  C  516  1  0.40953700  0.37485600  0.46239100  1
  C  517  1  0.41792400  0.37252600  0.48118900  1
  C  518  1  0.41947600  0.35068200  0.47862600  1
  C  519  1  0.41306300  0.33123100  0.45747000  1
  C  520  1  0.40518000  0.33399800  0.43891600  1
  C  529  1  0.91216200  0.83244400  0.26804100  1
  C  530  1  0.89137300  0.81414500  0.26352600  1
  C  532  1  0.91111200  0.79252700  0.22579600  1
  C  533  1  0.93188800  0.81049900  0.22882900  1
  C  534  1  0.93189900  0.83046800  0.25014300  1
  C  536  1  0.91110800  0.77194000  0.20520300  1
  C  537  1  0.89136700  0.73421100  0.18358000  1
  C  538  1  0.91215600  0.72969800  0.16528200  1
  C  539  1  0.93187200  0.74760200  0.16725200  1
  C  542  1  0.93188000  0.76891000  0.18723200  1
  C  543  1  0.95196300  0.78702600  0.19012400  1
  C  544  1  0.95196600  0.80761100  0.21071300  1
  C  549  1  0.91213400  0.49641900  0.16527900  1
  C  550  1  0.89134400  0.51020100  0.18357600  1
  C  552  1  0.91108100  0.49409300  0.20519700  1
  C  553  1  0.93185500  0.47915200  0.18722500  1
  C  554  1  0.93185800  0.48048800  0.16725000  1
  C  556  1  0.91107500  0.49408900  0.22578500  1
  C  557  1  0.89132800  0.51019700  0.26351200  1
  C  558  1  0.91211400  0.49641300  0.26802800  1
  C  559  1  0.93184200  0.48048400  0.25012800  1
  C  562  1  0.93184500  0.47914900  0.22881800  1
  C  563  1  0.95192800  0.46392400  0.21070200  1
  C  564  1  0.95193200  0.46392600  0.19011700  1
  C  569  1  0.91215100  0.72969200  0.50130700  1
  C  570  1  0.89136400  0.73420600  0.48752300  1
  C  572  1  0.91110000  0.77193700  0.50363500  1
  C  573  1  0.93187100  0.76890500  0.51857600  1
  C  574  1  0.93188400  0.74759100  0.51723200  1
  C  576  1  0.91109600  0.79252700  0.50363600  1
  C  577  1  0.89136000  0.81414600  0.48752400  1
  C  578  1  0.91214400  0.83244600  0.50131100  1
  C  579  1  0.93185700  0.83047900  0.51725000  1
  C  582  1  0.93186500  0.81050200  0.51858000  1
  C  583  1  0.95194400  0.80761000  0.53380600  1
  C  584  1  0.95194700  0.78702300  0.53380400  1
  C  589  1  0.41215600  0.20659100  0.68837800  1
  C  590  1  0.39136200  0.22488700  0.69289400  1
  C  592  1  0.41111400  0.24650900  0.73062200  1
  C  593  1  0.43189000  0.22853700  0.72758700  1
  C  594  1  0.43188800  0.20856300  0.70627700  1
  C  596  1  0.41111100  0.26709700  0.75121100  1
  C  597  1  0.39136200  0.30482400  0.77283500  1
  C  598  1  0.41215600  0.30933900  0.79113100  1
  C  599  1  0.43188600  0.29143900  0.78915700  1
  C  602  1  0.43188800  0.27013000  0.76918300  1
  C  603  1  0.45197400  0.25201500  0.76628800  1
  C  604  1  0.45197400  0.23142900  0.74570200  1
  C  609  1  0.41215600  0.54261400  0.79112800  1
  C  610  1  0.39136900  0.52883100  0.77283100  1
  C  612  1  0.41110400  0.54494600  0.75121500  1
  C  613  1  0.43187800  0.55988600  0.76918700  1
  C  614  1  0.43189000  0.55853900  0.78915600  1
  C  616  1  0.41110100  0.54495000  0.73062700  1
  C  617  1  0.39136700  0.52884100  0.69289600  1
  C  618  1  0.41215600  0.54262600  0.68838400  1
  C  619  1  0.43186800  0.55856300  0.70628900  1
  C  622  1  0.43187300  0.55989400  0.72759800  1
  C  623  1  0.45195200  0.57511800  0.74571500  1
  C  624  1  0.45195400  0.57511400  0.76629900  1
  C  629  1  0.41215900  0.30934600  0.45510900  1
  C  630  1  0.39135900  0.30483100  0.46888700  1
  C  632  1  0.41109900  0.26710200  0.45278200  1
  C  633  1  0.43188100  0.27013400  0.43784500  1
  C  634  1  0.43188600  0.29144500  0.43918200  1
  C  636  1  0.41109100  0.24651200  0.45278100  1
  C  637  1  0.39133700  0.22489000  0.46888300  1
  C  638  1  0.41212700  0.20659200  0.45510300  1
  C  639  1  0.43185800  0.20856400  0.43917800  1
  C  642  1  0.43186600  0.22853800  0.43784100  1
  C  643  1  0.45195400  0.23143000  0.42262000  1
  C  644  1  0.45195900  0.25201700  0.42262100  1
  C  649  1  0.03475400  0.54261700  0.68838100  1
  C  650  1  0.05554100  0.52883300  0.69289600  1
  C  652  1  0.03580100  0.54494500  0.73062700  1
  C  653  1  0.01503200  0.55988400  0.72759300  1
  C  654  1  0.01502000  0.55854000  0.70627900  1
  C  656  1  0.03580600  0.54494500  0.75121500  1
  C  657  1  0.05554100  0.52883300  0.77283400  1
  C  658  1  0.03475900  0.54262100  0.79113500  1
  C  659  1  0.01504700  0.55855700  0.78916700  1
  C  662  1  0.01503700  0.55988900  0.76919000  1
  C  663  1  0.99495900  0.57511400  0.76629900  1
  C  664  1  0.99495600  0.57511300  0.74571200  1
  C  669  1  0.03476400  0.30934400  0.79113000  1
  C  670  1  0.05555800  0.30482700  0.77283400  1
  C  672  1  0.03580600  0.26710000  0.75121100  1
  C  673  1  0.01502900  0.27013500  0.76918100  1
  C  674  1  0.01502900  0.29144500  0.78915600  1
  C  676  1  0.03580600  0.24651100  0.73062200  1
  C  677  1  0.05555100  0.22488800  0.69289400  1
  C  678  1  0.03475600  0.20659300  0.68837700  1
  C  679  1  0.01502400  0.20856600  0.70627700  1
  C  682  1  0.01502700  0.22854100  0.72758900  1
  C  683  1  0.99494200  0.23143300  0.74570200  1
  C  684  1  0.99494400  0.25202000  0.76628900  1
  C  689  1  0.03474200  0.20659200  0.45510800  1
  C  690  1  0.05552600  0.22489200  0.46889300  1
  C  692  1  0.03578900  0.24650800  0.45277800  1
  C  693  1  0.01501700  0.22853400  0.43783900  1
  C  694  1  0.01500500  0.20856600  0.43918500  1
  C  696  1  0.03579200  0.26709500  0.45277400  1
  C  697  1  0.05553100  0.30482600  0.46888100  1
  C  698  1  0.03473900  0.30933800  0.45509700  1
  C  699  1  0.01502700  0.29143300  0.43916100  1
  C  702  1  0.01502200  0.27012600  0.43783200  1
  C  703  1  0.99494200  0.25200700  0.42260600  1
  C  704  1  0.99494000  0.23142300  0.42261000  1
  C  709  1  0.53477200  0.49641400  0.26802700  1
  C  710  1  0.55557100  0.51019200  0.26351000  1
  C  712  1  0.53582700  0.49408600  0.22578200  1
  C  713  1  0.51504700  0.47914900  0.22881500  1
  C  714  1  0.51504500  0.48048600  0.25012500  1
  C  716  1  0.53582900  0.49408700  0.20519300  1
  C  717  1  0.55557300  0.51019700  0.18357500  1
  C  718  1  0.53478200  0.49641700  0.16527700  1
  C  719  1  0.51505200  0.48048900  0.16724800  1
  C  722  1  0.51505500  0.47915000  0.18722200  1
  C  723  1  0.49496600  0.46392700  0.19011300  1
  C  724  1  0.49496600  0.46392700  0.21070000  1
  C  729  1  0.53473000  0.72969200  0.16527900  1
  C  730  1  0.55552200  0.73420700  0.18357600  1
  C  732  1  0.53577700  0.77193500  0.20519800  1
  C  733  1  0.51500100  0.76890300  0.18722800  1
  C  734  1  0.51499100  0.74758900  0.16725600  1
  C  736  1  0.53578200  0.79252500  0.22578700  1
  C  737  1  0.55553100  0.81414700  0.26351400  1
  C  738  1  0.53474200  0.83244500  0.26802900  1
  C  739  1  0.51502300  0.83047700  0.25012700  1
  C  742  1  0.51501000  0.81049800  0.22882000  1
  C  743  1  0.49492700  0.80760600  0.21070400  1
  C  744  1  0.49492200  0.78701900  0.19011900  1
  C  749  1  0.53476700  0.83244200  0.50130400  1
  C  750  1  0.55556100  0.81414500  0.48752500  1
  C  752  1  0.53580700  0.79252400  0.50362800  1
  C  753  1  0.51502800  0.81049300  0.51856300  1
  C  754  1  0.51503000  0.83046900  0.51722800  1
  C  756  1  0.53580400  0.77193400  0.50362800  1
  C  757  1  0.55555100  0.73420700  0.48752400  1
  C  758  1  0.53475500  0.72969000  0.50130100  1
  C  759  1  0.51502300  0.74759000  0.51722800  1
  C  762  1  0.51502500  0.76890000  0.51856400  1
  C  763  1  0.49493700  0.78701500  0.53378400  1
  C  764  1  0.49493900  0.80760100  0.53378400  1
  C  769  1  0.80979300  0.67753500  0.05762200  1
  C  770  1  0.79074700  0.66045000  0.05784500  1
  C  772  1  0.74079800  0.67744500  0.05549600  1
  C  773  1  0.75848300  0.69497500  0.05481000  1
  C  774  1  0.79326000  0.69468500  0.05582000  1
  C  776  1  0.70611100  0.67743900  0.05548800  1
  C  777  1  0.65616600  0.66043200  0.05782200  1
  C  778  1  0.63711700  0.67751900  0.05760400  1
  C  779  1  0.65364300  0.69465800  0.05578200  1
  C  782  1  0.68842000  0.69496400  0.05479600  1
  C  783  1  0.70610100  0.71216500  0.05369900  1
  C  784  1  0.74080000  0.71216900  0.05370500  1
  C  789  1  0.80978100  0.44090300  0.32019300  1
  C  790  1  0.79073500  0.45819700  0.33729500  1
  C  792  1  0.74078500  0.43887500  0.32026800  1
  C  793  1  0.75847100  0.42067100  0.30272800  1
  C  794  1  0.79325000  0.42196300  0.30302900  1
  C  796  1  0.70609900  0.43887700  0.32026800  1
  C  797  1  0.65615100  0.45820500  0.33728800  1
  C  798  1  0.63710200  0.44090800  0.32019300  1
  C  799  1  0.65363300  0.42196700  0.30303000  1
  C  802  1  0.68841000  0.42067200  0.30272900  1
  C  803  1  0.70609200  0.40238500  0.28551400  1
  C  804  1  0.74079000  0.40238400  0.28551500  1
  C  809  1  0.80978400  0.94011800  0.55681400  1
  C  810  1  0.79073600  0.93990300  0.53951000  1
  C  812  1  0.74078500  0.94222500  0.55884100  1
  C  813  1  0.75847300  0.94289800  0.57705100  1
  C  814  1  0.79325000  0.94189500  0.57575400  1
  C  816  1  0.70610100  0.94222800  0.55884300  1
  C  817  1  0.65615300  0.93990500  0.53950800  1
  C  818  1  0.63710700  0.94010700  0.55680600  1
  C  819  1  0.65363300  0.94191300  0.57576000  1
  C  822  1  0.68841300  0.94290200  0.57705200  1
  C  823  1  0.70609200  0.94398400  0.59534300  1
  C  824  1  0.74079000  0.94398300  0.59534300  1
  C  829  1  0.30977400  0.36151300  0.89880900  1
  C  830  1  0.29072800  0.37860900  0.89860700  1
  C  832  1  0.24078000  0.36158900  0.90091800  1
  C  833  1  0.25846800  0.34405600  0.90159500  1
  C  834  1  0.29324600  0.34435800  0.90060200  1
  C  836  1  0.20609300  0.36158800  0.90091500  1
  C  837  1  0.15614500  0.37859700  0.89859200  1
  C  838  1  0.13709700  0.36150600  0.89880400  1
  C  839  1  0.15363000  0.34435000  0.90059400  1
  C  842  1  0.18840700  0.34405400  0.90159200  1
  C  843  1  0.20609100  0.32684700  0.90267800  1
  C  844  1  0.24079000  0.32685000  0.90268100  1
  C  849  1  0.30979400  0.59811700  0.63622000  1
  C  850  1  0.29074500  0.58081300  0.61913400  1
  C  852  1  0.24079700  0.60015100  0.63613700  1
  C  853  1  0.25848300  0.61836400  0.65366900  1
  C  854  1  0.29326100  0.61706500  0.65337500  1
  C  856  1  0.20611100  0.60015300  0.63613500  1
  C  857  1  0.15616200  0.58081500  0.61912800  1
  C  858  1  0.13711600  0.59811500  0.63622000  1
  C  859  1  0.15364500  0.61707500  0.65336200  1
  C  862  1  0.18842200  0.61836600  0.65366500  1
  C  863  1  0.20610300  0.63666200  0.67086800  1
  C  864  1  0.24080200  0.63666100  0.67086900  1
  C  869  1  0.30979400  0.09891600  0.39959300  1
  C  870  1  0.29075000  0.09910900  0.41688900  1
  C  872  1  0.24079700  0.09681000  0.39756600  1
  C  873  1  0.25848300  0.09614500  0.37936100  1
  C  874  1  0.29326100  0.09713800  0.38065400  1
  C  876  1  0.20611300  0.09681100  0.39756900  1
  C  877  1  0.15616500  0.09912200  0.41690000  1
  C  878  1  0.13711600  0.09891700  0.39960100  1
  C  879  1  0.15364500  0.09713800  0.38066100  1
  C  882  1  0.18842200  0.09614500  0.37936500  1
  C  883  1  0.20610100  0.09506900  0.36107500  1
  C  884  1  0.24079900  0.09506800  0.36107400  1
  C  889  1  0.13712600  0.59811600  0.89880800  1
  C  890  1  0.15617200  0.58081100  0.89859100  1
  C  892  1  0.20612300  0.60014300  0.90091500  1
  C  893  1  0.18843900  0.61835400  0.90159200  1
  C  894  1  0.15366200  0.61705800  0.90059100  1
  C  896  1  0.24080900  0.60014000  0.90091500  1
  C  897  1  0.29075500  0.58079900  0.89858000  1
  C  898  1  0.30980300  0.59810100  0.89879300  1
  C  899  1  0.29327800  0.61705700  0.90060300  1
  C  902  1  0.25850000  0.61835000  0.90159100  1
  C  903  1  0.24082200  0.63664500  0.90268000  1
  C  904  1  0.20612300  0.63664700  0.90268200  1
  C  909  1  0.13711900  0.09890800  0.63619600  1
  C  910  1  0.15616500  0.09911000  0.61910000  1
  C  912  1  0.20611300  0.09679400  0.63611600  1
  C  913  1  0.18842400  0.09611700  0.65364900  1
  C  914  1  0.15364700  0.09711100  0.65334900  1
  C  916  1  0.24079700  0.09679500  0.63611500  1
  C  917  1  0.29074800  0.09912200  0.61910900  1
  C  918  1  0.30979400  0.09890800  0.63619700  1
  C  919  1  0.29326300  0.09711300  0.65335100  1
  C  922  1  0.25848600  0.09611700  0.65364900  1
  C  923  1  0.24080200  0.09502900  0.67085500  1
  C  924  1  0.20610300  0.09502700  0.67085400  1
  C  929  1  0.13710400  0.36151600  0.39961400  1
  C  930  1  0.15614800  0.37860100  0.41692600  1
  C  932  1  0.20609800  0.36160800  0.39758400  1
  C  933  1  0.18841700  0.34408100  0.37936500  1
  C  934  1  0.15364000  0.34437000  0.38066200  1
  C  936  1  0.24078500  0.36161500  0.39758700  1
  C  937  1  0.29072800  0.37861500  0.41693600  1
  C  938  1  0.30977900  0.36153500  0.39962700  1
  C  939  1  0.29325600  0.34439900  0.38066200  1
  C  942  1  0.25847800  0.34409200  0.37936900  1
  C  943  1  0.24080200  0.32689400  0.36106600  1
  C  944  1  0.20610300  0.32689000  0.36106600  1
  C  949  1  0.63709700  0.44091500  0.05759500  1
  C  950  1  0.65614100  0.45821200  0.05779000  1
  C  952  1  0.70609400  0.43889000  0.05549100  1
  C  953  1  0.68840800  0.42068400  0.05482600  1
  C  954  1  0.65363000  0.42197600  0.05581800  1
  C  956  1  0.74077800  0.43889300  0.05549300  1
  C  957  1  0.79072500  0.45822700  0.05780800  1
  C  958  1  0.80977500  0.44092900  0.05760300  1
  C  959  1  0.79324700  0.42198600  0.05582100  1
  C  962  1  0.75846900  0.42068900  0.05482700  1
  C  963  1  0.74079000  0.40240000  0.05375000  1
  C  964  1  0.70609200  0.40239700  0.05374900  1
  C  969  1  0.63711200  0.94011900  0.32021100  1
  C  970  1  0.65615800  0.93989500  0.33729500  1
  C  972  1  0.70611100  0.94223300  0.32029700  1
  C  973  1  0.68842700  0.94291600  0.30276500  1
  C  974  1  0.65365000  0.94190800  0.30305500  1
  C  976  1  0.74079500  0.94224100  0.32030400  1
  C  977  1  0.79074100  0.93991800  0.33731800  1
  C  978  1  0.80978900  0.94012300  0.32022500  1
  C  979  1  0.79326600  0.94194000  0.30308200  1
  C  982  1  0.75848700  0.94292700  0.30277600  1
  C  983  1  0.74081000  0.94401900  0.28557100  1
  C  984  1  0.70611100  0.94401400  0.28556600  1
  C  989  1  0.63712700  0.67751100  0.55680400  1
  C  990  1  0.65617300  0.66041500  0.53950600  1
  C  992  1  0.70612100  0.67743400  0.55883900  1
  C  993  1  0.68843000  0.69496600  0.57705000  1
  C  994  1  0.65365300  0.69466400  0.57575400  1
  C  996  1  0.74080700  0.67743600  0.55883900  1
  C  997  1  0.79075800  0.66043000  0.53950800  1
  C  998  1  0.80980300  0.67752000  0.55681100  1
  C  999  1  0.79326900  0.69467400  0.57575900  1
  C  1002  1  0.75849100  0.69497000  0.57705200  1
  C  1003  1  0.74080700  0.71217400  0.59534400  1
  C  1004  1  0.70610900  0.71217200  0.59534300  1
  C  1009  1  0.02543500  0.61258200  0.93075900  1
  C  1010  1  0.01351000  0.60036900  0.94082200  1
  C  1012  1  0.98383500  0.63235700  0.96866200  1
  C  1013  1  0.99465200  0.64551300  0.95913800  1
  C  1014  1  0.01580600  0.63532600  0.94021700  1
  C  1016  1  0.96305700  0.64189700  0.98773900  1
  C  1017  1  0.93339900  0.63775600  0.01559000  1
  C  1018  1  0.92146500  0.66002900  0.02564500  1
  C  1019  1  0.93107700  0.67330900  0.01617800  1
  C  1022  1  0.95223400  0.66457500  0.99726000  1
  C  1023  1  0.96284900  0.67751600  0.98759300  1
  C  1024  1  0.98403100  0.66811800  0.96879900  1
  C  1029  1  0.02542800  0.37901000  0.38513600  1
  C  1030  1  0.01349500  0.40128200  0.39735000  1
  C  1032  1  0.98383900  0.39713800  0.36535700  1
  C  1033  1  0.99465500  0.37446000  0.35220300  1
  C  1034  1  0.01580900  0.36572500  0.36239000  1
  C  1036  1  0.96306600  0.40667700  0.35581600  1
  C  1037  1  0.93340400  0.43866800  0.35995800  1
  C  1038  1  0.92147300  0.42645200  0.33768500  1
  C  1039  1  0.93108800  0.40370600  0.32440500  1
  C  1042  1  0.95224300  0.39352000  0.33314000  1
  C  1043  1  0.96285600  0.37091200  0.32019800  1
  C  1044  1  0.98403700  0.36151400  0.32959600  1
  C  1049  1  0.02543300  0.06696200  0.61871300  1
  C  1050  1  0.01352200  0.05689400  0.59643500  1
  C  1052  1  0.98384300  0.02905600  0.60058400  1
  C  1053  1  0.99464900  0.03858500  0.62326500  1
  C  1054  1  0.01579900  0.05750800  0.63200000  1
  C  1056  1  0.96306800  0.00997800  0.59104600  1
  C  1057  1  0.93341700  0.98212300  0.55905300  1
  C  1058  1  0.92147300  0.97207200  0.57127300  1
  C  1059  1  0.93107800  0.98154300  0.59402000  1
  C  1062  1  0.95223600  0.00046200  0.60420400  1
  C  1063  1  0.96284200  0.01013100  0.62681500  1
  C  1064  1  0.98402200  0.02892800  0.63621200  1
  C  1069  1  0.52539900  0.42646200  0.02566100  1
  C  1070  1  0.51345600  0.43867900  0.01560800  1
  C  1072  1  0.48381100  0.40668200  0.98775100  1
  C  1073  1  0.49463900  0.39352500  0.99727100  1
  C  1074  1  0.51579500  0.40371300  0.01619200  1
  C  1076  1  0.46303900  0.39714100  0.96867200  1
  C  1077  1  0.43337100  0.40128400  0.94082700  1
  C  1078  1  0.42145300  0.37900500  0.93076100  1
  C  1079  1  0.43107900  0.36572300  0.94022300  1
  C  1082  1  0.45223200  0.37446000  0.95914500  1
  C  1083  1  0.46285700  0.36151500  0.96880600  1
  C  1084  1  0.48403700  0.37091600  0.98760300  1
  C  1089  1  0.52544100  0.66002800  0.57126800  1
  C  1090  1  0.51352300  0.63775100  0.55905600  1
  C  1092  1  0.48384000  0.64189900  0.59104200  1
  C  1093  1  0.49465100  0.66457900  0.60419600  1
  C  1094  1  0.51580700  0.67331400  0.59400900  1
  C  1096  1  0.46306100  0.63236100  0.60058000  1
  C  1097  1  0.43340500  0.60036800  0.59644000  1
  C  1098  1  0.42146300  0.61258700  0.61871000  1
  C  1099  1  0.43107200  0.63533500  0.63198900  1
  C  1102  1  0.45223200  0.64551900  0.62325600  1
  C  1103  1  0.46284200  0.66812700  0.63619800  1
  C  1104  1  0.48402700  0.67752400  0.62680000  1
  C  1109  1  0.52542100  0.97207000  0.33769300  1
  C  1110  1  0.51348600  0.98212400  0.35996400  1
  C  1112  1  0.48383500  0.00997800  0.35582300  1
  C  1113  1  0.49465100  0.00045500  0.33314600  1
  C  1114  1  0.51580500  0.98153300  0.32441100  1
  C  1116  1  0.46306600  0.02905900  0.36536400  1
  C  1117  1  0.43340800  0.05691000  0.39735600  1
  C  1118  1  0.42148200  0.06697100  0.38514100  1
  C  1119  1  0.43109900  0.05750600  0.36239500  1
  C  1122  1  0.45224900  0.03858200  0.35220900  1
  C  1123  1  0.46286200  0.02891700  0.32960100  1
  C  1124  1  0.48403900  0.01012000  0.32020200  1
  C  1129  1  0.92146500  0.42646800  0.02565900  1
  C  1130  1  0.93338400  0.43867800  0.01559100  1
  C  1132  1  0.96305800  0.40669000  0.98775100  1
  C  1133  1  0.95224600  0.39353800  0.99727900  1
  C  1134  1  0.93109400  0.40372500  0.01620100  1
  C  1136  1  0.98383200  0.39714900  0.96867200  1
  C  1137  1  0.01348300  0.40128700  0.94081800  1
  C  1138  1  0.02541800  0.37901400  0.93076200  1
  C  1139  1  0.01581100  0.36573600  0.94023300  1
  C  1142  1  0.99465600  0.37447200  0.95915400  1
  C  1143  1  0.98404600  0.36153100  0.96882200  1
  C  1144  1  0.96286700  0.37093100  0.98761800  1
  C  1149  1  0.92148700  0.66002600  0.57127100  1
  C  1150  1  0.93342400  0.63775300  0.55905500  1
  C  1152  1  0.96307800  0.64189600  0.59104900  1
  C  1153  1  0.95225800  0.66457300  0.60420300  1
  C  1154  1  0.93110300  0.67330800  0.59401700  1
  C  1156  1  0.98384900  0.63235700  0.60058900  1
  C  1157  1  0.01350700  0.60036500  0.59644900  1
  C  1158  1  0.02543300  0.61258000  0.61872300  1
  C  1159  1  0.01581600  0.63532600  0.63200400  1
  C  1162  1  0.99466600  0.64551200  0.62326700  1
  C  1163  1  0.98405000  0.66812000  0.63621100  1
  C  1164  1  0.96287100  0.67751700  0.62681100  1
  C  1169  1  0.92147300  0.97207300  0.33770600  1
  C  1170  1  0.93338700  0.98214200  0.35998400  1
  C  1172  1  0.96306200  0.00998100  0.35583400  1
  C  1173  1  0.95225300  0.00045300  0.33315400  1
  C  1174  1  0.93110300  0.98152800  0.32441900  1
  C  1176  1  0.98383700  0.02906000  0.36537200  1
  C  1177  1  0.01349500  0.05691300  0.39736400  1
  C  1178  1  0.02542800  0.06696700  0.38514600  1
  C  1179  1  0.01582100  0.05749600  0.36239700  1
  C  1182  1  0.99466500  0.03857600  0.35221300  1
  C  1183  1  0.98405600  0.02890600  0.32960400  1
  C  1184  1  0.96287600  0.01011000  0.32020700  1
  C  1189  1  0.42149500  0.61256800  0.93074700  1
  C  1190  1  0.43343700  0.60035200  0.94080100  1
  C  1192  1  0.46308000  0.63235100  0.96865800  1
  C  1193  1  0.45225200  0.64550600  0.95913600  1
  C  1194  1  0.43109900  0.63531700  0.94021400  1
  C  1196  1  0.48385000  0.64189300  0.98773800  1
  C  1197  1  0.51352000  0.63775000  0.01558400  1
  C  1198  1  0.52543800  0.66002800  0.02564800  1
  C  1199  1  0.51581200  0.67331000  0.01618600  1
  C  1202  1  0.49465900  0.66457300  0.99726300  1
  C  1203  1  0.48403400  0.67751600  0.98760200  1
  C  1204  1  0.46285700  0.66811600  0.96880300  1
  C  1209  1  0.42146000  0.37901800  0.38515200  1
  C  1210  1  0.43336600  0.40129800  0.39736100  1
  C  1212  1  0.46305100  0.39714700  0.36537400  1
  C  1213  1  0.45224900  0.37446500  0.35222400  1
  C  1214  1  0.43109900  0.36572900  0.36241200  1
  C  1216  1  0.48382500  0.40668600  0.35583400  1
  C  1217  1  0.51346600  0.43868200  0.35997000  1
  C  1218  1  0.52542100  0.42646100  0.33770300  1
  C  1219  1  0.51582200  0.40370900  0.32442600  1
  C  1222  1  0.49466100  0.39352600  0.33316100  1
  C  1223  1  0.48406100  0.37091500  0.32022300  1
  C  1224  1  0.46288100  0.36151600  0.32962000  1
  C  1229  1  0.42148700  0.06696700  0.61872000  1
  C  1230  1  0.43342500  0.05691300  0.59644900  1
  C  1232  1  0.46307500  0.02905900  0.60058900  1
  C  1233  1  0.45225900  0.03858200  0.62326700  1
  C  1234  1  0.43110600  0.05750400  0.63200300  1
  C  1236  1  0.48384500  0.00997600  0.59104700  1
  C  1237  1  0.51349800  0.98212600  0.55905600  1
  C  1238  1  0.52542100  0.97206200  0.57126800  1
  C  1239  1  0.51580700  0.98152900  0.59401500  1
  C  1242  1  0.49465900  0.00045300  0.60420200  1
  C  1243  1  0.48404700  0.01011800  0.62681000  1
  C  1244  1  0.46287100  0.02891500  0.63620900  1
  C  1249  1  0.91985400  0.64703000  0.13045700  1
  C  1250  1  0.94404100  0.63030800  0.11926600  1
  C  1252  1  0.92008300  0.60667700  0.13191100  1
  C  1253  1  0.89501500  0.62285800  0.14354300  1
  C  1254  1  0.89524800  0.64291100  0.14249400  1
  C  1256  1  0.92008300  0.58607000  0.13191400  1
  C  1257  1  0.94404100  0.54979400  0.11927300  1
  C  1258  1  0.91983300  0.54426100  0.13045000  1
  C  1259  1  0.89525200  0.56042600  0.14250900  1
  C  1262  1  0.89501400  0.58152500  0.14354700  1
  C  1263  1  0.87041800  0.59782200  0.15532900  1
  C  1264  1  0.87041900  0.61834600  0.15532700  1
  C  1269  1  0.91981200  0.54426100  0.35069000  1
  C  1270  1  0.94400800  0.54979000  0.36740800  1
  C  1272  1  0.92005800  0.58606800  0.39104400  1
  C  1273  1  0.89499400  0.58152600  0.37486400  1
  C  1274  1  0.89522500  0.56042700  0.35480600  1
  C  1276  1  0.92006500  0.60667600  0.41165200  1
  C  1277  1  0.94402100  0.63030400  0.44793000  1
  C  1278  1  0.91984100  0.64703000  0.45345900  1
  C  1279  1  0.89524500  0.64291700  0.43729900  1
  C  1282  1  0.89500500  0.62286000  0.41619800  1
  C  1283  1  0.87041000  0.61835200  0.39990200  1
  C  1284  1  0.87040600  0.59782700  0.37937700  1
  C  1289  1  0.91982700  0.86728700  0.45347900  1
  C  1290  1  0.94403200  0.87846400  0.44794400  1
  C  1292  1  0.92007600  0.86581800  0.41166700  1
  C  1293  1  0.89500100  0.85419100  0.41621600  1
  C  1294  1  0.89522800  0.85524400  0.43732000  1
  C  1296  1  0.92008000  0.86581400  0.39105600  1
  C  1297  1  0.94404200  0.87845300  0.36742100  1
  C  1298  1  0.91983900  0.86727500  0.35070900  1
  C  1299  1  0.89525200  0.85521800  0.35481700  1
  C  1302  1  0.89501000  0.85418200  0.37487800  1
  C  1303  1  0.87040900  0.84240400  0.37939400  1
  C  1304  1  0.87040500  0.84240800  0.39992000  1
  C  1309  1  0.41981300  0.39200300  0.82596000  1
  C  1310  1  0.44402000  0.40871400  0.83713800  1
  C  1312  1  0.42007100  0.43234600  0.82449000  1
  C  1313  1  0.39500600  0.41616600  0.81285400  1
  C  1314  1  0.39523200  0.39611200  0.81390100  1
  C  1316  1  0.42008100  0.45295200  0.82448600  1
  C  1317  1  0.44403700  0.48922900  0.83713200  1
  C  1318  1  0.41985700  0.49475800  0.82593500  1
  C  1319  1  0.39526200  0.47859700  0.81388800  1
  C  1322  1  0.39502100  0.45749700  0.81284600  1
  C  1323  1  0.37042500  0.44120100  0.80106000  1
  C  1324  1  0.37041800  0.42067800  0.80106500  1
  C  1329  1  0.41986400  0.49477500  0.60571600  1
  C  1330  1  0.44405200  0.48924700  0.58899600  1
  C  1332  1  0.42010000  0.45296700  0.56536700  1
  C  1333  1  0.39503300  0.45751500  0.58154800  1
  C  1334  1  0.39526200  0.47861800  0.60159800  1
  C  1336  1  0.42010000  0.43235700  0.54476000  1
  C  1337  1  0.44405200  0.40872600  0.50848200  1
  C  1338  1  0.41985200  0.39201300  0.50295100  1
  C  1339  1  0.39527100  0.39611800  0.51911700  1
  C  1342  1  0.39503300  0.41617800  0.54021600  1
  C  1343  1  0.37044000  0.42069100  0.55651200  1
  C  1344  1  0.37043800  0.44121800  0.57703700  1
  C  1349  1  0.41981500  0.17177800  0.50295200  1
  C  1350  1  0.44401200  0.16059200  0.50848300  1
  C  1352  1  0.42005600  0.17322800  0.54475700  1
  C  1353  1  0.39498900  0.18486500  0.54021400  1
  C  1354  1  0.39522500  0.18382300  0.51911400  1
  C  1356  1  0.42005600  0.17322500  0.56536400  1
  C  1357  1  0.44401500  0.16057500  0.58899200  1
  C  1358  1  0.41980800  0.17175000  0.60570400  1
  C  1359  1  0.39522500  0.18380900  0.60159800  1
  C  1362  1  0.39499100  0.18485800  0.58154600  1
  C  1363  1  0.37039600  0.19664300  0.57703500  1
  C  1364  1  0.37039600  0.19664700  0.55651100  1
  C  1369  1  0.02708200  0.49478800  0.82597600  1
  C  1370  1  0.00287800  0.48925200  0.83715100  1
  C  1372  1  0.02683700  0.45297500  0.82450600  1
  C  1373  1  0.05191100  0.45752600  0.81287900  1
  C  1374  1  0.05168300  0.47863300  0.81393500  1
  C  1376  1  0.02683400  0.43236400  0.82450000  1
  C  1377  1  0.00287100  0.40872600  0.83713500  1
  C  1378  1  0.02706500  0.39200900  0.82594800  1
  C  1379  1  0.05166100  0.39612300  0.81390100  1
  C  1382  1  0.05190400  0.41618500  0.81286700  1
  C  1383  1  0.07650400  0.42070300  0.80109100  1
  C  1384  1  0.07650900  0.44123200  0.80109800  1
  C  1389  1  0.02709500  0.17176700  0.60571400  1
  C  1390  1  0.00288800  0.16059000  0.58900400  1
  C  1392  1  0.02684600  0.17322600  0.56536500  1
  C  1393  1  0.05191400  0.18486100  0.58154500  1
  C  1394  1  0.05168300  0.18381800  0.60160200  1
  C  1396  1  0.02684400  0.17322500  0.54475700  1
  C  1397  1  0.00288500  0.16057700  0.50848000  1
  C  1398  1  0.02709500  0.17175000  0.50294300  1
  C  1399  1  0.05168000  0.18380900  0.51910500  1
  C  1402  1  0.05191400  0.18485700  0.54020800  1
  C  1403  1  0.07650700  0.19664200  0.55650400  1
  C  1404  1  0.07650900  0.19664400  0.57703100  1
  C  1409  1  0.02703600  0.39200500  0.50294700  1
  C  1410  1  0.00285600  0.40873000  0.50847700  1
  C  1412  1  0.02681200  0.43235600  0.54475600  1
  C  1413  1  0.05187500  0.41617200  0.54020700  1
  C  1414  1  0.05164100  0.39612000  0.51910300  1
  C  1416  1  0.02681400  0.45296200  0.56536500  1
  C  1417  1  0.00287800  0.48924500  0.58899700  1
  C  1418  1  0.02706500  0.49477100  0.60571800  1
  C  1419  1  0.05164600  0.47860100  0.60160500  1
  C  1422  1  0.05188200  0.45750400  0.58154400  1
  C  1423  1  0.07647300  0.44120400  0.57702900  1
  C  1424  1  0.07647000  0.42067900  0.55650100  1
  C  1429  1  0.52707800  0.54427300  0.13047200  1
  C  1430  1  0.50288400  0.54980300  0.11928500  1
  C  1432  1  0.52683700  0.58607900  0.13192300  1
  C  1433  1  0.55190000  0.58153700  0.14356200  1
  C  1434  1  0.55166600  0.56043800  0.14252100  1
  C  1436  1  0.52683500  0.60668600  0.13192200  1
  C  1437  1  0.50288600  0.63031200  0.11926600  1
  C  1438  1  0.52708600  0.64702800  0.13044900  1
  C  1439  1  0.55166900  0.64292100  0.14250600  1
  C  1442  1  0.55190000  0.62286800  0.14355700  1
  C  1443  1  0.57649300  0.61836000  0.15534600  1
  C  1444  1  0.57649000  0.59783600  0.15535000  1
  C  1449  1  0.52707100  0.86728400  0.35070300  1
  C  1450  1  0.50287100  0.87846300  0.36741700  1
  C  1452  1  0.52683200  0.86581400  0.39104400  1
  C  1453  1  0.55190200  0.85418500  0.37486500  1
  C  1454  1  0.55167100  0.85524000  0.35481500  1
  C  1456  1  0.52683000  0.86580800  0.41165000  1
  C  1457  1  0.50288100  0.87845000  0.44792900  1
  C  1458  1  0.52707300  0.86725800  0.45345700  1
  C  1459  1  0.55166100  0.85520700  0.43729000  1
  C  1462  1  0.55190000  0.85417400  0.41619400  1
  C  1463  1  0.57649800  0.84239400  0.39989800  1
  C  1464  1  0.57649800  0.84240100  0.37937500  1
  C  1469  1  0.52709800  0.64702700  0.45346500  1
  C  1470  1  0.50289100  0.63031600  0.44793000  1
  C  1472  1  0.52684200  0.60668200  0.41165300  1
  C  1473  1  0.55191000  0.62286200  0.41619700  1
  C  1474  1  0.55168100  0.64291700  0.43729900  1
  C  1476  1  0.52683700  0.58607500  0.39104300  1
  C  1477  1  0.50288100  0.54979800  0.36741200  1
  C  1478  1  0.52706600  0.54426900  0.35068800  1
  C  1479  1  0.55166100  0.56043000  0.35480400  1
  C  1482  1  0.55190000  0.58153000  0.37486000  1
  C  1483  1  0.57649500  0.59782500  0.37937200  1
  C  1484  1  0.57650000  0.61835000  0.39989700  1
  N  531  1  0.89172300  0.79518400  0.24308800  1
  N  541  1  0.89171900  0.75464600  0.20254300  1
  N  551  1  0.89169400  0.50872700  0.20253900  1
  N  561  1  0.89168500  0.50872400  0.24307700  1
  N  571  1  0.89171400  0.75464300  0.48899800  1
  N  581  1  0.89171200  0.79518400  0.48899900  1
  N  591  1  0.39171800  0.24385000  0.71333100  1
  N  601  1  0.39171600  0.28439000  0.75387200  1
  N  611  1  0.39171800  0.53030900  0.75387000  1
  N  621  1  0.39171600  0.53031500  0.71333300  1
  N  631  1  0.39170900  0.28439500  0.46741300  1
  N  641  1  0.39169600  0.24385400  0.46741200  1
  N  651  1  0.05518900  0.53030700  0.71333200  1
  N  661  1  0.05519200  0.53030800  0.75387300  1
  N  671  1  0.05520400  0.28439200  0.75387100  1
  N  681  1  0.05519900  0.24385100  0.71333000  1
  N  691  1  0.05517400  0.24385300  0.46741600  1
  N  701  1  0.05517700  0.28439000  0.46741000  1
  N  711  1  0.55521900  0.50871900  0.24307400  1
  N  721  1  0.55522200  0.50872000  0.20253500  1
  N  731  1  0.55517000  0.75464300  0.20253900  1
  N  741  1  0.55517500  0.79518300  0.24307900  1
  N  751  1  0.55520400  0.79518300  0.48899800  1
  N  761  1  0.55520000  0.75464200  0.48899700  1
  N  771  1  0.75755100  0.66104400  0.05690100  1
  N  781  1  0.68936200  0.66103500  0.05689100  1
  N  791  1  0.75753800  0.45666800  0.33668700  1
  N  801  1  0.68934700  0.45667200  0.33668600  1
  N  811  1  0.75753900  0.94083800  0.54104400  1
  N  821  1  0.68935000  0.94083800  0.54104200  1
  N  831  1  0.25752900  0.37800100  0.89953000  1
  N  841  1  0.18934200  0.37799700  0.89952400  1
  N  851  1  0.25754900  0.58234800  0.61973100  1
  N  861  1  0.18935900  0.58235000  0.61972900  1
  N  871  1  0.25755100  0.09818800  0.41536000  1
  N  881  1  0.18936100  0.09819200  0.41536600  1
  N  891  1  0.18936900  0.58234300  0.89952300  1
  N  901  1  0.25755900  0.58233800  0.89952200  1
  N  911  1  0.18936100  0.09818500  0.61970600  1
  N  921  1  0.25754900  0.09818900  0.61970800  1
  N  931  1  0.18934400  0.37800700  0.41539200  1
  N  941  1  0.25753200  0.37801600  0.41539700  1
  N  951  1  0.68934000  0.45668400  0.05686800  1
  N  961  1  0.75752800  0.45669100  0.05687500  1
  N  971  1  0.68935400  0.94083400  0.33670000  1
  N  981  1  0.75754400  0.94084300  0.33671000  1
  N  991  1  0.68937200  0.66102300  0.54103900  1
  N  1001  1  0.75756100  0.66103000  0.54103900  1
  N  1011  1  0.99367900  0.61052200  0.95914200  1
  N  1021  1  0.95322300  0.62958500  0.99726400  1
  N  1031  1  0.99367800  0.40945300  0.38719300  1
  N  1041  1  0.95323000  0.42851400  0.36812900  1
  N  1051  1  0.99369300  0.03857100  0.58826600  1
  N  1061  1  0.95324200  0.00044700  0.56920700  1
  N  1071  1  0.49363800  0.42852100  0.99727900  1
  N  1081  1  0.45319400  0.40945600  0.95915300  1
  N  1091  1  0.49369000  0.62958200  0.56920900  1
  N  1101  1  0.45323000  0.61052300  0.58827000  1
  N  1111  1  0.49367000  0.00045400  0.36813700  1
  N  1121  1  0.45322800  0.03858300  0.38720100  1
  N  1131  1  0.95321400  0.42852500  0.99726900  1
  N  1141  1  0.99366200  0.40945900  0.95914400  1
  N  1151  1  0.95324200  0.62958200  0.56921200  1
  N  1161  1  0.99368700  0.61052000  0.58827700  1
  N  1171  1  0.95321500  0.00046400  0.36815200  1
  N  1181  1  0.99366700  0.03859000  0.38721200  1
  N  1191  1  0.45325300  0.61051100  0.95913100  1
  N  1201  1  0.49369700  0.62957800  0.99725700  1
  N  1211  1  0.45319600  0.40946600  0.38720600  1
  N  1221  1  0.49364600  0.42852700  0.36814200  1
  N  1231  1  0.45324000  0.03858300  0.58827700  1
  N  1241  1  0.49368000  0.00045300  0.56921100  1
  N  1251  1  0.94332400  0.61108600  0.12035400  1
  N  1261  1  0.94332300  0.57010300  0.12035900  1
  N  1271  1  0.94329300  0.57009600  0.38663200  1
  N  1281  1  0.94330000  0.61108100  0.42762100  1
  N  1291  1  0.94332000  0.87737200  0.42763300  1
  N  1301  1  0.94332400  0.87736600  0.38664400  1
  N  1311  1  0.44330700  0.42793500  0.83605000  1
  N  1321  1  0.44331700  0.46892100  0.83604800  1
  N  1331  1  0.44333600  0.46893500  0.56977500  1
  N  1341  1  0.44333900  0.42794700  0.52879100  1
  N  1351  1  0.44329400  0.16167100  0.52878800  1
  N  1361  1  0.44329900  0.16166800  0.56977300  1
  N  1371  1  0.00359100  0.46894000  0.83605900  1
  N  1381  1  0.00359100  0.42795100  0.83605200  1
  N  1391  1  0.00360300  0.16167400  0.56978100  1
  N  1401  1  0.00360100  0.16166900  0.52879100  1
  N  1411  1  0.00357400  0.42795000  0.52878800  1
  N  1421  1  0.00358400  0.46893400  0.56977500  1
  N  1431  1  0.50360200  0.57011000  0.12036600  1
  N  1441  1  0.50359900  0.61109300  0.12035900  1
  N  1451  1  0.50358700  0.87737000  0.38663600  1
  N  1461  1  0.50359200  0.87736300  0.42761900  1
  N  1471  1  0.50360400  0.61109300  0.42762100  1
  N  1481  1  0.50360200  0.57010700  0.38663500  1
  O  8  1  0.85344500  0.66532200  0.02136200  1
  O  15  1  0.92994200  0.69076700  0.16749200  1
  O  17  1  0.83649700  0.68924700  0.09965700  1
  O  18  1  0.90582500  0.64323000  0.08862800  1
  O  30  1  0.85345700  0.41686200  0.33239600  1
  O  37  1  0.92991000  0.53755500  0.30695400  1
  O  39  1  0.83645000  0.47124300  0.30848900  1
  O  40  1  0.90578600  0.50623700  0.35450500  1
  O  52  1  0.85346200  0.97637400  0.58085600  1
  O  59  1  0.92993500  0.83023900  0.46016700  1
  O  61  1  0.83646800  0.89807700  0.52648500  1
  O  62  1  0.90580800  0.90910400  0.49150000  1
  O  74  1  0.35343500  0.37372500  0.93505800  1
  O  81  1  0.42993300  0.34827300  0.78892600  1
  O  83  1  0.33646200  0.34979700  0.85676300  1
  O  84  1  0.40578300  0.39580500  0.86779000  1
  O  96  1  0.35344200  0.62216600  0.62400700  1
  O  103  1  0.42995000  0.50148500  0.64945700  1
  O  105  1  0.33649900  0.56779200  0.64792800  1
  O  106  1  0.40583200  0.53280200  0.60191200  1
  O  118  1  0.35346700  0.06267300  0.37555400  1
  O  125  1  0.42990900  0.20881000  0.49624800  1
  O  127  1  0.33646400  0.14096100  0.42993300  1
  O  128  1  0.40579800  0.12993900  0.46492700  1
  O  140  1  0.09344600  0.62216100  0.93506400  1
  O  147  1  0.01697200  0.50147600  0.78892900  1
  O  149  1  0.11044100  0.56779000  0.85676700  1
  O  150  1  0.04110000  0.53281000  0.86779200  1
  O  162  1  0.09345300  0.06266100  0.62398600  1
  O  169  1  0.01698400  0.20880300  0.64944600  1
  O  171  1  0.11043600  0.14095500  0.64791300  1
  O  172  1  0.04111200  0.12993400  0.60191000  1
  O  184  1  0.09345100  0.37372500  0.37556400  1
  O  191  1  0.01694500  0.34826600  0.49623900  1
  O  193  1  0.11039900  0.34980100  0.42993400  1
  O  194  1  0.04106800  0.39581000  0.46492100  1
  O  206  1  0.59341700  0.41687500  0.02135500  1
  O  213  1  0.51699000  0.53756200  0.16750000  1
  O  215  1  0.61043400  0.47125400  0.09964100  1
  O  216  1  0.54109600  0.50625000  0.08863000  1
  O  228  1  0.59343400  0.97637200  0.33241800  1
  O  235  1  0.51695800  0.83023900  0.30696800  1
  O  237  1  0.61042700  0.89807600  0.30849300  1
  O  238  1  0.54109100  0.90910100  0.35449800  1
  O  250  1  0.59346100  0.66530200  0.58084300  1
  O  257  1  0.51698200  0.69075800  0.46016200  1
  O  259  1  0.61044200  0.68922500  0.52647300  1
  O  260  1  0.54112000  0.64322300  0.49149200  1
  O  272  1  0.09343300  0.37371800  0.93505600  1
  O  279  1  0.01698400  0.34827200  0.78891100  1
  O  281  1  0.11041400  0.34979800  0.85676600  1
  O  282  1  0.04108800  0.39581700  0.86778000  1
  O  294  1  0.09345300  0.62216200  0.62401500  1
  O  301  1  0.01696200  0.50147500  0.64945200  1
  O  303  1  0.11043100  0.56778100  0.64792500  1
  O  304  1  0.04110000  0.53279400  0.60190400  1
  O  316  1  0.09343800  0.06266500  0.37556100  1
  O  323  1  0.01696400  0.20879700  0.49625500  1
  O  325  1  0.11043600  0.14096200  0.42993600  1
  O  326  1  0.04111000  0.12993500  0.46491800  1
  O  338  1  0.59345600  0.66530700  0.02135200  1
  O  345  1  0.51695800  0.69075700  0.16748200  1
  O  347  1  0.61042400  0.68923800  0.09964800  1
  O  348  1  0.54111100  0.64322900  0.08861900  1
  O  360  1  0.59343600  0.41686800  0.33240500  1
  O  367  1  0.51698000  0.53756100  0.30694900  1
  O  369  1  0.61042200  0.47124100  0.30848900  1
  O  370  1  0.54109300  0.50624800  0.35450400  1
  O  382  1  0.59343900  0.97635700  0.58085200  1
  O  389  1  0.51698200  0.83022500  0.46015800  1
  O  391  1  0.61042700  0.89806800  0.52647100  1
  O  392  1  0.54109300  0.90909600  0.49148100  1
  O  404  1  0.85345400  0.41688700  0.02135200  1
  O  411  1  0.92993600  0.53756400  0.16749200  1
  O  413  1  0.83645400  0.47126200  0.09964800  1
  O  414  1  0.90580400  0.50624400  0.08863000  1
  O  426  1  0.85345300  0.97637200  0.33243400  1
  O  433  1  0.92994000  0.83023600  0.30697300  1
  O  435  1  0.83647700  0.89807800  0.30850800  1
  O  436  1  0.90581000  0.90910100  0.35450800  1
  O  448  1  0.85346900  0.66531400  0.58085600  1
  O  455  1  0.92994100  0.69076500  0.46016400  1
  O  457  1  0.83648600  0.68923000  0.52648100  1
  O  458  1  0.90581000  0.64321800  0.49148200  1
  O  470  1  0.35347200  0.62214800  0.93504300  1
  O  477  1  0.42995300  0.50147000  0.78891000  1
  O  479  1  0.33648400  0.56776600  0.85675300  1
  O  480  1  0.40582200  0.53277800  0.86777500  1
  O  492  1  0.35347700  0.06266000  0.62399300  1
  O  499  1  0.42993300  0.20879600  0.64943700  1
  O  501  1  0.33646900  0.14095400  0.64791300  1
  O  502  1  0.40579800  0.12993200  0.60191000  1
  O  514  1  0.35343700  0.37374600  0.37558500  1
  O  521  1  0.42995000  0.34827300  0.49624700  1
  O  523  1  0.33647600  0.34981700  0.42995300  1
  O  524  1  0.40581500  0.39581500  0.46492600  1
  O  547  1  0.97187200  0.78487100  0.17331500  1
  O  548  1  0.97188400  0.82441700  0.21287300  1
  O  567  1  0.97183900  0.44927300  0.21286000  1
  O  568  1  0.97184700  0.44927600  0.17331000  1
  O  587  1  0.97184900  0.82442200  0.54846100  1
  O  588  1  0.97186100  0.78486600  0.54845300  1
  O  607  1  0.47189000  0.25417300  0.78309500  1
  O  608  1  0.47189300  0.21462400  0.74354200  1
  O  627  1  0.47185800  0.58977300  0.74356100  1
  O  628  1  0.47187100  0.58976300  0.78310700  1
  O  647  1  0.47186800  0.21462100  0.40797200  1
  O  648  1  0.47188000  0.25417400  0.40797400  1
  O  667  1  0.97505300  0.58976800  0.78310900  1
  O  668  1  0.97504100  0.58976200  0.74355400  1
  O  687  1  0.97502300  0.21462800  0.74354300  1
  O  688  1  0.97502500  0.25418100  0.78309600  1
  O  707  1  0.97503500  0.25416200  0.40795200  1
  O  708  1  0.97502600  0.21461600  0.40796300  1
  O  727  1  0.47505000  0.44928000  0.17330600  1
  O  728  1  0.47504500  0.44928000  0.21285700  1
  O  747  1  0.47501800  0.82441600  0.21286200  1
  O  748  1  0.47500300  0.78486100  0.17331400  1
  O  767  1  0.47501500  0.78485600  0.54843000  1
  O  768  1  0.47502000  0.82440700  0.54842900  1
  O  787  1  0.69010400  0.72914900  0.05302500  1
  O  788  1  0.75679100  0.72916100  0.05304200  1
  O  807  1  0.69009700  0.38474100  0.26851400  1
  O  808  1  0.75678400  0.38474000  0.26851300  1
  O  827  1  0.69009700  0.94464100  0.61299400  1
  O  828  1  0.75678500  0.94463400  0.61299200  1
  O  847  1  0.19009600  0.30985100  0.90333100  1
  O  848  1  0.25678400  0.30985400  0.90333400  1
  O  867  1  0.19010900  0.65431800  0.68785700  1
  O  868  1  0.25679600  0.65431400  0.68786300  1
  O  887  1  0.19010400  0.09442500  0.34343100  1
  O  888  1  0.25679100  0.09442500  0.34342800  1
  O  907  1  0.25681900  0.65429700  0.90334000  1
  O  908  1  0.19013100  0.65429900  0.90333500  1
  O  927  1  0.25679600  0.09437100  0.68784800  1
  O  928  1  0.19010900  0.09437000  0.68784700  1
  O  947  1  0.25680100  0.30991200  0.34340600  1
  O  948  1  0.19011400  0.30989900  0.34340600  1
  O  967  1  0.75678800  0.38475500  0.05310500  1
  O  968  1  0.69009900  0.38475100  0.05310400  1
  O  987  1  0.75680800  0.94468700  0.26858500  1
  O  988  1  0.69012200  0.94467200  0.26857100  1
  O  1007  1  0.75680000  0.72917000  0.61299600  1
  O  1008  1  0.69011200  0.72916600  0.61299400  1
  O  1027  1  0.95310600  0.69919200  0.99625700  1
  O  1028  1  0.99376600  0.68112700  0.96013000  1
  O  1047  1  0.95311500  0.35790000  0.29852200  1
  O  1048  1  0.99377100  0.33983700  0.31658900  1
  O  1067  1  0.95309100  0.00147200  0.63982900  1
  O  1068  1  0.99374700  0.03760100  0.65789200  1
  O  1087  1  0.45313200  0.33983600  0.96013500  1
  O  1088  1  0.49378300  0.35790400  0.99626600  1
  O  1107  1  0.45309300  0.68114100  0.65787200  1
  O  1108  1  0.49375600  0.69920400  0.63980900  1
  O  1127  1  0.45312700  0.03758500  0.31659100  1
  O  1128  1  0.49377400  0.00145200  0.29852600  1
  O  1147  1  0.99379100  0.33985600  0.96015900  1
  O  1148  1  0.95313700  0.35792400  0.99629100  1
  O  1167  1  0.99378600  0.68112900  0.65788700  1
  O  1168  1  0.95313300  0.69919300  0.63982000  1
  O  1187  1  0.99380400  0.03756700  0.31659000  1
  O  1188  1  0.95314900  0.00143700  0.29852700  1
  O  1207  1  0.49376100  0.69919600  0.99627100  1
  O  1208  1  0.45311000  0.68112600  0.96013900  1
  O  1227  1  0.49381800  0.35789800  0.29855000  1
  O  1228  1  0.45316200  0.33983600  0.31661600  1
  O  1247  1  0.49378100  0.00144900  0.63981900  1
  O  1248  1  0.45313500  0.03758400  0.65788700  1
  O  1267  1  0.84625400  0.59401300  0.16662900  1
  O  1268  1  0.84625200  0.63345300  0.16662200  1
  O  1287  1  0.84625200  0.63346400  0.40371300  1
  O  1288  1  0.84624200  0.59402100  0.36427000  1
  O  1307  1  0.84624400  0.83110700  0.36428600  1
  O  1308  1  0.84623300  0.83111800  0.40373400  1
  O  1327  1  0.34626700  0.44501000  0.78975900  1
  O  1328  1  0.34625300  0.40557200  0.78976600  1
  O  1347  1  0.34627700  0.40558300  0.55270500  1
  O  1348  1  0.34627200  0.44502900  0.59214200  1
  O  1367  1  0.34623100  0.20793900  0.59214300  1
  O  1368  1  0.34623100  0.20794700  0.55270400  1
  O  1387  1  0.10067000  0.40559600  0.78979300  1
  O  1388  1  0.10068200  0.44504700  0.78980900  1
  O  1407  1  0.10067200  0.20793700  0.55269100  1
  O  1408  1  0.10067500  0.20794300  0.59213700  1
  O  1427  1  0.10063500  0.44500800  0.59213700  1
  O  1428  1  0.10063000  0.40557000  0.55268900  1
  O  1447  1  0.60065300  0.63346900  0.16664400  1
  O  1448  1  0.60065300  0.59402900  0.16665200  1
  O  1467  1  0.60066300  0.83109500  0.40370400  1
  O  1468  1  0.60066800  0.83111000  0.36426900  1
  O  1487  1  0.60065500  0.59401600  0.36426200  1
  O  1488  1  0.60066500  0.63345700  0.40370600  1
