# generated using pymatgen
data_H14C20N
_symmetry_space_group_name_H-M   'P 1'
_cell_length_a   44.90190000
_cell_length_b   44.90190000
_cell_length_c   44.90190000
_cell_angle_alpha   90.00000000
_cell_angle_beta   90.00000000
_cell_angle_gamma   90.00000000
_symmetry_Int_Tables_number   1
_chemical_formula_structural   H14C20N
_chemical_formula_sum   'H672 C960 N48'
_cell_volume   90530.34074327
_cell_formula_units_Z   48
loop_
 _symmetry_equiv_pos_site_id
 _symmetry_equiv_pos_as_xyz
  1  'x, y, z'
loop_
 _atom_site_type_symbol
 _atom_site_label
 _atom_site_symmetry_multiplicity
 _atom_site_fract_x
 _atom_site_fract_y
 _atom_site_fract_z
 _atom_site_occupancy
  H  7  1  0.07932100  0.36025200  0.35919800  1
  H  8  1  0.08067800  0.30657300  0.43368700  1
  H  15  1  0.15847800  0.46371300  0.33217700  1
  H  16  1  0.15860400  0.40460400  0.40309000  1
  H  19  1  0.17900800  0.35644100  0.39140400  1
  H  20  1  0.17805600  0.33777400  0.42294800  1
  H  21  1  0.10421100  0.38371000  0.29767800  1
  H  22  1  0.11235000  0.35672200  0.32086800  1
  H  29  1  0.42280800  0.64244700  0.85915200  1
  H  30  1  0.42087700  0.69704100  0.93297300  1
  H  37  1  0.34418800  0.53849100  0.83258100  1
  H  38  1  0.34386000  0.59785800  0.90327300  1
  H  41  1  0.32303700  0.64571200  0.89141400  1
  H  42  1  0.32387700  0.66463300  0.92280700  1
  H  43  1  0.39800100  0.61865900  0.79770700  1
  H  44  1  0.38971600  0.64569400  0.82079100  1
  H  51  1  0.92292900  0.85989800  0.14319000  1
  H  52  1  0.92104500  0.80569600  0.06914100  1
  H  59  1  0.84425800  0.96389200  0.16998800  1
  H  60  1  0.84395200  0.90466700  0.09917300  1
  H  63  1  0.82314700  0.85681200  0.11098200  1
  H  64  1  0.82390700  0.83801500  0.07952700  1
  H  65  1  0.89797700  0.88372400  0.20470400  1
  H  66  1  0.88970600  0.85674700  0.18151100  1
  H  73  1  0.57922900  0.14224300  0.64294600  1
  H  74  1  0.58055400  0.19566000  0.56828700  1
  H  81  1  0.65852200  0.03876400  0.67002700  1
  H  82  1  0.65856800  0.09782900  0.59907900  1
  H  85  1  0.67896800  0.14592600  0.61065700  1
  H  86  1  0.67798000  0.16439500  0.57901500  1
  H  87  1  0.60415900  0.11863300  0.70445100  1
  H  88  1  0.61222300  0.14567800  0.68127400  1
  H  95  1  0.35932100  0.07926700  0.36020100  1
  H  96  1  0.43374300  0.08064500  0.30643700  1
  H  103  1  0.33242200  0.15844200  0.46371900  1
  H  104  1  0.40327200  0.15854300  0.40453900  1
  H  107  1  0.39154000  0.17895300  0.35640100  1
  H  108  1  0.42306600  0.17800100  0.33770500  1
  H  109  1  0.29785100  0.10412000  0.38378100  1
  H  110  1  0.32099100  0.11229100  0.35676200  1
  H  117  1  0.85931700  0.42293100  0.64236700  1
  H  118  1  0.93317100  0.42099500  0.69690800  1
  H  125  1  0.83263700  0.34428600  0.53846700  1
  H  126  1  0.90335500  0.34390900  0.59780500  1
  H  129  1  0.89150500  0.32314400  0.64568900  1
  H  130  1  0.92291300  0.32397300  0.66458200  1
  H  131  1  0.79785900  0.39817700  0.61863500  1
  H  132  1  0.82094200  0.38986100  0.64565800  1
  H  139  1  0.14335500  0.92280400  0.85981800  1
  H  140  1  0.06934200  0.92092700  0.80555800  1
  H  147  1  0.17004200  0.84416000  0.96386900  1
  H  148  1  0.09925300  0.84390600  0.90461400  1
  H  151  1  0.11107100  0.82304000  0.85678900  1
  H  152  1  0.07963400  0.82381100  0.83796400  1
  H  153  1  0.20485500  0.89779900  0.88369900  1
  H  154  1  0.18166200  0.88956100  0.85671100  1
  H  161  1  0.64306800  0.57928200  0.14219200  1
  H  162  1  0.56834500  0.58058500  0.19552500  1
  H  169  1  0.67027200  0.65855700  0.03877000  1
  H  170  1  0.59926100  0.65862600  0.09776400  1
  H  173  1  0.61079100  0.67902400  0.14588400  1
  H  174  1  0.57912900  0.67803100  0.16432400  1
  H  175  1  0.70462200  0.60425200  0.11870600  1
  H  176  1  0.68139600  0.61228300  0.14572000  1
  H  183  1  0.36013400  0.35931400  0.07935100  1
  H  184  1  0.30628700  0.43368300  0.08089900  1
  H  191  1  0.46378000  0.33238700  0.15830900  1
  H  192  1  0.40458600  0.40322500  0.15855600  1
  H  195  1  0.35650400  0.39146900  0.17907400  1
  H  196  1  0.33778100  0.42298000  0.17817700  1
  H  197  1  0.38372100  0.29782000  0.10413500  1
  H  198  1  0.35671700  0.32095900  0.11236800  1
  H  205  1  0.64229700  0.85932200  0.42301700  1
  H  206  1  0.69675400  0.93323800  0.42125600  1
  H  213  1  0.53852900  0.83267000  0.34415200  1
  H  214  1  0.59785200  0.90340200  0.34392300  1
  H  217  1  0.64579200  0.89157800  0.32326700  1
  H  218  1  0.66465500  0.92300300  0.32415100  1
  H  219  1  0.61857200  0.79788800  0.39819200  1
  H  220  1  0.64561400  0.82097400  0.38994100  1
  H  227  1  0.86001400  0.14330900  0.92296000  1
  H  228  1  0.80598300  0.06913100  0.92127200  1
  H  235  1  0.96382700  0.17019800  0.84409100  1
  H  236  1  0.90468500  0.09930900  0.84390600  1
  H  239  1  0.85674900  0.11104700  0.82321200  1
  H  240  1  0.83801100  0.07955800  0.82402700  1
  H  241  1  0.88371500  0.20484600  0.89790300  1
  H  242  1  0.85675100  0.18160600  0.88972300  1
  H  249  1  0.14238700  0.64311700  0.57943400  1
  H  250  1  0.19593900  0.56854600  0.58091700  1
  H  257  1  0.03872100  0.67011600  0.65848200  1
  H  258  1  0.09783400  0.59920800  0.65862600  1
  H  261  1  0.14584400  0.61082000  0.67919300  1
  H  262  1  0.16437000  0.57920700  0.67824500  1
  H  263  1  0.11871800  0.70463300  0.60435000  1
  H  264  1  0.14575400  0.68145400  0.61244600  1
  H  271  1  0.11010400  0.32934700  0.89292800  1
  H  272  1  0.05620700  0.33146000  0.81860600  1
  H  279  1  0.21409400  0.40775500  0.92013000  1
  H  280  1  0.15488000  0.40851900  0.84930600  1
  H  283  1  0.10690700  0.42921800  0.86119200  1
  H  284  1  0.08816600  0.42853800  0.82968400  1
  H  285  1  0.13383300  0.35382700  0.95452900  1
  H  286  1  0.10685500  0.36223200  0.93142100  1
  H  293  1  0.39256900  0.67275100  0.39298800  1
  H  294  1  0.44738800  0.67011800  0.31934500  1
  H  301  1  0.28809700  0.59487000  0.41969200  1
  H  302  1  0.34754800  0.59395900  0.34907200  1
  H  305  1  0.39519200  0.57281300  0.36110000  1
  H  306  1  0.41422500  0.57340300  0.32977200  1
  H  307  1  0.36854300  0.64829300  0.45450200  1
  H  308  1  0.39555500  0.63976100  0.43148000  1
  H  315  1  0.60980700  0.17291100  0.10943700  1
  H  316  1  0.55556200  0.17040900  0.18344400  1
  H  323  1  0.71425000  0.09488800  0.08240600  1
  H  324  1  0.65499800  0.09403100  0.15319400  1
  H  327  1  0.60727900  0.07298500  0.14126500  1
  H  328  1  0.58848700  0.07352200  0.17272800  1
  H  329  1  0.63383900  0.14831500  0.04784100  1
  H  330  1  0.60688900  0.13981600  0.07098500  1
  H  337  1  0.89234200  0.82925800  0.60966600  1
  H  338  1  0.94586300  0.83120000  0.68424200  1
  H  345  1  0.78840300  0.90788300  0.58239400  1
  H  346  1  0.84751800  0.90848600  0.65329700  1
  H  349  1  0.89546500  0.92914500  0.64158300  1
  H  350  1  0.91397000  0.92837900  0.67321400  1
  H  351  1  0.86853000  0.85385400  0.54808500  1
  H  352  1  0.89555200  0.86214100  0.57121400  1
  H  359  1  0.82928100  0.60959500  0.89230900  1
  H  360  1  0.83139000  0.68388600  0.94624200  1
  H  367  1  0.90772700  0.58248700  0.78828400  1
  H  368  1  0.90845500  0.65327000  0.84754300  1
  H  371  1  0.92914500  0.64135100  0.89550700  1
  H  372  1  0.92845900  0.67285300  0.91425900  1
  H  373  1  0.85373800  0.54803900  0.86848600  1
  H  374  1  0.86216500  0.57111100  0.89548700  1
  H  381  1  0.17287700  0.10955700  0.60990200  1
  H  382  1  0.17022300  0.18323900  0.55514100  1
  H  389  1  0.09496900  0.08271500  0.71430800  1
  H  390  1  0.09399400  0.15336300  0.65488700  1
  H  393  1  0.07291200  0.14133700  0.60721000  1
  H  394  1  0.07348600  0.17268700  0.58821300  1
  H  395  1  0.14849300  0.04802200  0.63386800  1
  H  396  1  0.13992400  0.07103900  0.60686500  1
  H  403  1  0.67278600  0.39310800  0.39266000  1
  H  404  1  0.67030700  0.31913800  0.44696700  1
  H  411  1  0.59478500  0.42000000  0.28815500  1
  H  412  1  0.59399700  0.34923900  0.34743900  1
  H  415  1  0.57288600  0.36117200  0.39512600  1
  H  416  1  0.57344100  0.32973000  0.41395100  1
  H  417  1  0.64811200  0.45468200  0.36857200  1
  H  418  1  0.63965400  0.43153400  0.39552900  1
  H  425  1  0.32932200  0.89285900  0.11006900  1
  H  426  1  0.33127100  0.81825200  0.05658300  1
  H  433  1  0.40791100  0.92022100  0.21397500  1
  H  434  1  0.40855000  0.84928000  0.15490300  1
  H  437  1  0.42921800  0.86095800  0.10695000  1
  H  438  1  0.42845600  0.82932100  0.08845600  1
  H  439  1  0.35394200  0.95448200  0.13378800  1
  H  440  1  0.36220900  0.93131800  0.10679000  1
  H  447  1  0.10960600  0.61001800  0.17301400  1
  H  448  1  0.18382200  0.55598000  0.17071600  1
  H  455  1  0.08245000  0.71415900  0.09478500  1
  H  456  1  0.15322400  0.65488900  0.09390400  1
  H  459  1  0.14127800  0.60698500  0.07310700  1
  H  460  1  0.17276200  0.58820200  0.07373400  1
  H  461  1  0.04802000  0.63383900  0.14863900  1
  H  462  1  0.07108900  0.60685800  0.14014300  1
  H  469  1  0.60954600  0.89242000  0.82941900  1
  H  470  1  0.68330500  0.94707900  0.83187700  1
  H  477  1  0.58275000  0.78813500  0.90754400  1
  H  478  1  0.65340800  0.84754500  0.90836600  1
  H  481  1  0.64141100  0.89528200  0.92933900  1
  H  482  1  0.67277900  0.91424800  0.92870400  1
  H  483  1  0.54803900  0.86845700  0.85388500  1
  H  484  1  0.57106000  0.89547800  0.86238400  1
  H  491  1  0.89309700  0.10989100  0.32944900  1
  H  492  1  0.81898300  0.05579000  0.33176300  1
  H  499  1  0.92017400  0.21418500  0.40765100  1
  H  500  1  0.84933800  0.15498900  0.40839400  1
  H  503  1  0.86120600  0.10720000  0.42934000  1
  H  504  1  0.82971700  0.08845200  0.42875000  1
  H  505  1  0.95470700  0.13383300  0.35415000  1
  H  506  1  0.93152600  0.10688800  0.36256100  1
  H  513  1  0.39286900  0.39248400  0.67291500  1
  H  514  1  0.31840300  0.44616800  0.67080800  1
  H  521  1  0.42004400  0.28835700  0.59453300  1
  H  522  1  0.34918100  0.34752000  0.59384300  1
  H  525  1  0.36092700  0.39537300  0.57301100  1
  H  526  1  0.32933500  0.41394400  0.57373700  1
  H  527  1  0.45445700  0.36861400  0.64832400  1
  H  528  1  0.43132700  0.39562400  0.64000400  1
  H  535  1  0.26122300  0.59287200  0.36422700  1
  H  542  1  0.26036500  0.45746400  0.36776800  1
  H  543  1  0.22095500  0.42236700  0.36843400  1
  H  544  1  0.15984100  0.49025500  0.38862700  1
  H  545  1  0.32992100  0.53209700  0.38258700  1
  H  548  1  0.20371500  0.54406100  0.41061300  1
  H  549  1  0.17366800  0.54117900  0.38534000  1
  H  550  1  0.21046600  0.57855900  0.36814200  1
  H  551  1  0.20748400  0.54885200  0.34248000  1
  H  552  1  0.29518800  0.49238400  0.38321300  1
  H  559  1  0.24097200  0.40965000  0.86444600  1
  H  566  1  0.24213400  0.54504800  0.86845300  1
  H  567  1  0.28162300  0.58004200  0.86904300  1
  H  568  1  0.34266000  0.51196900  0.88877700  1
  H  569  1  0.17246500  0.47051600  0.88321600  1
  H  572  1  0.29874900  0.45821000  0.91080500  1
  H  573  1  0.32871600  0.46109100  0.88543800  1
  H  574  1  0.29177400  0.42383900  0.86827200  1
  H  575  1  0.29473800  0.45360400  0.84267400  1
  H  576  1  0.20729100  0.51014900  0.88387900  1
  H  583  1  0.74120400  0.09293900  0.13798800  1
  H  590  1  0.74224200  0.95753600  0.13417500  1
  H  591  1  0.78169000  0.92251300  0.13355700  1
  H  592  1  0.84276100  0.99049400  0.11371000  1
  H  593  1  0.67262600  0.03210800  0.11944600  1
  H  596  1  0.79889400  0.04426700  0.09165900  1
  H  597  1  0.82888000  0.04139000  0.11700500  1
  H  598  1  0.79198600  0.07870600  0.13414300  1
  H  599  1  0.79495000  0.04898000  0.15978500  1
  H  600  1  0.70740400  0.99244900  0.11879500  1
  H  607  1  0.76146400  0.90971800  0.63806600  1
  H  614  1  0.76042800  0.04511900  0.63427600  1
  H  615  1  0.72096400  0.08016500  0.63365600  1
  H  616  1  0.65990700  0.01217300  0.61365300  1
  H  617  1  0.83005800  0.97053500  0.61938300  1
  H  620  1  0.70381200  0.95838900  0.59166700  1
  H  621  1  0.67380400  0.96127300  0.61698700  1
  H  622  1  0.71067800  0.92397100  0.63418600  1
  H  623  1  0.70770700  0.95371800  0.65980200  1
  H  624  1  0.79526000  0.01021000  0.61873500  1
  H  631  1  0.36441400  0.26140300  0.59270500  1
  H  638  1  0.36813600  0.26035800  0.45730300  1
  H  639  1  0.36875000  0.22089700  0.42226000  1
  H  640  1  0.38880500  0.15984600  0.49024600  1
  H  641  1  0.38300600  0.33000400  0.53186600  1
  H  644  1  0.41081300  0.20376800  0.54401700  1
  H  645  1  0.38550700  0.17374800  0.54114800  1
  H  646  1  0.36831200  0.21061700  0.57845600  1
  H  647  1  0.34267800  0.20762900  0.54872500  1
  H  648  1  0.38365600  0.29520100  0.49219700  1
  H  655  1  0.86456400  0.24115000  0.40954100  1
  H  662  1  0.86836600  0.24221700  0.54494300  1
  H  663  1  0.86898900  0.28168100  0.57996600  1
  H  664  1  0.88888800  0.34273400  0.51195800  1
  H  665  1  0.88310900  0.17258500  0.47038500  1
  H  668  1  0.91090900  0.29883300  0.45819600  1
  H  669  1  0.88557400  0.32883000  0.46106500  1
  H  670  1  0.86841700  0.29193400  0.42376300  1
  H  671  1  0.84278100  0.29491400  0.45349000  1
  H  672  1  0.88375900  0.20737100  0.51003800  1
  H  679  1  0.13810500  0.74102800  0.09283000  1
  H  686  1  0.13408300  0.74216000  0.95743100  1
  H  687  1  0.13349900  0.78163400  0.92243700  1
  H  688  1  0.11381800  0.84268700  0.99048300  1
  H  689  1  0.11933500  0.67250800  0.03197800  1
  H  692  1  0.09176000  0.79881000  0.04425400  1
  H  693  1  0.11713900  0.82876600  0.04136300  1
  H  694  1  0.13428600  0.79182800  0.07862900  1
  H  695  1  0.15988900  0.79477400  0.04886700  1
  H  696  1  0.11867000  0.70732600  0.99233800  1
  H  703  1  0.63825300  0.76127700  0.90954900  1
  H  710  1  0.63464500  0.76043000  0.04495600  1
  H  711  1  0.63397300  0.72102200  0.08005800  1
  H  712  1  0.61382700  0.65989800  0.01216500  1
  H  713  1  0.61980400  0.82997500  0.97029900  1
  H  716  1  0.59186800  0.70375400  0.95834200  1
  H  717  1  0.61715400  0.67371900  0.96124100  1
  H  718  1  0.63435600  0.71052200  0.92386900  1
  H  719  1  0.66000000  0.70755700  0.95359100  1
  H  720  1  0.61918000  0.79524600  0.01001900  1
  H  727  1  0.59287600  0.36450100  0.26117600  1
  H  734  1  0.45747000  0.36795700  0.26025200  1
  H  735  1  0.42238900  0.36861000  0.22082900  1
  H  736  1  0.49029700  0.38881200  0.15973700  1
  H  737  1  0.53206200  0.38279400  0.32983200  1
  H  740  1  0.54407000  0.41083300  0.20363000  1
  H  741  1  0.54121900  0.38554900  0.17358900  1
  H  742  1  0.57859200  0.36839200  0.21041200  1
  H  743  1  0.54891000  0.34270700  0.20741800  1
  H  744  1  0.49237100  0.38340200  0.29509000  1
  H  751  1  0.40971500  0.86447500  0.24091400  1
  H  758  1  0.54511500  0.86854200  0.24211000  1
  H  759  1  0.58009700  0.86912700  0.28161100  1
  H  760  1  0.51200700  0.88887900  0.34262200  1
  H  761  1  0.47058800  0.88331800  0.17241100  1
  H  764  1  0.45825000  0.91088500  0.29869100  1
  H  765  1  0.46113400  0.88552800  0.32866700  1
  H  766  1  0.42389900  0.86833400  0.29172200  1
  H  767  1  0.45367500  0.84275200  0.29469600  1
  H  768  1  0.51021600  0.88401300  0.20725900  1
  H  775  1  0.09293600  0.13826300  0.74115500  1
  H  782  1  0.95752900  0.13436900  0.74213100  1
  H  783  1  0.92249000  0.13373600  0.78156500  1
  H  784  1  0.99045400  0.11389400  0.84265900  1
  H  785  1  0.03214300  0.11965500  0.67253700  1
  H  788  1  0.04425900  0.09188300  0.79880700  1
  H  789  1  0.04135100  0.11721800  0.82879900  1
  H  790  1  0.07867200  0.13439500  0.79193200  1
  H  791  1  0.04892500  0.16001300  0.79488300  1
  H  792  1  0.99246300  0.11898700  0.70730600  1
  H  799  1  0.90965300  0.63809700  0.76140600  1
  H  806  1  0.04505200  0.63436200  0.76039900  1
  H  807  1  0.08010700  0.63373900  0.72094900  1
  H  808  1  0.01212900  0.61375300  0.65986700  1
  H  809  1  0.97046400  0.61948600  0.83000400  1
  H  812  1  0.95834200  0.59174700  0.70375400  1
  H  813  1  0.96122400  0.61707800  0.67375500  1
  H  814  1  0.92390900  0.63424900  0.71062600  1
  H  815  1  0.95364300  0.65987800  0.70766400  1
  H  816  1  0.01014300  0.61886600  0.79522600  1
  H  823  1  0.77512200  0.07804900  0.86036200  1
  H  830  1  0.77382600  0.94338700  0.86864200  1
  H  831  1  0.73405700  0.90874700  0.87082400  1
  H  832  1  0.67445600  0.97733200  0.89286600  1
  H  833  1  0.84375200  0.01835100  0.88193500  1
  H  836  1  0.71947700  0.03194900  0.91091200  1
  H  837  1  0.68835300  0.02795900  0.88714000  1
  H  838  1  0.72449200  0.06417100  0.86637000  1
  H  839  1  0.72039200  0.03314700  0.84248500  1
  H  840  1  0.80909900  0.97861700  0.88420000  1
  H  847  1  0.72748300  0.92452400  0.36047200  1
  H  854  1  0.72861900  0.05919400  0.36876600  1
  H  855  1  0.76834100  0.09387300  0.37086200  1
  H  856  1  0.82805100  0.02539700  0.39285800  1
  H  857  1  0.65877300  0.98416200  0.38205900  1
  H  860  1  0.78311100  0.97074400  0.41104000  1
  H  861  1  0.81421700  0.97474600  0.38724800  1
  H  862  1  0.77810500  0.93846500  0.36654300  1
  H  863  1  0.78216200  0.96946400  0.34261600  1
  H  864  1  0.69340400  0.02393300  0.38435300  1
  H  871  1  0.22701000  0.57776100  0.64174300  1
  H  878  1  0.22823700  0.44305200  0.63374600  1
  H  879  1  0.26792800  0.40831000  0.63166500  1
  H  880  1  0.32776500  0.47678100  0.60980000  1
  H  881  1  0.15837400  0.51795100  0.62029600  1
  H  884  1  0.28289600  0.53141100  0.59144900  1
  H  885  1  0.31390000  0.52747400  0.61538500  1
  H  886  1  0.27768100  0.56382400  0.63580600  1
  H  887  1  0.28168100  0.53291700  0.65985800  1
  H  888  1  0.19307700  0.47823300  0.61808200  1
  H  895  1  0.27524000  0.42455400  0.14174000  1
  H  902  1  0.27397900  0.55924800  0.13370200  1
  H  903  1  0.23425700  0.59395400  0.13159000  1
  H  904  1  0.17450400  0.52543200  0.10965700  1
  H  905  1  0.34386900  0.48434000  0.12030500  1
  H  908  1  0.21944200  0.47082200  0.09137800  1
  H  909  1  0.18839300  0.47476300  0.11525500  1
  H  910  1  0.22458700  0.43846000  0.13578700  1
  H  911  1  0.22054800  0.46940100  0.15979200  1
  H  912  1  0.30918500  0.52406200  0.11808300  1
  H  919  1  0.86009000  0.77500000  0.07790400  1
  H  926  1  0.86843200  0.77402200  0.94323800  1
  H  927  1  0.87061700  0.73435800  0.90846200  1
  H  928  1  0.89237800  0.67448100  0.97693100  1
  H  929  1  0.88183100  0.84371600  0.01836500  1
  H  932  1  0.91046000  0.71928700  0.03169600  1
  H  933  1  0.88657900  0.68826200  0.02760000  1
  H  934  1  0.86591800  0.72438100  0.06389900  1
  H  935  1  0.84203700  0.72043900  0.03285000  1
  H  936  1  0.88402900  0.80915000  0.97855700  1
  H  943  1  0.36009400  0.72765000  0.92449000  1
  H  950  1  0.36838100  0.72823800  0.05916800  1
  H  951  1  0.37052100  0.76778400  0.09407400  1
  H  952  1  0.39229500  0.82790400  0.02582100  1
  H  953  1  0.38177000  0.65874900  0.98387100  1
  H  956  1  0.41047000  0.78327800  0.97093800  1
  H  957  1  0.38656000  0.81427400  0.97509200  1
  H  958  1  0.36599300  0.77824000  0.93864800  1
  H  959  1  0.34205200  0.78208900  0.96966000  1
  H  960  1  0.38400300  0.69322800  0.02376800  1
  H  967  1  0.64137800  0.22684500  0.57772800  1
  H  974  1  0.63336200  0.22862300  0.44303000  1
  H  975  1  0.63132500  0.26848700  0.40851700  1
  H  976  1  0.60923200  0.32791200  0.47721100  1
  H  977  1  0.62001800  0.15840500  0.51766400  1
  H  980  1  0.59088500  0.28273200  0.53161000  1
  H  981  1  0.61470200  0.31384600  0.52782400  1
  H  982  1  0.63526400  0.27754700  0.56400900  1
  H  983  1  0.65930100  0.28175800  0.53311500  1
  H  984  1  0.61774000  0.19325700  0.47807500  1
  H  991  1  0.14147000  0.27536000  0.42440900  1
  H  998  1  0.13349000  0.27378100  0.55909400  1
  H  999  1  0.13137900  0.23395400  0.59366700  1
  H  1000  1  0.10916500  0.17448000  0.52502600  1
  H  1001  1  0.12019900  0.34390300  0.48435100  1
  H  1004  1  0.09092500  0.21963000  0.47056500  1
  H  1005  1  0.11469100  0.18848300  0.47440300  1
  H  1006  1  0.13533600  0.22469900  0.43818600  1
  H  1007  1  0.15934400  0.22049900  0.46910200  1
  H  1008  1  0.11790900  0.30913100  0.52400000  1
  H  1015  1  0.07792900  0.86005400  0.77484900  1
  H  1022  1  0.94325300  0.86826800  0.77428100  1
  H  1023  1  0.90834600  0.87041700  0.73473700  1
  H  1024  1  0.97659300  0.89223100  0.67462300  1
  H  1025  1  0.01856500  0.88169000  0.84375000  1
  H  1028  1  0.03148000  0.91038400  0.71924700  1
  H  1029  1  0.02732000  0.88648300  0.68824600  1
  H  1030  1  0.06376700  0.86590000  0.72426700  1
  H  1031  1  0.03274800  0.84196800  0.72042100  1
  H  1032  1  0.97865900  0.88387900  0.80929500  1
  H  1039  1  0.92451500  0.36012900  0.72750100  1
  H  1046  1  0.05918500  0.36854800  0.72849600  1
  H  1047  1  0.09395900  0.37072300  0.76816100  1
  H  1048  1  0.02548600  0.39244200  0.82804700  1
  H  1049  1  0.98407100  0.38191200  0.65878000  1
  H  1052  1  0.97072400  0.41054400  0.78323800  1
  H  1053  1  0.97481500  0.38665400  0.81425900  1
  H  1054  1  0.93851600  0.36601100  0.77812700  1
  H  1055  1  0.96956200  0.34212300  0.78207100  1
  H  1056  1  0.02387000  0.38415700  0.69337500  1
  H  1063  1  0.57788200  0.64144500  0.22674100  1
  H  1070  1  0.44318800  0.63336500  0.22869600  1
  H  1071  1  0.40871500  0.63124900  0.26860800  1
  H  1072  1  0.47752500  0.60915600  0.32793200  1
  H  1073  1  0.51774200  0.62005100  0.15837700  1
  H  1076  1  0.53188400  0.59092100  0.28266900  1
  H  1077  1  0.52811300  0.61472600  0.31379500  1
  H  1078  1  0.56422700  0.63534000  0.27746000  1
  H  1079  1  0.53331300  0.65933900  0.28171400  1
  H  1080  1  0.47819800  0.61775700  0.19327800  1
  H  1087  1  0.42456300  0.14140200  0.27525300  1
  H  1094  1  0.55925400  0.13348500  0.27385500  1
  H  1095  1  0.59386500  0.13145200  0.23407700  1
  H  1096  1  0.52534000  0.10923900  0.17449900  1
  H  1097  1  0.48442900  0.12016100  0.34387400  1
  H  1100  1  0.47084200  0.09088500  0.21956800  1
  H  1101  1  0.47469200  0.11466300  0.18843300  1
  H  1102  1  0.43840900  0.13525700  0.22460900  1
  H  1103  1  0.46930300  0.15930200  0.22045400  1
  H  1104  1  0.52412200  0.11788800  0.30915100  1
  H  1111  1  0.92510900  0.22699200  0.34793800  1
  H  1118  1  0.05840600  0.23188300  0.37604800  1
  H  1119  1  0.08960500  0.27089900  0.38967400  1
  H  1120  1  0.02586900  0.33377800  0.36220900  1
  H  1121  1  0.98418700  0.16590300  0.38671400  1
  H  1124  1  0.99331600  0.29233900  0.31490000  1
  H  1125  1  0.97886600  0.31763400  0.34126600  1
  H  1126  1  0.94548900  0.27393900  0.32522900  1
  H  1127  1  0.94817500  0.28134200  0.36381300  1
  H  1128  1  0.02367000  0.19899500  0.37966100  1
  H  1135  1  0.57762300  0.77514900  0.84807000  1
  H  1142  1  0.44403000  0.77097100  0.87474800  1
  H  1143  1  0.41243700  0.73222500  0.88832500  1
  H  1144  1  0.47630500  0.66878900  0.86247700  1
  H  1145  1  0.51862600  0.83645600  0.88655200  1
  H  1148  1  0.50952800  0.70940600  0.81520800  1
  H  1149  1  0.52373900  0.68457000  0.84212800  1
  H  1150  1  0.55715000  0.72815100  0.82545200  1
  H  1151  1  0.55448200  0.72101800  0.86408100  1
  H  1152  1  0.47907500  0.80347100  0.87945200  1
  H  1159  1  0.07744900  0.72714900  0.15430400  1
  H  1166  1  0.94399900  0.73141400  0.12689500  1
  H  1167  1  0.91255800  0.77024100  0.11330200  1
  H  1168  1  0.97618300  0.83349900  0.14016100  1
  H  1169  1  0.01844300  0.66572900  0.11597400  1
  H  1172  1  0.00918700  0.79240000  0.18742100  1
  H  1173  1  0.02339800  0.81762200  0.16085300  1
  H  1174  1  0.05700400  0.77409600  0.17693400  1
  H  1175  1  0.05412400  0.78135800  0.13833900  1
  H  1176  1  0.97887100  0.69868900  0.12308900  1
  H  1183  1  0.42504000  0.27540500  0.65417700  1
  H  1190  1  0.55821000  0.27059600  0.62553000  1
  H  1191  1  0.58938700  0.23156700  0.61196200  1
  H  1192  1  0.52590600  0.16873300  0.64011300  1
  H  1193  1  0.48405700  0.33668500  0.61563700  1
  H  1196  1  0.49337700  0.21043200  0.68734200  1
  H  1197  1  0.47898600  0.18488700  0.66117900  1
  H  1198  1  0.44541100  0.22848700  0.67680800  1
  H  1199  1  0.44829000  0.22103100  0.63824600  1
  H  1200  1  0.52358300  0.30363300  0.62262600  1
  H  1207  1  0.34825200  0.92498500  0.22700400  1
  H  1214  1  0.37609500  0.05833100  0.23180100  1
  H  1215  1  0.38970000  0.08955500  0.27079900  1
  H  1216  1  0.36234500  0.02580300  0.33371200  1
  H  1217  1  0.38652500  0.98418300  0.16573200  1
  H  1220  1  0.31505300  0.99310600  0.29225900  1
  H  1221  1  0.34144000  0.97878600  0.31761000  1
  H  1222  1  0.32562700  0.94525500  0.27399500  1
  H  1223  1  0.36420700  0.94818900  0.28132400  1
  H  1224  1  0.37943100  0.02365700  0.19882600  1
  H  1231  1  0.84821500  0.57759600  0.77519200  1
  H  1238  1  0.87494000  0.44400500  0.77090000  1
  H  1239  1  0.88856700  0.41249700  0.73211300  1
  H  1240  1  0.86259100  0.47639400  0.66876200  1
  H  1241  1  0.88640100  0.51845900  0.83657200  1
  H  1244  1  0.81527200  0.50955500  0.70950600  1
  H  1245  1  0.84213100  0.52374800  0.68458500  1
  H  1246  1  0.82565700  0.55722100  0.72814500  1
  H  1247  1  0.86428300  0.55440600  0.72104500  1
  H  1248  1  0.87928700  0.47894100  0.80353600  1
  H  1255  1  0.15444800  0.07747700  0.72719100  1
  H  1262  1  0.12709500  0.94402200  0.73134000  1
  H  1263  1  0.11355200  0.91249500  0.77012900  1
  H  1264  1  0.14027600  0.97609600  0.83347200  1
  H  1265  1  0.11582200  0.01861200  0.66584400  1
  H  1268  1  0.18748900  0.00916100  0.79249400  1
  H  1269  1  0.16086000  0.02338900  0.81763700  1
  H  1270  1  0.17713300  0.05693900  0.77408900  1
  H  1271  1  0.13853600  0.05419700  0.78138300  1
  H  1272  1  0.12292500  0.97900700  0.69875400  1
  H  1279  1  0.65447700  0.42516200  0.27541800  1
  H  1286  1  0.62558100  0.55828600  0.27051400  1
  H  1287  1  0.61199400  0.58943800  0.23146900  1
  H  1288  1  0.64024600  0.52596800  0.16866800  1
  H  1289  1  0.61544600  0.48406400  0.33651800  1
  H  1292  1  0.68749200  0.49358000  0.21035600  1
  H  1293  1  0.66134800  0.47906400  0.18486300  1
  H  1294  1  0.67719400  0.44563800  0.22854200  1
  H  1295  1  0.63862900  0.44827700  0.22101600  1
  H  1296  1  0.62240100  0.52359700  0.30346600  1
  H  1303  1  0.22709000  0.34815900  0.92503800  1
  H  1310  1  0.23171600  0.37604800  0.05838100  1
  H  1311  1  0.27067200  0.38967100  0.08964800  1
  H  1312  1  0.33367200  0.36230500  0.02598400  1
  H  1313  1  0.16576300  0.38649800  0.98413800  1
  H  1316  1  0.29226800  0.31499500  0.99326500  1
  H  1317  1  0.31763000  0.34137700  0.97895300  1
  H  1318  1  0.27404800  0.32552500  0.94539100  1
  H  1319  1  0.28138400  0.36410700  0.94829100  1
  H  1320  1  0.19880200  0.37941800  0.02365600  1
  H  1327  1  0.77527600  0.84831100  0.57765000  1
  H  1334  1  0.77081300  0.87498900  0.44405400  1
  H  1335  1  0.73198200  0.88860100  0.41259200  1
  H  1336  1  0.66871900  0.86263300  0.47657900  1
  H  1337  1  0.83660300  0.88642500  0.51841200  1
  H  1340  1  0.70951700  0.81533000  0.50971500  1
  H  1341  1  0.68460500  0.84218900  0.52392000  1
  H  1342  1  0.72819800  0.82575900  0.55735700  1
  H  1343  1  0.72110300  0.86438600  0.55450800  1
  H  1344  1  0.80351100  0.87930100  0.47894100  1
  H  1351  1  0.72705100  0.15452300  0.07738000  1
  H  1358  1  0.73158100  0.12689100  0.94397700  1
  H  1359  1  0.77046800  0.11329500  0.91260200  1
  H  1360  1  0.83360800  0.14025500  0.97630300  1
  H  1361  1  0.66586900  0.11575600  0.01839200  1
  H  1364  1  0.79247600  0.18751800  0.00914000  1
  H  1365  1  0.81762600  0.16096000  0.02349100  1
  H  1366  1  0.77398400  0.17723100  0.05690600  1
  H  1367  1  0.78131400  0.13863500  0.05424400  1
  H  1368  1  0.69888300  0.12284500  0.97885800  1
  H  1375  1  0.27527800  0.65440800  0.42506400  1
  H  1382  1  0.27075000  0.62577700  0.55824100  1
  H  1383  1  0.23179800  0.61224100  0.58954300  1
  H  1384  1  0.16880000  0.64026900  0.52616900  1
  H  1385  1  0.33654200  0.61551700  0.48384600  1
  H  1388  1  0.21034100  0.68747100  0.49355600  1
  H  1389  1  0.18485000  0.66125900  0.47916200  1
  H  1390  1  0.22844000  0.67710000  0.44560200  1
  H  1391  1  0.22094600  0.63853600  0.44832400  1
  H  1392  1  0.30359300  0.62248300  0.52344700  1
  H  1399  1  0.97692700  0.17516400  0.90371600  1
  H  1406  1  0.98162800  0.30855000  0.87600500  1
  H  1407  1  0.02058600  0.33988100  0.86254000  1
  H  1408  1  0.08357200  0.27615100  0.88977900  1
  H  1409  1  0.91567300  0.23431500  0.86530300  1
  H  1412  1  0.04219100  0.24329900  0.93691700  1
  H  1413  1  0.06751200  0.22901900  0.91048000  1
  H  1414  1  0.02390700  0.19547000  0.92633600  1
  H  1415  1  0.03124900  0.19839800  0.88775900  1
  H  1416  1  0.94875600  0.27380300  0.87238600  1
  H  1423  1  0.52521100  0.82756100  0.40353900  1
  H  1430  1  0.52120500  0.69387000  0.37733800  1
  H  1431  1  0.48250900  0.66214700  0.36393800  1
  H  1432  1  0.41897500  0.72602700  0.38951100  1
  H  1433  1  0.58669400  0.76845500  0.36550500  1
  H  1436  1  0.45953900  0.75957300  0.43659100  1
  H  1437  1  0.43467400  0.77359500  0.40959500  1
  H  1438  1  0.47816400  0.80719500  0.42605300  1
  H  1439  1  0.47110400  0.80423900  0.38743100  1
  H  1440  1  0.55370400  0.72890800  0.37264100  1
  H  1447  1  0.47706600  0.32735800  0.09886300  1
  H  1454  1  0.48124700  0.19386000  0.12604300  1
  H  1455  1  0.52005800  0.16233000  0.13944700  1
  H  1456  1  0.58334000  0.22593200  0.11258700  1
  H  1457  1  0.41550800  0.26825800  0.13683600  1
  H  1460  1  0.54217900  0.25917400  0.06553200  1
  H  1461  1  0.56749200  0.27323100  0.09209600  1
  H  1462  1  0.52404400  0.30701600  0.07631300  1
  H  1463  1  0.53128400  0.30386700  0.11489200  1
  H  1464  1  0.44848200  0.22869200  0.12969700  1
  H  1471  1  0.02547000  0.67511800  0.59892100  1
  H  1478  1  0.02077500  0.80834800  0.62728300  1
  H  1479  1  0.98177700  0.83962300  0.64068500  1
  H  1480  1  0.91888900  0.77615600  0.61262200  1
  H  1481  1  0.08690200  0.73423100  0.63707500  1
  H  1484  1  0.96060200  0.74337100  0.56557000  1
  H  1485  1  0.93499500  0.72913800  0.59176100  1
  H  1486  1  0.97851000  0.69539100  0.57637800  1
  H  1487  1  0.97110100  0.69853100  0.61492900  1
  H  1488  1  0.05383900  0.77375300  0.63006200  1
  H  1495  1  0.67505300  0.59898100  0.02544100  1
  H  1502  1  0.80846600  0.62651600  0.02081000  1
  H  1503  1  0.83980600  0.63996100  0.98185700  1
  H  1504  1  0.77608200  0.61273700  0.91886000  1
  H  1505  1  0.73432200  0.63687700  0.08688200  1
  H  1508  1  0.74311300  0.56561900  0.96029300  1
  H  1509  1  0.72895300  0.59204600  0.93489300  1
  H  1510  1  0.69524600  0.57645200  0.97841400  1
  H  1511  1  0.69843100  0.61502200  0.97113900  1
  H  1512  1  0.77380400  0.62976800  0.05379100  1
  H  1519  1  0.32752900  0.09901700  0.47712200  1
  H  1526  1  0.19383200  0.12523000  0.48126200  1
  H  1527  1  0.16219200  0.13867500  0.52000000  1
  H  1528  1  0.22612400  0.11300600  0.58344500  1
  H  1529  1  0.26827600  0.13679500  0.41559500  1
  H  1532  1  0.25961000  0.06588200  0.54276300  1
  H  1533  1  0.27361800  0.09282700  0.56769300  1
  H  1534  1  0.30725800  0.07654500  0.52421300  1
  H  1535  1  0.30417800  0.11516400  0.53124700  1
  H  1536  1  0.22877000  0.12963500  0.44864000  1
  H  1543  1  0.82739200  0.40369300  0.52526500  1
  H  1550  1  0.69389400  0.37652900  0.52122000  1
  H  1551  1  0.66228300  0.36316900  0.48244900  1
  H  1552  1  0.72584000  0.38992800  0.41907800  1
  H  1553  1  0.76843900  0.36546100  0.58677900  1
  H  1556  1  0.75914100  0.43694300  0.46012700  1
  H  1557  1  0.77320900  0.41032800  0.43487400  1
  H  1558  1  0.80695600  0.42628000  0.47833300  1
  H  1559  1  0.80392700  0.38769800  0.47106900  1
  H  1560  1  0.72883300  0.37257600  0.55386000  1
  H  1567  1  0.17522500  0.90376500  0.97689300  1
  H  1574  1  0.30843400  0.87524300  0.98166100  1
  H  1575  1  0.33970000  0.86182300  0.02066600  1
  H  1576  1  0.27622200  0.88989000  0.08354000  1
  H  1577  1  0.23422400  0.86510300  0.91564900  1
  H  1580  1  0.24355100  0.93696000  0.04187800  1
  H  1581  1  0.22919900  0.91076000  0.06740800  1
  H  1582  1  0.19560700  0.92639700  0.02380900  1
  H  1583  1  0.19849800  0.88783900  0.03128400  1
  H  1584  1  0.27375200  0.87209200  0.94870500  1
  H  1591  1  0.09895500  0.47701300  0.32726700  1
  H  1598  1  0.12643700  0.48149600  0.19383700  1
  H  1599  1  0.13989400  0.52041000  0.16245300  1
  H  1600  1  0.11274400  0.58348700  0.22613100  1
  H  1601  1  0.13690400  0.41553400  0.26806900  1
  H  1604  1  0.06561400  0.54212400  0.25914000  1
  H  1605  1  0.09206000  0.56751500  0.27328400  1
  H  1606  1  0.07641000  0.52401500  0.30701100  1
  H  1607  1  0.11498300  0.53128900  0.30385800  1
  H  1608  1  0.12978800  0.44858200  0.22855400  1
  H  1615  1  0.59904300  0.02533200  0.67479100  1
  H  1622  1  0.62530500  0.02104100  0.80847500  1
  H  1623  1  0.63874100  0.98226100  0.84006600  1
  H  1624  1  0.61300000  0.91890000  0.77608200  1
  H  1625  1  0.63676300  0.08682100  0.73411500  1
  H  1628  1  0.56588400  0.95965300  0.74263800  1
  H  1629  1  0.59281000  0.93471000  0.72861400  1
  H  1630  1  0.57659000  0.97821400  0.69499700  1
  H  1631  1  0.61520700  0.97118100  0.69811000  1
  H  1632  1  0.62961000  0.05373100  0.77358800  1
  H  1639  1  0.90380500  0.97697600  0.17507300  1
  H  1646  1  0.87639700  0.98137600  0.30852600  1
  H  1647  1  0.86298500  0.02023500  0.34000300  1
  H  1648  1  0.88993700  0.08342500  0.27634900  1
  H  1649  1  0.86536800  0.91564600  0.23412600  1
  H  1652  1  0.93699700  0.04224800  0.24326100  1
  H  1653  1  0.91044000  0.06749000  0.22906800  1
  H  1654  1  0.92643200  0.02393400  0.19546500  1
  H  1655  1  0.88784800  0.03124100  0.19838600  1
  H  1656  1  0.87247500  0.94865600  0.27366500  1
  H  1663  1  0.40365500  0.52534900  0.82724100  1
  H  1670  1  0.37537600  0.52093300  0.69398600  1
  H  1671  1  0.36200200  0.48201500  0.66258800  1
  H  1672  1  0.38988500  0.41896000  0.72597100  1
  H  1673  1  0.36519800  0.58677600  0.76833900  1
  H  1676  1  0.43691200  0.46050100  0.75885400  1
  H  1677  1  0.41065700  0.43495700  0.77307800  1
  H  1678  1  0.42624900  0.47846000  0.80681600  1
  H  1679  1  0.38769400  0.47102600  0.80381400  1
  H  1680  1  0.37219600  0.55381100  0.72874600  1
  C  1  1  0.12093100  0.36292600  0.38250200  1
  C  2  1  0.09162500  0.35202300  0.37636900  1
  C  3  1  0.07859700  0.32865000  0.39273400  1
  C  4  1  0.09107700  0.32229100  0.42065400  1
  C  5  1  0.12090400  0.32987700  0.42684600  1
  C  6  1  0.13690700  0.34786700  0.40600300  1
  C  9  1  0.13273000  0.38881000  0.36625600  1
  C  10  1  0.12339100  0.39767800  0.33675600  1
  C  11  1  0.12937500  0.42723100  0.32642700  1
  C  12  1  0.15121300  0.44404100  0.34139100  1
  C  13  1  0.16338800  0.43501700  0.36863700  1
  C  14  1  0.15210900  0.40883500  0.38170500  1
  C  23  1  0.38118000  0.63973400  0.88242500  1
  C  24  1  0.41041200  0.65080000  0.87619800  1
  C  25  1  0.42319300  0.67451400  0.89227100  1
  C  26  1  0.41051700  0.68123600  0.91999600  1
  C  27  1  0.38090100  0.67316900  0.92649900  1
  C  28  1  0.36507800  0.65480700  0.90584700  1
  C  31  1  0.36959400  0.61364600  0.86634100  1
  C  32  1  0.37891500  0.60473100  0.83684400  1
  C  33  1  0.37309500  0.57509800  0.82664100  1
  C  34  1  0.35140100  0.55821200  0.84173000  1
  C  35  1  0.33921300  0.56727400  0.86895800  1
  C  36  1  0.35035700  0.59357400  0.88190200  1
  C  45  1  0.88130900  0.86277100  0.11991700  1
  C  46  1  0.91054600  0.85167200  0.12607600  1
  C  47  1  0.92326500  0.82796400  0.10993200  1
  C  48  1  0.91068700  0.82151900  0.08208400  1
  C  49  1  0.88100000  0.82946100  0.07577300  1
  C  50  1  0.86518100  0.84774700  0.09648900  1
  C  53  1  0.86974000  0.88883700  0.13604700  1
  C  54  1  0.87907600  0.89769400  0.16555700  1
  C  55  1  0.87317600  0.92728300  0.17584800  1
  C  56  1  0.85146400  0.94418400  0.16080300  1
  C  57  1  0.83928000  0.93516700  0.13356000  1
  C  58  1  0.85045300  0.90891200  0.12055100  1
  C  67  1  0.62082400  0.13947400  0.61962800  1
  C  68  1  0.59151600  0.15039800  0.62573000  1
  C  69  1  0.57851200  0.17377800  0.60933900  1
  C  70  1  0.59095900  0.17998300  0.58136500  1
  C  71  1  0.62075500  0.17229100  0.57512200  1
  C  72  1  0.63678500  0.15448300  0.59609000  1
  C  75  1  0.63262500  0.11358600  0.63587900  1
  C  76  1  0.62329800  0.10472600  0.66538600  1
  C  77  1  0.62933400  0.07518600  0.67573300  1
  C  78  1  0.65123200  0.05842300  0.66080200  1
  C  79  1  0.66339900  0.06744700  0.63355200  1
  C  80  1  0.65207700  0.09360100  0.62046300  1
  C  89  1  0.38263400  0.12087300  0.36287700  1
  C  90  1  0.37648000  0.09157600  0.35195600  1
  C  91  1  0.39280900  0.07856300  0.32854900  1
  C  92  1  0.42072600  0.09104000  0.32216900  1
  C  93  1  0.42694400  0.12085400  0.32978300  1
  C  94  1  0.40612300  0.13685200  0.34780500  1
  C  97  1  0.36642300  0.13266700  0.38878900  1
  C  98  1  0.33693600  0.12332400  0.39769800  1
  C  99  1  0.32664300  0.12931200  0.42726400  1
  C  100  1  0.34162000  0.15116600  0.44404300  1
  C  101  1  0.36885500  0.16334100  0.43498600  1
  C  102  1  0.38189400  0.15205100  0.40879500  1
  C  111  1  0.88256300  0.38128600  0.63966300  1
  C  112  1  0.87636100  0.41053000  0.65071600  1
  C  113  1  0.89245600  0.42331600  0.67440700  1
  C  114  1  0.92018700  0.41063700  0.68110900  1
  C  115  1  0.92666200  0.38100800  0.67306200  1
  C  116  1  0.90598100  0.36518000  0.65473300  1
  C  119  1  0.86645700  0.36969000  0.61359500  1
  C  120  1  0.83696600  0.37903700  0.60469100  1
  C  121  1  0.82674800  0.37321800  0.57506400  1
  C  122  1  0.84180100  0.35149300  0.55818300  1
  C  123  1  0.86901800  0.33927700  0.56724100  1
  C  124  1  0.88198900  0.35042400  0.59352700  1
  C  133  1  0.12005600  0.88120300  0.86270000  1
  C  134  1  0.12624000  0.91042800  0.85158700  1
  C  135  1  0.11012000  0.92314100  0.82785700  1
  C  136  1  0.08227700  0.91056700  0.82138800  1
  C  137  1  0.07593600  0.88089300  0.82935400  1
  C  138  1  0.09662400  0.86507900  0.84767400  1
  C  141  1  0.13616200  0.86964400  0.88878600  1
  C  142  1  0.16567900  0.87895300  0.89765400  1
  C  143  1  0.17595400  0.87305100  0.92725000  1
  C  144  1  0.16087100  0.85137100  0.94415800  1
  C  145  1  0.13361700  0.83921500  0.93513600  1
  C  146  1  0.12063600  0.85038600  0.90886700  1
  C  155  1  0.61975900  0.62088000  0.13942600  1
  C  156  1  0.62583900  0.59156200  0.15033200  1
  C  157  1  0.60941500  0.57854500  0.17367900  1
  C  158  1  0.58143800  0.59099700  0.17986300  1
  C  159  1  0.57521800  0.62080400  0.17219800  1
  C  160  1  0.59621000  0.63683900  0.15442000  1
  C  163  1  0.63604400  0.63268800  0.11356500  1
  C  164  1  0.66556600  0.62336300  0.10474700  1
  C  165  1  0.67594600  0.62939600  0.07521900  1
  C  166  1  0.66102900  0.65127900  0.05842600  1
  C  167  1  0.63377000  0.66344600  0.06741700  1
  C  168  1  0.62065300  0.65213200  0.09356000  1
  C  177  1  0.36285300  0.38258900  0.12097400  1
  C  178  1  0.35189100  0.37645600  0.09168800  1
  C  179  1  0.32843800  0.39276900  0.07873700  1
  C  180  1  0.32204400  0.42066300  0.09125800  1
  C  181  1  0.32972700  0.42687700  0.12105300  1
  C  182  1  0.34779800  0.40606000  0.13700000  1
  C  185  1  0.38879200  0.36637800  0.13270100  1
  C  186  1  0.39768000  0.33689200  0.12333800  1
  C  187  1  0.42725800  0.32659600  0.12926100  1
  C  188  1  0.44409200  0.34158400  0.15106700  1
  C  189  1  0.43505500  0.36881500  0.16326600  1
  C  190  1  0.40883500  0.38185200  0.15204200  1
  C  199  1  0.63963600  0.88260800  0.38138900  1
  C  200  1  0.65064700  0.87638500  0.41064400  1
  C  201  1  0.67429200  0.89250000  0.42349400  1
  C  202  1  0.68097700  0.92025400  0.41086000  1
  C  203  1  0.67300400  0.92673300  0.38121300  1
  C  204  1  0.65473100  0.90604300  0.36533200  1
  C  207  1  0.61359700  0.86649900  0.36972600  1
  C  208  1  0.60467300  0.83701100  0.37905000  1
  C  209  1  0.57505800  0.82679300  0.37316700  1
  C  210  1  0.55823200  0.84183500  0.35139200  1
  C  211  1  0.56731000  0.86905800  0.33920400  1
  C  212  1  0.59356700  0.88203100  0.35041500  1
  C  221  1  0.86284700  0.12000400  0.88135400  1
  C  222  1  0.85180300  0.12616300  0.91061100  1
  C  223  1  0.82817600  0.10996300  0.92340800  1
  C  224  1  0.82177100  0.08208800  0.91087200  1
  C  225  1  0.82961200  0.07580000  0.88115100  1
  C  226  1  0.84781900  0.09654600  0.86527400  1
  C  229  1  0.88885700  0.13617100  0.86971300  1
  C  230  1  0.89769400  0.16569400  0.87902400  1
  C  231  1  0.92725800  0.17601700  0.87306700  1
  C  232  1  0.94413500  0.16099700  0.85132000  1
  C  233  1  0.93512900  0.13374000  0.83916000  1
  C  234  1  0.90891400  0.12069800  0.85038600  1
  C  243  1  0.13957000  0.61981300  0.62102700  1
  C  244  1  0.15054600  0.62591700  0.59174100  1
  C  245  1  0.17398900  0.60956400  0.57880100  1
  C  246  1  0.18023500  0.58161900  0.59129100  1
  C  247  1  0.17245200  0.57535200  0.62105300  1
  C  248  1  0.15455900  0.59628800  0.63703000  1
  C  251  1  0.11363300  0.63603700  0.63275200  1
  C  252  1  0.10478300  0.66555300  0.62343200  1
  C  253  1  0.07522200  0.67588200  0.62940500  1
  C  254  1  0.05839600  0.66090200  0.65122100  1
  C  255  1  0.06740600  0.63364800  0.66338300  1
  C  256  1  0.09360400  0.62059200  0.65213200  1
  C  265  1  0.11299100  0.37105100  0.86982400  1
  C  266  1  0.10190200  0.34178900  0.87584400  1
  C  267  1  0.07836600  0.32902100  0.85950200  1
  C  268  1  0.07200700  0.34169600  0.83167000  1
  C  269  1  0.07984700  0.37147000  0.82555500  1
  C  270  1  0.09799800  0.38724400  0.84642900  1
  C  273  1  0.13900000  0.38258900  0.88605800  1
  C  274  1  0.14785700  0.37308200  0.91550800  1
  C  275  1  0.17746500  0.37883400  0.92581100  1
  C  276  1  0.19439600  0.40060600  0.91088300  1
  C  277  1  0.18542300  0.41293500  0.88368800  1
  C  278  1  0.15912200  0.40190000  0.87064600  1
  C  287  1  0.38965100  0.63104000  0.36988800  1
  C  288  1  0.40090000  0.66022500  0.37602200  1
  C  289  1  0.42477000  0.67276600  0.35998700  1
  C  290  1  0.43150300  0.65991600  0.33234400  1
  C  291  1  0.42322900  0.63034300  0.32593900  1
  C  292  1  0.40466000  0.61473500  0.34656600  1
  C  295  1  0.36343900  0.61970600  0.38594800  1
  C  296  1  0.35454600  0.62917100  0.41540300  1
  C  297  1  0.32485900  0.62357700  0.42558100  1
  C  298  1  0.30784400  0.60196700  0.41051200  1
  C  299  1  0.31684400  0.58964900  0.38332000  1
  C  300  1  0.34326100  0.60056000  0.37040900  1
  C  309  1  0.61290700  0.13121900  0.13254700  1
  C  310  1  0.60163600  0.16041400  0.12649400  1
  C  311  1  0.57781700  0.17291500  0.14265300  1
  C  312  1  0.57143400  0.16018900  0.17044700  1
  C  313  1  0.57962300  0.13055700  0.17669300  1
  C  314  1  0.59797600  0.11491200  0.15591100  1
  C  317  1  0.63905900  0.11986700  0.11640300  1
  C  318  1  0.64788500  0.12935300  0.08693200  1
  C  319  1  0.67751200  0.12364900  0.07664000  1
  C  320  1  0.69452500  0.10198900  0.09163400  1
  C  321  1  0.68557000  0.08966500  0.11883500  1
  C  322  1  0.65923000  0.10063700  0.13184500  1
  C  331  1  0.88936500  0.87092500  0.63282600  1
  C  332  1  0.90045600  0.84165600  0.62681900  1
  C  333  1  0.92395600  0.82886800  0.64321500  1
  C  334  1  0.93012900  0.84147200  0.67112500  1
  C  335  1  0.92222100  0.87122100  0.67729800  1
  C  336  1  0.90429700  0.88706600  0.65628800  1
  C  339  1  0.86338100  0.88250500  0.61657300  1
  C  340  1  0.85454900  0.87303600  0.58710200  1
  C  341  1  0.82496400  0.87886900  0.57676400  1
  C  342  1  0.80808300  0.90070100  0.59165600  1
  C  343  1  0.81704500  0.91300300  0.61886900  1
  C  344  1  0.84329800  0.90189000  0.63194400  1
  C  353  1  0.87097800  0.63271400  0.88941400  1
  C  354  1  0.84172300  0.62667500  0.90051800  1
  C  355  1  0.82896000  0.64299500  0.92407400  1
  C  356  1  0.84162500  0.67083100  0.93043400  1
  C  357  1  0.87139000  0.67696600  0.92257700  1
  C  358  1  0.88716900  0.65610500  0.90441800  1
  C  361  1  0.88252100  0.61650600  0.86338800  1
  C  362  1  0.87301400  0.58706600  0.85450200  1
  C  363  1  0.87877700  0.57678800  0.82488600  1
  C  364  1  0.90056500  0.59172300  0.80798300  1
  C  365  1  0.91289200  0.61891100  0.81698000  1
  C  366  1  0.90183900  0.63193000  0.84328400  1
  C  375  1  0.13114200  0.13261600  0.61280700  1
  C  376  1  0.16034300  0.12651700  0.60157500  1
  C  377  1  0.17288800  0.14258400  0.57773000  1
  C  378  1  0.16002500  0.17022700  0.57102200  1
  C  379  1  0.13043600  0.17659300  0.57927100  1
  C  380  1  0.11482600  0.15592800  0.59779600  1
  C  383  1  0.11980100  0.11652800  0.63899500  1
  C  384  1  0.12930000  0.08708200  0.64787900  1
  C  385  1  0.12370900  0.07688800  0.67755900  1
  C  386  1  0.10205900  0.09191100  0.69456200  1
  C  387  1  0.08970600  0.11908800  0.68556700  1
  C  388  1  0.10061800  0.13202900  0.65916800  1
  C  397  1  0.63111500  0.36995700  0.38955100  1
  C  398  1  0.66029900  0.37604600  0.40084000  1
  C  399  1  0.67279700  0.35991500  0.42468100  1
  C  400  1  0.66008100  0.33212400  0.43109100  1
  C  401  1  0.63046500  0.32583900  0.42288200  1
  C  402  1  0.61482000  0.34658600  0.40448600  1
  C  405  1  0.61977300  0.38607200  0.36337600  1
  C  406  1  0.62922000  0.41555400  0.35453900  1
  C  407  1  0.62351400  0.42583000  0.32490800  1
  C  408  1  0.60189400  0.41078900  0.30788400  1
  C  409  1  0.58960700  0.38356900  0.31684200  1
  C  410  1  0.60057800  0.37059200  0.34319700  1
  C  419  1  0.37099700  0.86971300  0.11303900  1
  C  420  1  0.34172200  0.87569900  0.10196200  1
  C  421  1  0.32892800  0.85928400  0.07848100  1
  C  422  1  0.34154200  0.83137800  0.07230900  1
  C  423  1  0.37130000  0.82522500  0.08020200  1
  C  424  1  0.38714100  0.84624900  0.09811600  1
  C  427  1  0.38257400  0.88599100  0.13900800  1
  C  428  1  0.37310400  0.91547300  0.14780800  1
  C  429  1  0.37892600  0.92583300  0.17738500  1
  C  430  1  0.40074200  0.91094700  0.19429600  1
  C  431  1  0.41304700  0.88373000  0.18535700  1
  C  432  1  0.40194900  0.87063500  0.15910900  1
  C  441  1  0.13267500  0.61294700  0.13129400  1
  C  442  1  0.12666100  0.60180700  0.16053900  1
  C  443  1  0.14296200  0.57820200  0.17323600  1
  C  444  1  0.17076800  0.57181500  0.16052100  1
  C  445  1  0.17689900  0.57974800  0.13077700  1
  C  446  1  0.15604300  0.59796300  0.11505400  1
  C  449  1  0.11646700  0.63899900  0.11982200  1
  C  450  1  0.08702800  0.64786500  0.12935500  1
  C  451  1  0.07674800  0.67749400  0.12365800  1
  C  452  1  0.09168900  0.69444900  0.10191300  1
  C  453  1  0.11887100  0.68547200  0.08955800  1
  C  454  1  0.13189000  0.65914100  0.10054400  1
  C  463  1  0.63265600  0.88955200  0.87112900  1
  C  464  1  0.62653000  0.90074500  0.84191900  1
  C  465  1  0.64261800  0.92454100  0.82930500  1
  C  466  1  0.67029200  0.93122500  0.84211500  1
  C  467  1  0.67666300  0.92305200  0.87172600  1
  C  468  1  0.65599000  0.90458200  0.88739400  1
  C  471  1  0.61656600  0.86339000  0.88254100  1
  C  472  1  0.58711700  0.85448900  0.87306900  1
  C  473  1  0.57692600  0.82482200  0.87872600  1
  C  474  1  0.59194300  0.80786700  0.90042000  1
  C  475  1  0.61912700  0.81688500  0.91274500  1
  C  476  1  0.63206900  0.84325800  0.90176500  1
  C  485  1  0.86995100  0.11295200  0.37112700  1
  C  486  1  0.87601300  0.10172900  0.34191400  1
  C  487  1  0.85980700  0.07798100  0.32934000  1
  C  488  1  0.83198900  0.07162700  0.34202500  1
  C  489  1  0.82575900  0.07972400  0.37168800  1
  C  490  1  0.84656300  0.09801200  0.38738600  1
  C  493  1  0.88612200  0.13905900  0.38254300  1
  C  494  1  0.91560400  0.14787600  0.37308200  1
  C  495  1  0.92592000  0.17748200  0.37884100  1
  C  496  1  0.91093800  0.19447200  0.40052800  1
  C  497  1  0.88372400  0.18552200  0.41282900  1
  C  498  1  0.87069300  0.15921100  0.40180700  1
  C  507  1  0.36971900  0.38946200  0.63124900  1
  C  508  1  0.37573400  0.40060600  0.66049500  1
  C  509  1  0.35938800  0.42417800  0.67321400  1
  C  510  1  0.33150700  0.43040200  0.66057300  1
  C  511  1  0.32530200  0.42239800  0.63085700  1
  C  512  1  0.34627000  0.40437700  0.61506700  1
  C  515  1  0.38594100  0.36342500  0.61974600  1
  C  516  1  0.41542100  0.35460400  0.62920400  1
  C  517  1  0.42574100  0.32499900  0.62343900  1
  C  518  1  0.41079500  0.30805400  0.60168900  1
  C  519  1  0.38357600  0.31700000  0.58939600  1
  C  520  1  0.37053400  0.34329700  0.60043700  1
  C  529  1  0.29913400  0.56610900  0.37151400  1
  C  530  1  0.30839900  0.53645800  0.37638200  1
  C  531  1  0.28763100  0.51293600  0.37701000  1
  C  532  1  0.25669900  0.51823200  0.37342300  1
  C  533  1  0.24747700  0.54799000  0.36718500  1
  C  534  1  0.26857000  0.57134100  0.36610400  1
  C  536  1  0.23432200  0.49558000  0.37851400  1
  C  537  1  0.23982700  0.46476400  0.37432200  1
  C  538  1  0.21652100  0.44376300  0.37502200  1
  C  539  1  0.18688600  0.45271300  0.38052700  1
  C  540  1  0.18142000  0.48312400  0.38648700  1
  C  541  1  0.20457300  0.50443500  0.38532600  1
  C  546  1  0.19744800  0.53672100  0.38824200  1
  C  547  1  0.21509100  0.55486200  0.36483100  1
  C  553  1  0.20314200  0.43648000  0.87192000  1
  C  554  1  0.19396000  0.46613100  0.87693500  1
  C  555  1  0.21478400  0.48960200  0.87758600  1
  C  556  1  0.24569300  0.48425100  0.87388000  1
  C  557  1  0.25482900  0.45449300  0.86751500  1
  C  558  1  0.23368000  0.43119500  0.86641700  1
  C  560  1  0.26813500  0.50683800  0.87896200  1
  C  561  1  0.26268400  0.53767800  0.87489300  1
  C  562  1  0.28604300  0.55862000  0.87555000  1
  C  563  1  0.31569900  0.54961300  0.88086200  1
  C  564  1  0.32109300  0.51916500  0.88673200  1
  C  565  1  0.29788900  0.49790300  0.88562600  1
  C  570  1  0.30495600  0.46559500  0.88843400  1
  C  571  1  0.28719000  0.44755300  0.86503600  1
  C  577  1  0.70332800  0.06616700  0.13061900  1
  C  578  1  0.69413500  0.03649700  0.12567900  1
  C  579  1  0.71493100  0.01300000  0.12504000  1
  C  580  1  0.74584800  0.01832600  0.12868500  1
  C  581  1  0.75501600  0.04808500  0.13498800  1
  C  582  1  0.73388600  0.07140000  0.13606700  1
  C  584  1  0.76826300  0.99571400  0.12360500  1
  C  585  1  0.76278900  0.96488500  0.12770500  1
  C  586  1  0.78613300  0.94392600  0.12703600  1
  C  587  1  0.81580700  0.95287200  0.12167600  1
  C  588  1  0.82119200  0.98332100  0.11578400  1
  C  589  1  0.79801700  0.00460900  0.11689500  1
  C  594  1  0.80511200  0.03690700  0.11403600  1
  C  595  1  0.78738700  0.05500100  0.13742200  1
  C  601  1  0.79931100  0.93654100  0.63065700  1
  C  602  1  0.80855300  0.96617200  0.62564600  1
  C  603  1  0.78774800  0.98966300  0.62500900  1
  C  604  1  0.75682900  0.98434300  0.62869900  1
  C  605  1  0.74765600  0.95458500  0.63502400  1
  C  606  1  0.76877300  0.93125800  0.63612600  1
  C  608  1  0.73441600  0.00695700  0.62362300  1
  C  609  1  0.73988600  0.03778600  0.62777200  1
  C  610  1  0.71654800  0.05875700  0.62710400  1
  C  611  1  0.68691200  0.04976300  0.62166600  1
  C  612  1  0.68147800  0.01933700  0.61574900  1
  C  613  1  0.70466200  0.99805900  0.61688900  1
  C  618  1  0.69757300  0.96575800  0.61403600  1
  C  619  1  0.71528100  0.94767900  0.63744700  1
  C  625  1  0.37178100  0.29925000  0.56587300  1
  C  626  1  0.37676100  0.30849400  0.53623500  1
  C  627  1  0.37740000  0.28768500  0.51274800  1
  C  628  1  0.37373700  0.25676600  0.51807800  1
  C  629  1  0.36743600  0.24759100  0.54784100  1
  C  630  1  0.36633400  0.26871000  0.57116500  1
  C  632  1  0.37881700  0.23435300  0.49546200  1
  C  633  1  0.37465200  0.23982000  0.46463500  1
  C  634  1  0.37531800  0.21648200  0.44366500  1
  C  635  1  0.38076300  0.18684900  0.45266000  1
  C  636  1  0.38670300  0.18141800  0.48308200  1
  C  637  1  0.38556900  0.20460300  0.50436100  1
  C  642  1  0.38844200  0.19751800  0.53666100  1
  C  643  1  0.36503300  0.21521500  0.55475100  1
  C  649  1  0.87193100  0.20327800  0.43632200  1
  C  650  1  0.87687300  0.19409300  0.46599300  1
  C  651  1  0.87751200  0.21489300  0.48948700  1
  C  652  1  0.87386900  0.24580900  0.48415300  1
  C  653  1  0.86756600  0.25497100  0.45439200  1
  C  654  1  0.86648400  0.23383400  0.43108200  1
  C  656  1  0.87895300  0.26822900  0.50676200  1
  C  657  1  0.87484600  0.26276100  0.53759400  1
  C  658  1  0.87552300  0.28610600  0.55855500  1
  C  659  1  0.88089500  0.31575700  0.54957500  1
  C  660  1  0.88679900  0.32116400  0.51913400  1
  C  661  1  0.88567500  0.29797800  0.49785600  1
  C  666  1  0.88853400  0.30506300  0.46555500  1
  C  667  1  0.86514100  0.28734200  0.44746800  1
  C  673  1  0.13062700  0.70319200  0.06600900  1
  C  674  1  0.12561500  0.69400300  0.03636000  1
  C  675  1  0.12496500  0.71482200  0.01288400  1
  C  676  1  0.12867000  0.74573200  0.01822900  1
  C  677  1  0.13503600  0.75487400  0.04798500  1
  C  678  1  0.13613000  0.73373200  0.07128800  1
  C  680  1  0.12359400  0.76817000  0.99563900  1
  C  681  1  0.12765300  0.76271100  0.96480000  1
  C  682  1  0.12700400  0.78607300  0.94385900  1
  C  683  1  0.12170800  0.81574900  0.95283400  1
  C  684  1  0.11584800  0.82112000  0.98329200  1
  C  685  1  0.11694200  0.79792800  0.00456100  1
  C  690  1  0.11413500  0.80500500  0.03686800  1
  C  691  1  0.13752400  0.78723800  0.05491700  1
  C  697  1  0.63092600  0.79919000  0.93630000  1
  C  698  1  0.62602600  0.80845500  0.96594700  1
  C  699  1  0.62540100  0.78769000  0.98947200  1
  C  700  1  0.62901500  0.75676000  0.98418700  1
  C  701  1  0.63527600  0.74753800  0.95443300  1
  C  702  1  0.63635800  0.76862800  0.93108000  1
  C  704  1  0.62392400  0.73438300  0.00683700  1
  C  705  1  0.62810000  0.73989000  0.03765500  1
  C  706  1  0.62740100  0.71658600  0.05866000  1
  C  707  1  0.62190000  0.68694800  0.04971100  1
  C  708  1  0.61596200  0.68147800  0.01929700  1
  C  709  1  0.61712900  0.70462900  0.99798400  1
  C  714  1  0.61423600  0.69750000  0.96569600  1
  C  715  1  0.63765000  0.71515200  0.94756500  1
  C  721  1  0.56612000  0.37175200  0.29908500  1
  C  722  1  0.53644700  0.37660100  0.30831200  1
  C  723  1  0.51292900  0.37721500  0.28753800  1
  C  724  1  0.51823800  0.37363400  0.25661000  1
  C  725  1  0.54800300  0.36741600  0.24740600  1
  C  726  1  0.57133800  0.36635800  0.26851600  1
  C  728  1  0.49559600  0.37871200  0.23422400  1
  C  729  1  0.46478000  0.37451200  0.23971600  1
  C  730  1  0.44378500  0.37520000  0.21640200  1
  C  731  1  0.45274700  0.38070100  0.18676900  1
  C  732  1  0.48315700  0.38666900  0.18131400  1
  C  733  1  0.50445900  0.38552000  0.20447700  1
  C  738  1  0.53674700  0.38845800  0.19736600  1
  C  739  1  0.55489800  0.36506200  0.21502500  1
  C  745  1  0.43657600  0.87195800  0.20310800  1
  C  746  1  0.46620900  0.87703100  0.19390600  1
  C  747  1  0.48967200  0.87769500  0.21474200  1
  C  748  1  0.48431500  0.87397100  0.24564900  1
  C  749  1  0.45455900  0.86758400  0.25478200  1
  C  750  1  0.43126200  0.86645700  0.23363400  1
  C  752  1  0.50689800  0.87905600  0.26809800  1
  C  753  1  0.53773900  0.87498700  0.26265700  1
  C  754  1  0.55867500  0.87563900  0.28602600  1
  C  755  1  0.54966200  0.88095800  0.31567700  1
  C  756  1  0.51920900  0.88683300  0.32105700  1
  C  757  1  0.49795600  0.88571900  0.29784900  1
  C  762  1  0.46564400  0.88851800  0.30490700  1
  C  763  1  0.44761500  0.86510700  0.28714400  1
  C  769  1  0.06615400  0.13086000  0.70327700  1
  C  770  1  0.03650800  0.12590200  0.69404600  1
  C  771  1  0.01300600  0.12524800  0.71483800  1
  C  772  1  0.01832000  0.12890000  0.74575800  1
  C  773  1  0.04807200  0.13522300  0.75494300  1
  C  774  1  0.07140100  0.13632200  0.73383000  1
  C  776  1  0.99569900  0.12380400  0.76816300  1
  C  777  1  0.96487200  0.12789600  0.76268000  1
  C  778  1  0.94390400  0.12721700  0.78601500  1
  C  779  1  0.95283900  0.12185200  0.81569100  1
  C  780  1  0.98328700  0.11596700  0.82108500  1
  C  781  1  0.00458400  0.11709300  0.79791900  1
  C  786  1  0.03688100  0.11425300  0.80503000  1
  C  787  1  0.05496700  0.13765700  0.78732000  1
  C  793  1  0.93644500  0.63069400  0.79927500  1
  C  794  1  0.96609400  0.62574100  0.80849700  1
  C  795  1  0.98959400  0.62512000  0.78770300  1
  C  796  1  0.98427400  0.62879000  0.75678500  1
  C  797  1  0.95451600  0.63509100  0.74760700  1
  C  798  1  0.93118900  0.63616900  0.76872600  1
  C  800  1  0.00689500  0.62371700  0.73437600  1
  C  801  1  0.03772200  0.62786200  0.73985500  1
  C  802  1  0.05869900  0.62718900  0.71652400  1
  C  803  1  0.04971000  0.62175900  0.68688600  1
  C  804  1  0.01928600  0.61584600  0.68144100  1
  C  805  1  0.99800200  0.61698200  0.70462000  1
  C  810  1  0.96570400  0.61412100  0.69752400  1
  C  811  1  0.94761200  0.63752000  0.71523400  1
  C  817  1  0.81310100  0.05166200  0.86870400  1
  C  818  1  0.82231900  0.02229800  0.87517800  1
  C  819  1  0.80160700  0.99881000  0.87682000  1
  C  820  1  0.77069300  0.00403200  0.87316700  1
  C  821  1  0.76138600  0.03343100  0.86556800  1
  C  822  1  0.78253600  0.05660000  0.86286900  1
  C  824  1  0.74845500  0.98177300  0.87991500  1
  C  825  1  0.75364000  0.95088300  0.87604500  1
  C  826  1  0.73017300  0.93015100  0.87770600  1
  C  827  1  0.70085800  0.93938900  0.88432000  1
  C  828  1  0.69590500  0.96990500  0.89041400  1
  C  829  1  0.71908300  0.99104900  0.88766600  1
  C  834  1  0.71221700  0.02350700  0.88924000  1
  C  835  1  0.72892400  0.04031500  0.86415200  1
  C  841  1  0.68948900  0.95092300  0.36880100  1
  C  842  1  0.68021600  0.98024900  0.37530700  1
  C  843  1  0.70091600  0.00374700  0.37696800  1
  C  844  1  0.73183500  0.99855400  0.37331100  1
  C  845  1  0.74118000  0.96916100  0.36571300  1
  C  846  1  0.72005600  0.94596800  0.36299300  1
  C  848  1  0.75405000  0.02084600  0.38002800  1
  C  849  1  0.74882500  0.05172400  0.37614200  1
  C  850  1  0.77227600  0.07247700  0.37774800  1
  C  851  1  0.80163800  0.06330800  0.38430200  1
  C  852  1  0.80659300  0.03279900  0.39043100  1
  C  853  1  0.78344100  0.01161800  0.38774900  1
  C  858  1  0.79034900  0.97917200  0.38935500  1
  C  859  1  0.77364600  0.96231500  0.36429600  1
  C  865  1  0.18908300  0.55124800  0.63348700  1
  C  866  1  0.17981600  0.52191100  0.62702400  1
  C  867  1  0.20055800  0.49844800  0.62541600  1
  C  868  1  0.23147100  0.50368700  0.62910700  1
  C  869  1  0.24077400  0.53311300  0.63663000  1
  C  870  1  0.21962700  0.55629900  0.63926600  1
  C  872  1  0.25371300  0.48138200  0.62250100  1
  C  873  1  0.24846400  0.45050400  0.62640300  1
  C  874  1  0.27188100  0.42971400  0.62481500  1
  C  875  1  0.30121600  0.43892500  0.61825600  1
  C  876  1  0.30629200  0.46941400  0.61219600  1
  C  877  1  0.28313300  0.49060000  0.61484400  1
  C  882  1  0.29004100  0.52304400  0.61318700  1
  C  883  1  0.27323300  0.53998100  0.63812400  1
  C  889  1  0.31319800  0.45102700  0.13348000  1
  C  890  1  0.32242900  0.48038000  0.12703900  1
  C  891  1  0.30169700  0.50385100  0.12542200  1
  C  892  1  0.27078600  0.49861100  0.12908300  1
  C  893  1  0.26148300  0.46918900  0.13661400  1
  C  894  1  0.28263600  0.44601200  0.13925500  1
  C  896  1  0.24854400  0.52089700  0.12243100  1
  C  897  1  0.25376900  0.55178000  0.12633300  1
  C  898  1  0.23033500  0.57255000  0.12472000  1
  C  899  1  0.20101600  0.56331000  0.11813600  1
  C  900  1  0.19597100  0.53281900  0.11206700  1
  C  901  1  0.21914100  0.51165500  0.11473800  1
  C  906  1  0.21225300  0.47920400  0.11309500  1
  C  907  1  0.22902600  0.46230700  0.13808000  1
  C  913  1  0.86852400  0.81301800  0.05160400  1
  C  914  1  0.87502200  0.82229000  0.02226300  1
  C  915  1  0.87662400  0.80162700  0.99873000  1
  C  916  1  0.87288900  0.77071100  0.00387700  1
  C  917  1  0.86525400  0.76135200  0.03325200  1
  C  918  1  0.86261800  0.78245600  0.05647200  1
  C  920  1  0.87959000  0.74850900  0.98156600  1
  C  921  1  0.87577500  0.75379600  0.95068300  1
  C  922  1  0.87743200  0.73039800  0.92987800  1
  C  923  1  0.88399300  0.70106100  0.93908000  1
  C  924  1  0.88998800  0.69596100  0.96957500  1
  C  925  1  0.88724900  0.71908700  0.99077700  1
  C  930  1  0.88876800  0.71213000  0.02321600  1
  C  931  1  0.86372900  0.72888200  0.04005200  1
  C  937  1  0.36847400  0.68956700  0.95074300  1
  C  938  1  0.37498600  0.68019600  0.98003600  1
  C  939  1  0.37661000  0.70080700  0.00361100  1
  C  940  1  0.37288800  0.73174100  0.99854300  1
  C  941  1  0.36528000  0.74118200  0.96918500  1
  C  942  1  0.36262400  0.72014500  0.94590600  1
  C  944  1  0.37955400  0.75387800  0.02092800  1
  C  945  1  0.37571400  0.74849300  0.05179100  1
  C  946  1  0.37734000  0.77182400  0.07267500  1
  C  947  1  0.38389000  0.80119700  0.06357800  1
  C  948  1  0.38990700  0.80640000  0.03310200  1
  C  949  1  0.38720200  0.78333800  0.01182300  1
  C  954  1  0.38876100  0.79039400  0.97940500  1
  C  955  1  0.36375900  0.77367500  0.96247700  1
  C  961  1  0.63317100  0.18901000  0.55107000  1
  C  962  1  0.62671200  0.17984300  0.52170100  1
  C  963  1  0.62506400  0.20067100  0.49831700  1
  C  964  1  0.62869000  0.23156900  0.50367800  1
  C  965  1  0.63620600  0.24077400  0.53314000  1
  C  966  1  0.63890600  0.21954100  0.55623700  1
  C  968  1  0.62202900  0.25388700  0.48146900  1
  C  969  1  0.62597700  0.24879800  0.45057500  1
  C  970  1  0.62440700  0.27233600  0.42991900  1
  C  971  1  0.61784200  0.30166000  0.43920200  1
  C  972  1  0.61167100  0.30648600  0.46972400  1
  C  973  1  0.61429900  0.28323900  0.49081000  1
  C  978  1  0.61259700  0.28999900  0.52328500  1
  C  979  1  0.63759600  0.27320900  0.54014600  1
  C  985  1  0.13329900  0.31327600  0.45096700  1
  C  986  1  0.12688200  0.32245600  0.48034500  1
  C  987  1  0.12522300  0.30167500  0.50376900  1
  C  988  1  0.12880200  0.27076600  0.49845500  1
  C  989  1  0.13630200  0.26151400  0.46900900  1
  C  990  1  0.13900400  0.28271400  0.44588300  1
  C  992  1  0.12210200  0.24848800  0.52069000  1
  C  993  1  0.12606000  0.25361000  0.55158000  1
  C  994  1  0.12444300  0.23011000  0.57227200  1
  C  995  1  0.11780400  0.20081100  0.56299600  1
  C  996  1  0.11163800  0.19591500  0.53248700  1
  C  997  1  0.11431900  0.21913500  0.51137900  1
  C  1002  1  0.11262300  0.21233900  0.47891300  1
  C  1003  1  0.13765600  0.22906800  0.46204500  1
  C  1009  1  0.05173000  0.86843500  0.81294700  1
  C  1010  1  0.02241000  0.87490700  0.82230500  1
  C  1011  1  0.99881900  0.87650100  0.80170700  1
  C  1012  1  0.00387700  0.87278400  0.77077500  1
  C  1013  1  0.03323300  0.86519000  0.76133000  1
  C  1014  1  0.05651600  0.86256200  0.78236700  1
  C  1016  1  0.98149000  0.87945400  0.74864000  1
  C  1017  1  0.95062900  0.87561000  0.75402800  1
  C  1018  1  0.92974400  0.87724300  0.73069900  1
  C  1019  1  0.93883900  0.88380600  0.70132800  1
  C  1020  1  0.96931500  0.88983200  0.69612600  1
  C  1021  1  0.99059400  0.88711800  0.71918700  1
  C  1026  1  0.02301000  0.88867900  0.71212700  1
  C  1027  1  0.03993700  0.86367100  0.72883700  1
  C  1033  1  0.95086800  0.36856300  0.68949800  1
  C  1034  1  0.98018300  0.37510400  0.68021100  1
  C  1035  1  0.00369900  0.37673400  0.70089000  1
  C  1036  1  0.99854500  0.37299300  0.73180600  1
  C  1037  1  0.96916800  0.36534700  0.74116000  1
  C  1038  1  0.94595000  0.36267900  0.72005600  1
  C  1040  1  0.02085200  0.37969000  0.75401200  1
  C  1041  1  0.05173600  0.37588100  0.74872500  1
  C  1042  1  0.07254300  0.37753200  0.77212500  1
  C  1043  1  0.06334000  0.38407900  0.80146400  1
  C  1044  1  0.03284200  0.39006300  0.80656700  1
  C  1045  1  0.01164100  0.38733300  0.78343600  1
  C  1050  1  0.97920100  0.38885200  0.79039100  1
  C  1051  1  0.96236400  0.36381700  0.77363000  1
  C  1057  1  0.55118100  0.63322200  0.18893800  1
  C  1058  1  0.52180200  0.62675200  0.17980900  1
  C  1059  1  0.49844400  0.62509600  0.20066600  1
  C  1060  1  0.50384200  0.62872100  0.23155800  1
  C  1061  1  0.53331100  0.63625500  0.24072500  1
  C  1062  1  0.55638100  0.63896400  0.21946300  1
  C  1064  1  0.48167000  0.62203600  0.25390200  1
  C  1065  1  0.45076200  0.62596200  0.24885600  1
  C  1066  1  0.43012800  0.62434300  0.27240900  1
  C  1067  1  0.43948000  0.61773300  0.30168900  1
  C  1068  1  0.47001100  0.61160800  0.30651500  1
  C  1069  1  0.49105900  0.61429200  0.28323900  1
  C  1074  1  0.52354300  0.61262400  0.28995400  1
  C  1075  1  0.54035800  0.63764500  0.27314900  1
  C  1081  1  0.45107900  0.13324400  0.31320300  1
  C  1082  1  0.48044500  0.12683800  0.32242300  1
  C  1083  1  0.50389600  0.12518900  0.30167100  1
  C  1084  1  0.49862000  0.12876600  0.27075400  1
  C  1085  1  0.46918200  0.13625100  0.26146300  1
  C  1086  1  0.44603000  0.13894300  0.28263400  1
  C  1088  1  0.52088800  0.12209300  0.24850400  1
  C  1089  1  0.55176700  0.12607200  0.25366800  1
  C  1090  1  0.57248100  0.12450500  0.23018400  1
  C  1091  1  0.56327400  0.11791200  0.20084100  1
  C  1092  1  0.53277400  0.11169800  0.19594400  1
  C  1093  1  0.51162800  0.11432300  0.21913500  1
  C  1098  1  0.47917300  0.11259300  0.21229400  1
  C  1099  1  0.46225800  0.13760400  0.22901000  1
  C  1105  1  0.95111300  0.19222300  0.36589100  1
  C  1106  1  0.98024700  0.18496900  0.37482600  1
  C  1107  1  0.00373900  0.20529200  0.37086800  1
  C  1108  1  0.99901300  0.23466000  0.35978200  1
  C  1109  1  0.96953700  0.24186700  0.35044600  1
  C  1110  1  0.94651600  0.22043400  0.35253000  1
  C  1112  1  0.02105000  0.25814500  0.36249900  1
  C  1113  1  0.05022700  0.25286400  0.37320400  1
  C  1114  1  0.06908000  0.27631300  0.38127800  1
  C  1115  1  0.05966700  0.30638800  0.37986100  1
  C  1116  1  0.03235600  0.31216500  0.36544300  1
  C  1117  1  0.01330200  0.28843100  0.35667900  1
  C  1122  1  0.98665700  0.29474200  0.33821300  1
  C  1123  1  0.96050900  0.27322700  0.34442200  1
  C  1129  1  0.55171300  0.81007000  0.86585100  1
  C  1130  1  0.52255400  0.81736800  0.87469500  1
  C  1131  1  0.49900300  0.79712600  0.87068000  1
  C  1132  1  0.50366000  0.76775100  0.85959500  1
  C  1133  1  0.53315700  0.76041000  0.85046400  1
  C  1134  1  0.55622300  0.78178800  0.85258900  1
  C  1136  1  0.48149100  0.74438900  0.86217000  1
  C  1137  1  0.45215600  0.74992100  0.87229900  1
  C  1138  1  0.43306600  0.72663900  0.88029600  1
  C  1139  1  0.44237700  0.69651600  0.87934300  1
  C  1140  1  0.46987100  0.69046200  0.86539500  1
  C  1141  1  0.48918400  0.71402300  0.85672900  1
  C  1146  1  0.51599800  0.70741000  0.83861400  1
  C  1147  1  0.54213500  0.72900000  0.84464100  1
  C  1153  1  0.05152300  0.69220600  0.13656600  1
  C  1154  1  0.02236900  0.68484800  0.12777900  1
  C  1155  1  0.99881400  0.70509000  0.13177700  1
  C  1156  1  0.00347500  0.73450300  0.14276400  1
  C  1157  1  0.03296500  0.74185200  0.15192900  1
  C  1158  1  0.05605100  0.72049700  0.14980100  1
  C  1160  1  0.98132700  0.75788700  0.14010600  1
  C  1161  1  0.95210800  0.75243700  0.12960800  1
  C  1162  1  0.93310700  0.77577500  0.12156200  1
  C  1163  1  0.94239600  0.80589400  0.12282100  1
  C  1164  1  0.96976700  0.81184700  0.13705500  1
  C  1165  1  0.98898200  0.78822400  0.14577400  1
  C  1170  1  0.01570900  0.79471600  0.16406000  1
  C  1171  1  0.04190200  0.77326500  0.15781100  1
  C  1177  1  0.45097800  0.31027600  0.63631600  1
  C  1178  1  0.48012400  0.31756500  0.62744100  1
  C  1179  1  0.50364200  0.29725900  0.63133800  1
  C  1180  1  0.49894300  0.26784100  0.64230600  1
  C  1181  1  0.46948100  0.26059500  0.65164700  1
  C  1182  1  0.44643500  0.28200300  0.64958400  1
  C  1184  1  0.52099300  0.24436600  0.63952500  1
  C  1185  1  0.55008300  0.24962600  0.62857400  1
  C  1186  1  0.56892200  0.22616200  0.62050600  1
  C  1187  1  0.55958200  0.19607600  0.62215400  1
  C  1188  1  0.53235100  0.19033800  0.63674500  1
  C  1189  1  0.51331600  0.21409200  0.64550700  1
  C  1194  1  0.48671400  0.20782400  0.66405200  1
  C  1195  1  0.46051000  0.22922200  0.65768000  1
  C  1201  1  0.36597500  0.95101700  0.19213300  1
  C  1202  1  0.37474600  0.98019600  0.18485500  1
  C  1203  1  0.37077500  0.00368600  0.20518000  1
  C  1204  1  0.35983500  0.99893000  0.23459800  1
  C  1205  1  0.35063700  0.96942100  0.24184500  1
  C  1206  1  0.35275300  0.94640200  0.22041400  1
  C  1208  1  0.36255200  0.02098100  0.25807600  1
  C  1209  1  0.37324400  0.05016200  0.25278200  1
  C  1210  1  0.38131500  0.06902800  0.27622200  1
  C  1211  1  0.37992300  0.05962400  0.30630100  1
  C  1212  1  0.36554100  0.03229700  0.31209600  1
  C  1213  1  0.35677300  0.01323300  0.28836800  1
  C  1218  1  0.33838900  0.98653700  0.29470400  1
  C  1219  1  0.34472700  0.96039100  0.27322400  1
  C  1225  1  0.86585800  0.55159500  0.81012800  1
  C  1226  1  0.87461000  0.52242300  0.81745000  1
  C  1227  1  0.87059900  0.49890100  0.79717300  1
  C  1228  1  0.85962400  0.50361100  0.76776200  1
  C  1229  1  0.85055100  0.53313100  0.76042800  1
  C  1230  1  0.85267100  0.55618100  0.78182400  1
  C  1232  1  0.86224600  0.48146900  0.74437300  1
  C  1233  1  0.87245200  0.45215400  0.74986100  1
  C  1234  1  0.88049400  0.43311500  0.72655700  1
  C  1235  1  0.87951900  0.44246000  0.69644200  1
  C  1236  1  0.86551900  0.46993500  0.69042700  1
  C  1237  1  0.85680300  0.48919300  0.71401400  1
  C  1242  1  0.83867700  0.51600900  0.70743900  1
  C  1243  1  0.84479000  0.54213500  0.72901300  1
  C  1249  1  0.13657200  0.05164200  0.69226400  1
  C  1250  1  0.12769400  0.02250300  0.68493000  1
  C  1251  1  0.13169700  0.99891900  0.70513400  1
  C  1252  1  0.14279500  0.00352600  0.73451400  1
  C  1253  1  0.15201500  0.03299300  0.74187000  1
  C  1254  1  0.14988200  0.05609500  0.72053200  1
  C  1256  1  0.14018400  0.98135000  0.75786900  1
  C  1257  1  0.12976800  0.95210800  0.75238000  1
  C  1258  1  0.12176600  0.93305800  0.77568800  1
  C  1259  1  0.12299900  0.94231300  0.80581800  1
  C  1260  1  0.13718000  0.96970400  0.81181100  1
  C  1261  1  0.14584800  0.98897300  0.78821500  1
  C  1266  1  0.16412500  0.01569800  0.79474300  1
  C  1267  1  0.15795800  0.04190200  0.77327800  1
  C  1273  1  0.63639100  0.45107600  0.31018900  1
  C  1274  1  0.62735600  0.48017500  0.31745600  1
  C  1275  1  0.63124200  0.50369500  0.29715000  1
  C  1276  1  0.64235800  0.49902500  0.26778100  1
  C  1277  1  0.65183200  0.46959200  0.26057500  1
  C  1278  1  0.64979600  0.44654600  0.28198600  1
  C  1280  1  0.63957800  0.52106200  0.24429700  1
  C  1281  1  0.62861700  0.55015000  0.24954600  1
  C  1282  1  0.62054800  0.56897300  0.22607300  1
  C  1283  1  0.62221600  0.55962400  0.19599100  1
  C  1284  1  0.63684300  0.53240900  0.19026900  1
  C  1285  1  0.64559800  0.51338300  0.21403200  1
  C  1290  1  0.66422100  0.48683000  0.20778700  1
  C  1291  1  0.65797400  0.46062600  0.22922200  1
  C  1297  1  0.19219800  0.36591500  0.95101700  1
  C  1298  1  0.18488500  0.37470800  0.98018000  1
  C  1299  1  0.20517800  0.37074100  0.00369900  1
  C  1300  1  0.23459600  0.35978600  0.99898600  1
  C  1301  1  0.24187800  0.35056800  0.96949300  1
  C  1302  1  0.22047800  0.35267700  0.94644500  1
  C  1304  1  0.25804200  0.36251000  0.02106400  1
  C  1305  1  0.25271100  0.37320700  0.05023500  1
  C  1306  1  0.27612400  0.38128900  0.06912700  1
  C  1307  1  0.30621400  0.37990100  0.05976000  1
  C  1308  1  0.31204400  0.36550500  0.03244700  1
  C  1309  1  0.28834600  0.35673100  0.01335600  1
  C  1314  1  0.29471600  0.33832600  0.98667900  1
  C  1315  1  0.27326700  0.34464000  0.96050400  1
  C  1321  1  0.81019000  0.86591600  0.55159800  1
  C  1322  1  0.81748100  0.87464600  0.52240700  1
  C  1323  1  0.79717100  0.87062800  0.49891400  1
  C  1324  1  0.76775800  0.85967300  0.50366900  1
  C  1325  1  0.76045900  0.85061800  0.53320200  1
  C  1326  1  0.78188600  0.85274500  0.55622500  1
  C  1328  1  0.74434000  0.86228800  0.48155400  1
  C  1329  1  0.74978500  0.87249200  0.45223000  1
  C  1330  1  0.72645400  0.88052300  0.43321500  1
  C  1331  1  0.69635100  0.87954300  0.44259800  1
  C  1332  1  0.69037600  0.86555500  0.47008900  1
  C  1333  1  0.71398900  0.85684500  0.48931700  1
  C  1338  1  0.70745100  0.83873700  0.51615600  1
  C  1339  1  0.72905500  0.84487700  0.54225100  1
  C  1345  1  0.69223300  0.13658800  0.05142800  1
  C  1346  1  0.68493000  0.12765900  0.02230500  1
  C  1347  1  0.70520300  0.13164800  0.99877700  1
  C  1348  1  0.73457000  0.14276700  0.00345000  1
  C  1349  1  0.74184100  0.15205000  0.03292300  1
  C  1350  1  0.72045200  0.14994600  0.05598200  1
  C  1352  1  0.75799000  0.14011600  0.98134300  1
  C  1353  1  0.75259300  0.12960800  0.95211700  1
  C  1354  1  0.77596400  0.12157000  0.93315600  1
  C  1355  1  0.80606800  0.12285800  0.94249200  1
  C  1356  1  0.81196700  0.13711900  0.96986000  1
  C  1357  1  0.78830900  0.14582300  0.98903800  1
  C  1362  1  0.79474300  0.16417200  0.01573600  1
  C  1363  1  0.77322300  0.15803000  0.04190000  1
  C  1369  1  0.31015600  0.63638000  0.45086000  1
  C  1370  1  0.31745600  0.62739400  0.47997700  1
  C  1371  1  0.29721700  0.63129300  0.50355100  1
  C  1372  1  0.26783500  0.64238700  0.49894700  1
  C  1373  1  0.26054600  0.65180000  0.46952100  1
  C  1374  1  0.28190500  0.64973800  0.44643300  1
  C  1376  1  0.24441500  0.63964900  0.52105500  1
  C  1377  1  0.24975500  0.62877500  0.55015900  1
  C  1378  1  0.22634000  0.62073700  0.56906900  1
  C  1379  1  0.19623300  0.62235400  0.55979500  1
  C  1380  1  0.19042100  0.63690600  0.53256100  1
  C  1381  1  0.21412400  0.64562700  0.51344600  1
  C  1386  1  0.20778900  0.66418100  0.48686300  1
  C  1387  1  0.22916600  0.65790700  0.46061900  1
  C  1393  1  0.94208200  0.20119700  0.88594600  1
  C  1394  1  0.93478400  0.23034900  0.87711100  1
  C  1395  1  0.95509900  0.25384700  0.88108500  1
  C  1396  1  0.98449900  0.24911200  0.89208800  1
  C  1397  1  0.99175700  0.21961100  0.90130400  1
  C  1398  1  0.97034100  0.19657800  0.89919300  1
  C  1400  1  0.00794800  0.27119100  0.88943200  1
  C  1401  1  0.00261900  0.30039700  0.87882800  1
  C  1402  1  0.02603700  0.31932700  0.87084700  1
  C  1403  1  0.05613000  0.30997300  0.87225000  1
  C  1404  1  0.06195000  0.28261400  0.88656100  1
  C  1405  1  0.03824600  0.26347600  0.89522900  1
  C  1410  1  0.04460800  0.23675400  0.91357100  1
  C  1411  1  0.02313700  0.21060200  0.90723300  1
  C  1417  1  0.56021200  0.80160500  0.38598300  1
  C  1418  1  0.56755500  0.77242100  0.37726400  1
  C  1419  1  0.54731300  0.74887200  0.38130000  1
  C  1420  1  0.51790000  0.75354900  0.39227900  1
  C  1421  1  0.51050800  0.78307800  0.40126600  1
  C  1422  1  0.53187500  0.80615200  0.39911000  1
  C  1424  1  0.49456700  0.73134000  0.38977400  1
  C  1425  1  0.50014100  0.70197400  0.37976500  1
  C  1426  1  0.47689000  0.68280600  0.37186600  1
  C  1427  1  0.44674700  0.69206400  0.37279500  1
  C  1428  1  0.44065800  0.71961500  0.38661600  1
  C  1429  1  0.46418700  0.73900800  0.39517900  1
  C  1434  1  0.45753000  0.76590900  0.41315100  1
  C  1435  1  0.47907500  0.79204600  0.40697100  1
  C  1441  1  0.44206300  0.30139000  0.11642600  1
  C  1442  1  0.43467400  0.27221500  0.12511700  1
  C  1443  1  0.45492200  0.24866600  0.12111000  1
  C  1444  1  0.48436700  0.25334800  0.11021000  1
  C  1445  1  0.49174700  0.28286100  0.10114800  1
  C  1446  1  0.47040100  0.30595100  0.10330400  1
  C  1448  1  0.50773300  0.23117300  0.11281600  1
  C  1449  1  0.50227200  0.20194400  0.12328400  1
  C  1450  1  0.52560300  0.18289400  0.13123000  1
  C  1451  1  0.55573600  0.19213600  0.12990800  1
  C  1452  1  0.56168800  0.21953400  0.11572800  1
  C  1453  1  0.53807300  0.23880300  0.10711000  1
  C  1458  1  0.54456700  0.26559200  0.08891600  1
  C  1459  1  0.52317600  0.29178900  0.09533700  1
  C  1465  1  0.06040800  0.70109900  0.61659000  1
  C  1466  1  0.06773400  0.73026500  0.62536300  1
  C  1467  1  0.04742200  0.75378000  0.62145400  1
  C  1468  1  0.01797300  0.74906100  0.61058400  1
  C  1469  1  0.01068700  0.71957300  0.60135500  1
  C  1470  1  0.03208600  0.69652200  0.60344200  1
  C  1472  1  0.99451600  0.77114000  0.61331900  1
  C  1473  1  0.99980100  0.80024600  0.62421600  1
  C  1474  1  0.97635000  0.81914100  0.63219800  1
  C  1475  1  0.94625100  0.80984700  0.63052100  1
  C  1476  1  0.94049800  0.78258100  0.61600000  1
  C  1477  1  0.96423700  0.76348800  0.60732800  1
  C  1482  1  0.95794800  0.73681700  0.58888800  1
  C  1483  1  0.97929400  0.71061100  0.59541100  1
  C  1489  1  0.70111500  0.61651200  0.06038900  1
  C  1490  1  0.73031100  0.62518500  0.06771100  1
  C  1491  1  0.75380500  0.62120700  0.04738800  1
  C  1492  1  0.74903900  0.61036300  0.01793700  1
  C  1493  1  0.71950800  0.60127700  0.01064200  1
  C  1494  1  0.69647800  0.60341300  0.03205500  1
  C  1496  1  0.77112700  0.61303600  0.99448900  1
  C  1497  1  0.80032600  0.62365900  0.99981900  1
  C  1498  1  0.81925900  0.63164500  0.97640300  1
  C  1499  1  0.80991400  0.63023800  0.94630700  1
  C  1500  1  0.78254800  0.61593800  0.94048300  1
  C  1501  1  0.76341300  0.60725900  0.96418600  1
  C  1506  1  0.73665000  0.58898100  0.95781400  1
  C  1507  1  0.71049700  0.59545800  0.97924100  1
  C  1513  1  0.30147700  0.11645500  0.44211900  1
  C  1514  1  0.27227800  0.12509100  0.43476100  1
  C  1515  1  0.24876200  0.12105100  0.45504100  1
  C  1516  1  0.25349500  0.11016200  0.48447800  1
  C  1517  1  0.28304800  0.10123000  0.49185600  1
  C  1518  1  0.30610300  0.10339000  0.47047200  1
  C  1520  1  0.23131700  0.11270400  0.50784000  1
  C  1521  1  0.20196300  0.12277500  0.50231200  1
  C  1522  1  0.18284500  0.13071200  0.52559000  1
  C  1523  1  0.19214300  0.12976900  0.55572000  1
  C  1524  1  0.21968200  0.11590700  0.56177100  1
  C  1525  1  0.23902300  0.10729800  0.53821100  1
  C  1530  1  0.26592800  0.08932300  0.54483200  1
  C  1531  1  0.29204800  0.09557900  0.52329100  1
  C  1537  1  0.80152000  0.38601200  0.56026800  1
  C  1538  1  0.77235900  0.37723800  0.56764100  1
  C  1539  1  0.74877800  0.38124000  0.54742900  1
  C  1540  1  0.75340200  0.39223300  0.51801300  1
  C  1541  1  0.78289300  0.40134800  0.51061700  1
  C  1542  1  0.80600300  0.39919400  0.53194600  1
  C  1544  1  0.73119800  0.38966200  0.49467400  1
  C  1545  1  0.70195400  0.37926000  0.50017900  1
  C  1546  1  0.68285500  0.37135100  0.47687500  1
  C  1547  1  0.69205700  0.37265400  0.44673100  1
  C  1548  1  0.71947000  0.38679200  0.44073800  1
  C  1549  1  0.73879000  0.39536600  0.46432700  1
  C  1554  1  0.76557500  0.41355900  0.45779500  1
  C  1555  1  0.79179000  0.40721000  0.47919100  1
  C  1561  1  0.20118000  0.88586400  0.94205700  1
  C  1562  1  0.23030200  0.87692900  0.93475700  1
  C  1563  1  0.25382000  0.88083500  0.95506300  1
  C  1564  1  0.24913200  0.89186600  0.98445900  1
  C  1565  1  0.21967200  0.90121900  0.99170800  1
  C  1566  1  0.19662000  0.89915300  0.97030800  1
  C  1568  1  0.27120400  0.88914900  0.00791800  1
  C  1569  1  0.30031900  0.87827600  0.00263700  1
  C  1570  1  0.31920900  0.87029900  0.02608800  1
  C  1571  1  0.30990600  0.87196900  0.05618400  1
  C  1572  1  0.28264500  0.88649600  0.06193300  1
  C  1573  1  0.26354800  0.89515500  0.03819200  1
  C  1578  1  0.23691600  0.91366000  0.04447100  1
  C  1579  1  0.21071200  0.90727000  0.02308000  1
  C  1585  1  0.11651700  0.44205200  0.30124300  1
  C  1586  1  0.12520000  0.43470300  0.27205700  1
  C  1587  1  0.12121400  0.45499800  0.24854200  1
  C  1588  1  0.11034900  0.48444500  0.25327600  1
  C  1589  1  0.10125800  0.49176900  0.28279800  1
  C  1590  1  0.10339800  0.47038300  0.30585100  1
  C  1592  1  0.11301100  0.50786700  0.23116400  1
  C  1593  1  0.12360900  0.50249700  0.20196200  1
  C  1594  1  0.13159900  0.52588800  0.18300200  1
  C  1595  1  0.13022000  0.55599600  0.19232200  1
  C  1596  1  0.11593400  0.56185600  0.21968600  1
  C  1597  1  0.10725200  0.53818200  0.23884900  1
  C  1602  1  0.08897700  0.54458900  0.26560500  1
  C  1603  1  0.09543000  0.52318000  0.29178000  1
  C  1609  1  0.61645000  0.06032100  0.70088100  1
  C  1610  1  0.62507300  0.06765200  0.73009100  1
  C  1611  1  0.62104000  0.04734500  0.75358700  1
  C  1612  1  0.61017400  0.01790100  0.74881800  1
  C  1613  1  0.60124600  0.01055400  0.71925900  1
  C  1614  1  0.60340400  0.03196500  0.69622400  1
  C  1616  1  0.61272400  0.99451400  0.77097100  1
  C  1617  1  0.62282200  0.00000400  0.80032600  1
  C  1618  1  0.63075500  0.97669700  0.81941500  1
  C  1619  1  0.62978400  0.94657800  0.81009000  1
  C  1620  1  0.61590900  0.94056500  0.78254800  1
  C  1621  1  0.60730100  0.96415200  0.76323900  1
  C  1626  1  0.58932400  0.95756900  0.73632200  1
  C  1627  1  0.59560700  0.97912700  0.71022600  1
  C  1633  1  0.88603300  0.94209100  0.20105000  1
  C  1634  1  0.87719200  0.93475300  0.23019100  1
  C  1635  1  0.88118700  0.95502300  0.25372200  1
  C  1636  1  0.89222700  0.98441600  0.24904000  1
  C  1637  1  0.90141300  0.99173200  0.21954600  1
  C  1638  1  0.89928400  0.97035700  0.19647700  1
  C  1640  1  0.88962500  0.00781400  0.27118000  1
  C  1641  1  0.87915400  0.00239400  0.30041500  1
  C  1642  1  0.87121400  0.02575100  0.31943600  1
  C  1643  1  0.87256100  0.05587000  0.31015800  1
  C  1644  1  0.88676600  0.06178200  0.28276300  1
  C  1645  1  0.89536900  0.03813700  0.26352300  1
  C  1650  1  0.91363100  0.04458600  0.23676700  1
  C  1651  1  0.90732400  0.02313100  0.21058900  1
  C  1657  1  0.38584300  0.56030100  0.80138900  1
  C  1658  1  0.37697900  0.56763700  0.77224700  1
  C  1659  1  0.38089200  0.54738800  0.74867800  1
  C  1660  1  0.39187400  0.51797100  0.75331100  1
  C  1661  1  0.40115900  0.51064200  0.78276800  1
  C  1662  1  0.39906700  0.53199500  0.80585800  1
  C  1664  1  0.38918600  0.49456900  0.73117600  1
  C  1665  1  0.37838000  0.49993400  0.70205000  1
  C  1666  1  0.37043200  0.47653400  0.68308200  1
  C  1667  1  0.37206000  0.44641300  0.69231300  1
  C  1668  1  0.38652500  0.44058500  0.71959300  1
  C  1669  1  0.39515700  0.46427200  0.73876800  1
  C  1674  1  0.41359200  0.45791100  0.76542600  1
  C  1675  1  0.40716100  0.47924200  0.79166700  1
  N  17  1  0.16720900  0.34896000  0.40792200  1
  N  18  1  0.11052500  0.37802400  0.31752500  1
  N  39  1  0.33479600  0.65340400  0.90786300  1
  N  40  1  0.39164900  0.62439000  0.81752800  1
  N  61  1  0.83489500  0.84908800  0.09453100  1
  N  62  1  0.89193000  0.87801800  0.18478900  1
  N  83  1  0.66708900  0.15352900  0.59425100  1
  N  84  1  0.61038300  0.12438300  0.68459000  1
  N  105  1  0.40805100  0.16715300  0.34890500  1
  N  106  1  0.31768300  0.11045200  0.37806800  1
  N  127  1  0.90797000  0.33489600  0.65335900  1
  N  128  1  0.81767300  0.39179600  0.62435600  1
  N  149  1  0.09463600  0.83479700  0.84904400  1
  N  150  1  0.18493300  0.89178100  0.87798400  1
  N  171  1  0.59437500  0.66714300  0.15347400  1
  N  172  1  0.68474800  0.61045500  0.12442800  1
  N  193  1  0.34896900  0.40797800  0.16729900  1
  N  194  1  0.37802200  0.31764800  0.11049700  1
  N  215  1  0.65342400  0.90804300  0.33504100  1
  N  216  1  0.62430700  0.81770900  0.39184300  1
  N  237  1  0.84907900  0.09458800  0.83498600  1
  N  238  1  0.87802000  0.18491200  0.89190400  1
  N  259  1  0.15350800  0.59442600  0.66733000  1
  N  260  1  0.12446200  0.68477000  0.61057500  1
  N  281  1  0.09930900  0.41754500  0.84463600  1
  N  282  1  0.12815100  0.36026500  0.93472100  1
  N  303  1  0.40302300  0.58445800  0.34463800  1
  N  304  1  0.37426000  0.64183200  0.43471000  1
  N  325  1  0.59949100  0.08462900  0.15776200  1
  N  326  1  0.62815100  0.14216500  0.06773000  1
  N  347  1  0.90315500  0.91737000  0.65802700  1
  N  348  1  0.87426300  0.86017700  0.56792000  1
  N  369  1  0.91747000  0.65790500  0.90310800  1
  N  370  1  0.86019000  0.56783500  0.87418700  1
  N  391  1  0.08454600  0.15782200  0.59940800  1
  N  392  1  0.14199700  0.06780300  0.62816000  1
  N  413  1  0.58454000  0.34469600  0.40293800  1
  N  414  1  0.64199900  0.43478300  0.37426900  1
  N  435  1  0.41744500  0.84451100  0.09926200  1
  N  436  1  0.36025200  0.93463700  0.12807500  1
  N  457  1  0.15783100  0.59934400  0.08475600  1
  N  458  1  0.06781000  0.62815100  0.14215200  1
  N  479  1  0.65789600  0.90304300  0.91767800  1
  N  480  1  0.56782900  0.87418100  0.86034600  1
  N  501  1  0.84470500  0.09945700  0.41767200  1
  N  502  1  0.93480200  0.12815100  0.36025200  1
  N  523  1  0.34450400  0.40313000  0.58477000  1
  N  524  1  0.43461800  0.37434000  0.64200100  1
