# generated using pymatgen
data_H5C11(NO)2
_symmetry_space_group_name_H-M   'P 1'
_cell_length_a   38.17420000
_cell_length_b   46.03340000
_cell_length_c   46.09230000
_cell_angle_alpha   90.00000000
_cell_angle_beta   90.00000000
_cell_angle_gamma   90.00000000
_symmetry_Int_Tables_number   1
_chemical_formula_structural   H5C11(NO)2
_chemical_formula_sum   'H640 C1408 N256 O256'
_cell_volume   80997.45574343
_cell_formula_units_Z   128
loop_
 _symmetry_equiv_pos_site_id
 _symmetry_equiv_pos_as_xyz
  1  'x, y, z'
loop_
 _atom_site_type_symbol
 _atom_site_label
 _atom_site_symmetry_multiplicity
 _atom_site_fract_x
 _atom_site_fract_y
 _atom_site_fract_z
 _atom_site_occupancy
  H  7  1  0.06893500  0.14043200  0.64310900  1
  H  8  1  0.09330200  0.05228300  0.65019500  1
  H  15  1  0.97443900  0.20482000  0.58468500  1
  H  16  1  0.99824300  0.11611900  0.58572700  1
  H  19  1  0.96915100  0.07476500  0.64867900  1
  H  20  1  0.03401100  0.17765300  0.67004400  1
  H  27  1  0.56905200  0.85581600  0.89672400  1
  H  28  1  0.59325400  0.94399700  0.88966000  1
  H  35  1  0.47481600  0.79127400  0.95522300  1
  H  36  1  0.49832700  0.88007400  0.95415200  1
  H  39  1  0.46908700  0.92130600  0.89130700  1
  H  40  1  0.53414600  0.81865000  0.86973000  1
  H  47  1  0.82011900  0.86992300  0.62803700  1
  H  48  1  0.84368200  0.87702000  0.71622800  1
  H  55  1  0.72559500  0.81173800  0.56320000  1
  H  56  1  0.74825500  0.81277400  0.65197200  1
  H  59  1  0.71970100  0.87562900  0.69278400  1
  H  60  1  0.78591200  0.89677300  0.59050800  1
  H  67  1  0.32014300  0.12634700  0.91179500  1
  H  68  1  0.34373300  0.11920200  0.82362100  1
  H  75  1  0.22523400  0.18452000  0.97651600  1
  H  76  1  0.24817300  0.18344900  0.88775000  1
  H  79  1  0.21974300  0.12058800  0.84698400  1
  H  80  1  0.28601800  0.09965500  0.94945700  1
  H  87  1  0.49197400  0.13741900  0.89719400  1
  H  88  1  0.47068000  0.04841900  0.88970500  1
  H  95  1  0.58528600  0.20401200  0.95589900  1
  H  96  1  0.56166000  0.11530500  0.95607700  1
  H  99  1  0.58067500  0.06637500  0.93247200  1
  H  100  1  0.52668900  0.17517700  0.87046900  1
  H  107  1  0.99192900  0.85878400  0.64269100  1
  H  108  1  0.97073200  0.94778900  0.65026400  1
  H  115  1  0.08499300  0.79215300  0.58385400  1
  H  116  1  0.06162400  0.88094700  0.58381100  1
  H  119  1  0.08067600  0.92980900  0.60745500  1
  H  120  1  0.02663400  0.82106900  0.66943900  1
  H  127  1  0.74084100  0.86953400  0.90875200  1
  H  128  1  0.72031400  0.87704400  0.81974900  1
  H  135  1  0.83409100  0.81091800  0.97572100  1
  H  136  1  0.81164600  0.81084500  0.88694000  1
  H  139  1  0.83030100  0.83444700  0.83818100  1
  H  140  1  0.77484200  0.89610100  0.94685200  1
  H  147  1  0.24076300  0.12678300  0.63106400  1
  H  148  1  0.22033800  0.11918200  0.72007400  1
  H  155  1  0.33438600  0.18529500  0.56411100  1
  H  156  1  0.31167200  0.18542100  0.65288500  1
  H  159  1  0.33030000  0.16178900  0.70161100  1
  H  160  1  0.27465700  0.10031400  0.59282700  1
  H  167  1  0.99160600  0.85589100  0.39628500  1
  H  168  1  0.96751400  0.94418900  0.38986500  1
  H  175  1  0.08812800  0.79135300  0.45446200  1
  H  176  1  0.05894100  0.87897900  0.45547300  1
  H  179  1  0.09167800  0.92143400  0.39306500  1
  H  180  1  0.02778900  0.81932700  0.36917200  1
  H  187  1  0.49146100  0.14029100  0.14340100  1
  H  188  1  0.46755700  0.05195900  0.14984600  1
  H  195  1  0.58839000  0.20492700  0.08551700  1
  H  196  1  0.55895600  0.11731900  0.08427600  1
  H  199  1  0.59172200  0.07494700  0.14661800  1
  H  200  1  0.52745100  0.17689100  0.17051100  1
  H  207  1  0.24117700  0.12573000  0.41183400  1
  H  208  1  0.21766300  0.11793600  0.32368000  1
  H  215  1  0.33884700  0.18322300  0.47600100  1
  H  216  1  0.31270900  0.18288000  0.38784300  1
  H  219  1  0.34168900  0.12008400  0.34721100  1
  H  220  1  0.27509500  0.10005900  0.45032200  1
  H  227  1  0.74120700  0.87049800  0.12792900  1
  H  228  1  0.71760300  0.87826700  0.21606100  1
  H  235  1  0.83891400  0.81293800  0.06387700  1
  H  236  1  0.81282900  0.81342200  0.15207700  1
  H  239  1  0.84165800  0.87624500  0.19266700  1
  H  240  1  0.77508300  0.89611900  0.08943900  1
  H  247  1  0.56960200  0.85900600  0.14255700  1
  H  248  1  0.59027300  0.94819900  0.14959900  1
  H  255  1  0.47318700  0.79224000  0.08486100  1
  H  256  1  0.50274800  0.87973700  0.08234300  1
  H  259  1  0.48120200  0.92899300  0.10552200  1
  H  260  1  0.53404700  0.82177000  0.16950700  1
  H  267  1  0.06963700  0.13723200  0.39715000  1
  H  268  1  0.09020000  0.04803000  0.39002100  1
  H  275  1  0.97335600  0.20404000  0.45497800  1
  H  276  1  0.00295800  0.11651500  0.45752300  1
  H  279  1  0.98130600  0.06728300  0.43435000  1
  H  280  1  0.03381900  0.17433600  0.37005300  1
  H  287  1  0.31974800  0.12613200  0.13106700  1
  H  288  1  0.34025100  0.11804800  0.22003000  1
  H  295  1  0.22359400  0.18406600  0.06471300  1
  H  296  1  0.24913700  0.18471300  0.15294900  1
  H  299  1  0.23038400  0.16099600  0.20175100  1
  H  300  1  0.28613400  0.10068100  0.09193600  1
  H  307  1  0.81986600  0.86988500  0.40869500  1
  H  308  1  0.84022200  0.87812700  0.31972300  1
  H  315  1  0.72363300  0.81200200  0.47509000  1
  H  316  1  0.74910100  0.81135600  0.38679900  1
  H  319  1  0.73040500  0.83512200  0.33803600  1
  H  320  1  0.78633600  0.89533200  0.44784400  1
  H  327  1  0.56914100  0.64037600  0.14266100  1
  H  328  1  0.59317300  0.55219000  0.15036700  1
  H  335  1  0.47100200  0.70421700  0.08521500  1
  H  336  1  0.49780300  0.61610200  0.08546700  1
  H  339  1  0.46904000  0.57523200  0.14813500  1
  H  340  1  0.53472300  0.67864000  0.16834400  1
  H  347  1  0.06917300  0.35578500  0.39707900  1
  H  348  1  0.09314500  0.44398600  0.38935500  1
  H  355  1  0.97106400  0.29188100  0.45454000  1
  H  356  1  0.99794800  0.38003200  0.45435500  1
  H  359  1  0.96896800  0.42083800  0.39176800  1
  H  360  1  0.03463900  0.31759700  0.37129600  1
  H  367  1  0.31952500  0.37195300  0.12775600  1
  H  368  1  0.34351800  0.37801200  0.21598800  1
  H  375  1  0.22275300  0.31383500  0.06313600  1
  H  376  1  0.25179900  0.31287900  0.15069000  1
  H  379  1  0.21938400  0.37540500  0.19309000  1
  H  380  1  0.28347700  0.39908800  0.09103000  1
  H  387  1  0.81964300  0.62433300  0.41200300  1
  H  388  1  0.84362300  0.61821200  0.32378000  1
  H  395  1  0.72226800  0.68214800  0.47653500  1
  H  396  1  0.75171100  0.68326900  0.38903400  1
  H  399  1  0.71949700  0.62066900  0.34662100  1
  H  400  1  0.78379500  0.59725700  0.44879000  1
  H  407  1  0.99169100  0.63717600  0.39773400  1
  H  408  1  0.97093600  0.54811700  0.38973000  1
  H  415  1  0.08887800  0.70335200  0.45519100  1
  H  416  1  0.06226500  0.61523100  0.45626200  1
  H  419  1  0.08087700  0.56625600  0.43258600  1
  H  420  1  0.02577700  0.67610500  0.37215100  1
  H  427  1  0.49152900  0.35898200  0.14196900  1
  H  428  1  0.47092300  0.44805500  0.15006300  1
  H  435  1  0.58872500  0.29271100  0.08452500  1
  H  436  1  0.56212300  0.38088400  0.08340600  1
  H  439  1  0.58077700  0.42983500  0.10709100  1
  H  440  1  0.52561200  0.32006900  0.16759100  1
  H  447  1  0.24107700  0.37090000  0.40891200  1
  H  448  1  0.22063900  0.37762300  0.31977300  1
  H  455  1  0.33800100  0.31353900  0.47585600  1
  H  456  1  0.30833200  0.31083000  0.38849200  1
  H  459  1  0.32990900  0.33404200  0.33927700  1
  H  460  1  0.27647300  0.39798700  0.44626900  1
  H  467  1  0.74107800  0.62514800  0.13084100  1
  H  468  1  0.72068900  0.61835300  0.21998000  1
  H  475  1  0.83737800  0.68297800  0.06390100  1
  H  476  1  0.80821500  0.68531700  0.15142800  1
  H  479  1  0.82984900  0.66206700  0.20051900  1
  H  480  1  0.77667800  0.59803700  0.09352700  1
  H  487  1  0.49082100  0.35594300  0.89771900  1
  H  488  1  0.46724800  0.44431200  0.89071100  1
  H  495  1  0.59143600  0.29177700  0.95409800  1
  H  496  1  0.55938300  0.37871200  0.95630000  1
  H  499  1  0.59119500  0.42106800  0.89373600  1
  H  500  1  0.52600200  0.31812900  0.87171300  1
  H  507  1  0.99076400  0.64025200  0.64202700  1
  H  508  1  0.96729700  0.55186400  0.64906900  1
  H  515  1  0.09120900  0.70444500  0.58546400  1
  H  516  1  0.05942300  0.61740100  0.58344400  1
  H  519  1  0.09128000  0.57529100  0.64590400  1
  H  520  1  0.02588700  0.67811200  0.66795900  1
  H  527  1  0.74208000  0.62421200  0.91211200  1
  H  528  1  0.71782000  0.61769300  0.82396800  1
  H  535  1  0.84048000  0.68190500  0.97612800  1
  H  536  1  0.81015000  0.68281500  0.88890000  1
  H  539  1  0.84200300  0.62007300  0.84657500  1
  H  540  1  0.77738400  0.59830900  0.94996100  1
  H  547  1  0.24201500  0.37204200  0.62760800  1
  H  548  1  0.21777100  0.37856600  0.71574600  1
  H  555  1  0.34054500  0.31437100  0.56362300  1
  H  556  1  0.31009700  0.31343900  0.65086800  1
  H  559  1  0.34195100  0.37617600  0.69320200  1
  H  560  1  0.27734000  0.39795600  0.58977100  1
  H  567  1  0.07029400  0.35913400  0.64141000  1
  H  568  1  0.09051000  0.44838100  0.64882800  1
  H  575  1  0.97092600  0.29262600  0.58482600  1
  H  576  1  0.00245500  0.37963300  0.58152000  1
  H  579  1  0.98143500  0.42898800  0.60474100  1
  H  580  1  0.03547800  0.32060600  0.66723900  1
  H  587  1  0.57038300  0.63709800  0.89837300  1
  H  588  1  0.59053000  0.54785400  0.89084600  1
  H  595  1  0.47109900  0.70357600  0.95510100  1
  H  596  1  0.50244200  0.61648300  0.95822800  1
  H  599  1  0.48147500  0.56721200  0.93494500  1
  H  600  1  0.53563200  0.67566800  0.87261300  1
  H  607  1  0.81898800  0.62493100  0.63058200  1
  H  608  1  0.84010800  0.61802500  0.71959500  1
  H  615  1  0.72116300  0.68247400  0.56437400  1
  H  616  1  0.75169200  0.68479800  0.65152300  1
  H  619  1  0.73058500  0.66148300  0.70077600  1
  H  620  1  0.78394500  0.59908000  0.59214200  1
  H  627  1  0.31900400  0.37127300  0.90914500  1
  H  628  1  0.34008900  0.37826200  0.82013500  1
  H  635  1  0.22108700  0.31369800  0.97528800  1
  H  636  1  0.25165200  0.31143900  0.88811400  1
  H  639  1  0.23058000  0.33479800  0.83892000  1
  H  640  1  0.28397800  0.39709600  0.94761100  1
  H  647  1  0.93639600  0.27247800  0.64126500  1
  H  650  1  0.06055500  0.20298700  0.62656900  1
  H  657  1  0.43653600  0.72374800  0.89934100  1
  H  660  1  0.56114100  0.79323500  0.91298500  1
  H  667  1  0.68847000  0.86882500  0.49566200  1
  H  670  1  0.81233300  0.85281300  0.56539300  1
  H  677  1  0.18829300  0.12692500  0.04409100  1
  H  680  1  0.31184700  0.14451600  0.97448900  1
  H  687  1  0.62527900  0.27008200  0.89867000  1
  H  690  1  0.49973300  0.20218700  0.91268900  1
  H  697  1  0.12513800  0.72608600  0.64029300  1
  H  700  1  0.99924100  0.79409200  0.62737100  1
  H  707  1  0.87327500  0.86863200  0.04170500  1
  H  710  1  0.74794500  0.85339200  0.97362800  1
  H  717  1  0.37330000  0.12715500  0.49810000  1
  H  720  1  0.24831000  0.14388200  0.56614200  1
  H  727  1  0.12482800  0.72357700  0.39919600  1
  H  730  1  0.00098300  0.79379100  0.41171200  1
  H  737  1  0.62464500  0.27262800  0.14030700  1
  H  740  1  0.50085400  0.20215700  0.12710500  1
  H  747  1  0.43561900  0.72592900  0.14035500  1
  H  750  1  0.56048100  0.79497900  0.12697300  1
  H  757  1  0.93559300  0.27031600  0.39921400  1
  H  760  1  0.06101300  0.20162700  0.41100300  1
  H  767  1  0.18519600  0.36945700  0.99570800  1
  H  770  1  0.30991100  0.35694700  0.06478200  1
  H  777  1  0.68516700  0.62693800  0.54388400  1
  H  780  1  0.80984500  0.64047800  0.47473400  1
  H  787  1  0.37600100  0.36939200  0.54184300  1
  H  790  1  0.25044200  0.35591900  0.47375500  1
  H  797  1  0.87602800  0.62683800  0.99793800  1
  H  800  1  0.74987600  0.63873200  0.06557400  1
  H  807  1  0.94967800  0.12178700  0.54378000  1
  H  810  1  0.04092600  0.19596200  0.48045500  1
  H  817  1  0.44957400  0.87426600  0.99597000  1
  H  820  1  0.54086800  0.79998900  0.05992000  1
  H  827  1  0.69630800  0.77145100  0.64426100  1
  H  830  1  0.79076100  0.70437700  0.57480100  1
  H  837  1  0.19598400  0.22477500  0.89551500  1
  H  840  1  0.29074900  0.29188500  0.96466500  1
  H  847  1  0.61122700  0.12186100  0.99744400  1
  H  850  1  0.52007400  0.19583800  0.06107900  1
  H  857  1  0.11141600  0.87418200  0.54243900  1
  H  860  1  0.01950600  0.80053800  0.47853300  1
  H  867  1  0.86481800  0.77016000  0.89573400  1
  H  870  1  0.77011300  0.70253800  0.96443600  1
  H  877  1  0.36465800  0.22614600  0.64427600  1
  H  880  1  0.27012000  0.29348000  0.57523700  1
  H  887  1  0.36165300  0.22481700  0.39312600  1
  H  890  1  0.27150100  0.28781900  0.46872000  1
  H  897  1  0.86221400  0.77137500  0.14646400  1
  H  900  1  0.77067500  0.70836400  0.07143800  1
  H  907  1  0.19859600  0.22617000  0.14625800  1
  H  910  1  0.29065000  0.28957600  0.07204400  1
  H  917  1  0.69848800  0.76998000  0.39349000  1
  H  920  1  0.79025900  0.70644600  0.46774600  1
  H  927  1  0.44671800  0.62232800  0.04388100  1
  H  930  1  0.53981000  0.69427200  0.97913900  1
  H  937  1  0.94708200  0.37394300  0.49589800  1
  H  940  1  0.03930700  0.30100100  0.56091500  1
  H  947  1  0.11363500  0.62193300  0.49728700  1
  H  950  1  0.02222300  0.69553400  0.56225400  1
  H  957  1  0.61319500  0.37438000  0.04241800  1
  H  960  1  0.52239500  0.30030800  0.97746200  1
  H  967  1  0.17859500  0.08528300  0.70294800  1
  H  970  1  0.11429000  0.12316000  0.59785900  1
  H  977  1  0.67860000  0.91096700  0.83686500  1
  H  980  1  0.61374500  0.87262300  0.94193300  1
  H  987  1  0.92882600  0.93035900  0.68385800  1
  H  990  1  0.86505800  0.82492500  0.64486900  1
  H  997  1  0.42880600  0.06582100  0.85609900  1
  H  1000  1  0.36517900  0.17140100  0.89473500  1
  H  1007  1  0.88190200  0.91202500  0.33714900  1
  H  1010  1  0.94608700  0.87291700  0.44177600  1
  H  1017  1  0.38191600  0.08412700  0.20260800  1
  H  1020  1  0.44662400  0.12373100  0.09799600  1
  H  1027  1  0.13243300  0.06488100  0.35662100  1
  H  1030  1  0.19642900  0.17073400  0.39419100  1
  H  1037  1  0.63245600  0.93136600  0.18302800  1
  H  1040  1  0.69638400  0.82542400  0.14573500  1
  H  1047  1  0.67831400  0.58491400  0.20321100  1
  H  1050  1  0.61464800  0.62238300  0.09770500  1
  H  1057  1  0.17831200  0.41109700  0.33650000  1
  H  1060  1  0.11402500  0.37331100  0.44201000  1
  H  1067  1  0.42949700  0.43052600  0.18413800  1
  H  1070  1  0.36416800  0.32626900  0.14402100  1
  H  1077  1  0.92952400  0.56565000  0.35566200  1
  H  1080  1  0.86444500  0.67006500  0.39552100  1
  H  1087  1  0.38209400  0.41198300  0.83736500  1
  H  1090  1  0.44506800  0.37375900  0.94286500  1
  H  1097  1  0.88209000  0.58428600  0.70241000  1
  H  1100  1  0.94569700  0.62290200  0.59693000  1
  H  1107  1  0.63224900  0.56484000  0.85691500  1
  H  1110  1  0.69754500  0.66989200  0.89509300  1
  H  1117  1  0.13222100  0.43143000  0.68276500  1
  H  1120  1  0.19739800  0.32627400  0.64486400  1
  H  1127  1  0.05485500  0.97245500  0.67972100  1
  H  1130  1  0.01951700  0.04501000  0.58364200  1
  H  1137  1  0.55452900  0.02376000  0.86012800  1
  H  1140  1  0.51897900  0.95063400  0.95615400  1
  H  1147  1  0.80426100  0.90668100  0.79562000  1
  H  1150  1  0.76938300  0.81048600  0.72238700  1
  H  1157  1  0.30430300  0.08954700  0.74418900  1
  H  1160  1  0.26966200  0.18584300  0.81727600  1
  H  1167  1  0.00749000  0.02378000  0.36049800  1
  H  1170  1  0.03959000  0.95098000  0.45721500  1
  H  1177  1  0.50780100  0.97246800  0.17929800  1
  H  1180  1  0.54018500  0.04577700  0.08260100  1
  H  1187  1  0.25747600  0.08812000  0.24439600  1
  H  1190  1  0.29085400  0.18487000  0.31742500  1
  H  1197  1  0.75736400  0.90802400  0.29543500  1
  H  1200  1  0.79063100  0.81127300  0.22246400  1
  H  1207  1  0.55375900  0.47253300  0.17993400  1
  H  1210  1  0.52078900  0.54522600  0.08332100  1
  H  1217  1  0.05344800  0.52357800  0.35971200  1
  H  1220  1  0.02030800  0.45041000  0.45635800  1
  H  1227  1  0.30406500  0.40729700  0.29563200  1
  H  1230  1  0.26988400  0.31107400  0.22224500  1
  H  1237  1  0.80420300  0.58879800  0.24416200  1
  H  1240  1  0.77005000  0.68514600  0.31731100  1
  H  1247  1  0.50755000  0.52380000  0.86139500  1
  H  1250  1  0.53950300  0.45095700  0.95810900  1
  H  1257  1  0.00788800  0.47243300  0.67841200  1
  H  1260  1  0.03996800  0.54581600  0.58170800  1
  H  1267  1  0.75652500  0.58847900  0.74418300  1
  H  1270  1  0.79180400  0.68455900  0.81737800  1
  H  1277  1  0.25650400  0.40781000  0.79553100  1
  H  1280  1  0.29153500  0.31161000  0.72250000  1
  H  1287  1  0.59741200  0.03181500  0.64310900  1
  H  1288  1  0.62177900  0.94366620  0.65019500  1
  H  1295  1  0.50291600  0.09620300  0.58468500  1
  H  1296  1  0.52672000  0.00750200  0.58572700  1
  H  1299  1  0.49762800  0.96614820  0.64867900  1
  H  1300  1  0.56248800  0.06903600  0.67004400  1
  H  1307  1  0.09752900  0.74719900  0.89672400  1
  H  1308  1  0.12173100  0.83538000  0.88966000  1
  H  1315  1  0.00329300  0.68265700  0.95522300  1
  H  1316  1  0.02680400  0.77145700  0.95415200  1
  H  1319  1  0.99756435  0.81268900  0.89130700  1
  H  1320  1  0.06262300  0.71003300  0.86973000  1
  H  1327  1  0.34859600  0.76130600  0.62803700  1
  H  1328  1  0.37215900  0.76840300  0.71622800  1
  H  1335  1  0.25407200  0.70312100  0.56320000  1
  H  1336  1  0.27673200  0.70415700  0.65197200  1
  H  1339  1  0.24817800  0.76701200  0.69278400  1
  H  1340  1  0.31438900  0.78815600  0.59050800  1
  H  1347  1  0.84862000  0.01773000  0.91179500  1
  H  1348  1  0.87221000  0.01058500  0.82362100  1
  H  1355  1  0.75371100  0.07590300  0.97651600  1
  H  1356  1  0.77665000  0.07483200  0.88775000  1
  H  1359  1  0.74822000  0.01197100  0.84698400  1
  H  1360  1  0.81449500  0.99103821  0.94945700  1
  H  1367  1  0.02045100  0.02880200  0.89719400  1
  H  1368  1  0.99915735  0.93980220  0.88970500  1
  H  1375  1  0.11376300  0.09539500  0.95589900  1
  H  1376  1  0.09013700  0.00668800  0.95607700  1
  H  1379  1  0.10915200  0.95775820  0.93247200  1
  H  1380  1  0.05516600  0.06656000  0.87046900  1
  H  1387  1  0.52040600  0.75016700  0.64269100  1
  H  1388  1  0.49920900  0.83917200  0.65026400  1
  H  1395  1  0.61347000  0.68353600  0.58385400  1
  H  1396  1  0.59010100  0.77233000  0.58381100  1
  H  1399  1  0.60915300  0.82119200  0.60745500  1
  H  1400  1  0.55511100  0.71245200  0.66943900  1
  H  1407  1  0.26931800  0.76091700  0.90875200  1
  H  1408  1  0.24879100  0.76842700  0.81974900  1
  H  1415  1  0.36256800  0.70230100  0.97572100  1
  H  1416  1  0.34012300  0.70222800  0.88694000  1
  H  1419  1  0.35877800  0.72583000  0.83818100  1
  H  1420  1  0.30331900  0.78748400  0.94685200  1
  H  1427  1  0.76924000  0.01816600  0.63106400  1
  H  1428  1  0.74881500  0.01056500  0.72007400  1
  H  1435  1  0.86286300  0.07667800  0.56411100  1
  H  1436  1  0.84014900  0.07680400  0.65288500  1
  H  1439  1  0.85877700  0.05317200  0.70161100  1
  H  1440  1  0.80313400  0.99169721  0.59282700  1
  H  1447  1  0.52008300  0.74727400  0.39628500  1
  H  1448  1  0.49599100  0.83557200  0.38986500  1
  H  1455  1  0.61660500  0.68273600  0.45446200  1
  H  1456  1  0.58741800  0.77036200  0.45547300  1
  H  1459  1  0.62015500  0.81281700  0.39306500  1
  H  1460  1  0.55626600  0.71071000  0.36917200  1
  H  1467  1  0.01993800  0.03167400  0.14340100  1
  H  1468  1  0.99603435  0.94334220  0.14984600  1
  H  1475  1  0.11686700  0.09631000  0.08551700  1
  H  1476  1  0.08743300  0.00870200  0.08427600  1
  H  1479  1  0.12019900  0.96633020  0.14661800  1
  H  1480  1  0.05592800  0.06827400  0.17051100  1
  H  1487  1  0.76965400  0.01711300  0.41183400  1
  H  1488  1  0.74614000  0.00931900  0.32368000  1
  H  1495  1  0.86732400  0.07460600  0.47600100  1
  H  1496  1  0.84118600  0.07426300  0.38784300  1
  H  1499  1  0.87016600  0.01146700  0.34721100  1
  H  1500  1  0.80357200  0.99144221  0.45032200  1
  H  1507  1  0.26968400  0.76188100  0.12792900  1
  H  1508  1  0.24608000  0.76965000  0.21606100  1
  H  1515  1  0.36739100  0.70432100  0.06387700  1
  H  1516  1  0.34130600  0.70480500  0.15207700  1
  H  1519  1  0.37013500  0.76762800  0.19266700  1
  H  1520  1  0.30356000  0.78750200  0.08943900  1
  H  1527  1  0.09807900  0.75038900  0.14255700  1
  H  1528  1  0.11875000  0.83958200  0.14959900  1
  H  1535  1  0.00166400  0.68362300  0.08486100  1
  H  1536  1  0.03122500  0.77112000  0.08234300  1
  H  1539  1  0.00967900  0.82037600  0.10552200  1
  H  1540  1  0.06252400  0.71315300  0.16950700  1
  H  1547  1  0.59811400  0.02861500  0.39715000  1
  H  1548  1  0.61867700  0.93941320  0.39002100  1
  H  1555  1  0.50183300  0.09542300  0.45497800  1
  H  1556  1  0.53143500  0.00789800  0.45752300  1
  H  1559  1  0.50978300  0.95866620  0.43435000  1
  H  1560  1  0.56229600  0.06571900  0.37005300  1
  H  1567  1  0.84822500  0.01751500  0.13106700  1
  H  1568  1  0.86872800  0.00943100  0.22003000  1
  H  1575  1  0.75207100  0.07544900  0.06471300  1
  H  1576  1  0.77761400  0.07609600  0.15294900  1
  H  1579  1  0.75886100  0.05237900  0.20175100  1
  H  1580  1  0.81461100  0.99206421  0.09193600  1
  H  1587  1  0.34834300  0.76126800  0.40869500  1
  H  1588  1  0.36869900  0.76951000  0.31972300  1
  H  1595  1  0.25211000  0.70338500  0.47509000  1
  H  1596  1  0.27757800  0.70273900  0.38679900  1
  H  1599  1  0.25888200  0.72650500  0.33803600  1
  H  1600  1  0.31481300  0.78671500  0.44784400  1
  H  1607  1  0.09761800  0.53175900  0.14266100  1
  H  1608  1  0.12165000  0.44357300  0.15036700  1
  H  1615  1  0.99947935  0.59560000  0.08521500  1
  H  1616  1  0.02628000  0.50748500  0.08546700  1
  H  1619  1  0.99751735  0.46661500  0.14813500  1
  H  1620  1  0.06320000  0.57002300  0.16834400  1
  H  1627  1  0.59765000  0.24716800  0.39707900  1
  H  1628  1  0.62162200  0.33536900  0.38935500  1
  H  1635  1  0.49954100  0.18326400  0.45454000  1
  H  1636  1  0.52642500  0.27141500  0.45435500  1
  H  1639  1  0.49744500  0.31222100  0.39176800  1
  H  1640  1  0.56311600  0.20898000  0.37129600  1
  H  1647  1  0.84800200  0.26333600  0.12775600  1
  H  1648  1  0.87199500  0.26939500  0.21598800  1
  H  1655  1  0.75123000  0.20521800  0.06313600  1
  H  1656  1  0.78027600  0.20426200  0.15069000  1
  H  1659  1  0.74786100  0.26678800  0.19309000  1
  H  1660  1  0.81195400  0.29047100  0.09103000  1
  H  1667  1  0.34812000  0.51571600  0.41200300  1
  H  1668  1  0.37210000  0.50959500  0.32378000  1
  H  1675  1  0.25074500  0.57353100  0.47653500  1
  H  1676  1  0.28018800  0.57465200  0.38903400  1
  H  1679  1  0.24797400  0.51205200  0.34662100  1
  H  1680  1  0.31227200  0.48864000  0.44879000  1
  H  1687  1  0.52016800  0.52855900  0.39773400  1
  H  1688  1  0.49941300  0.43950000  0.38973000  1
  H  1695  1  0.61735500  0.59473500  0.45519100  1
  H  1696  1  0.59074200  0.50661400  0.45626200  1
  H  1699  1  0.60935400  0.45763900  0.43258600  1
  H  1700  1  0.55425400  0.56748800  0.37215100  1
  H  1707  1  0.02000600  0.25036500  0.14196900  1
  H  1708  1  0.99940035  0.33943800  0.15006300  1
  H  1715  1  0.11720200  0.18409400  0.08452500  1
  H  1716  1  0.09060000  0.27226700  0.08340600  1
  H  1719  1  0.10925400  0.32121800  0.10709100  1
  H  1720  1  0.05408900  0.21145200  0.16759100  1
  H  1727  1  0.76955400  0.26228300  0.40891200  1
  H  1728  1  0.74911600  0.26900600  0.31977300  1
  H  1735  1  0.86647800  0.20492200  0.47585600  1
  H  1736  1  0.83680900  0.20221300  0.38849200  1
  H  1739  1  0.85838600  0.22542500  0.33927700  1
  H  1740  1  0.80495000  0.28937000  0.44626900  1
  H  1747  1  0.26955500  0.51653100  0.13084100  1
  H  1748  1  0.24916600  0.50973600  0.21998000  1
  H  1755  1  0.36585500  0.57436100  0.06390100  1
  H  1756  1  0.33669200  0.57670000  0.15142800  1
  H  1759  1  0.35832600  0.55345000  0.20051900  1
  H  1760  1  0.30515500  0.48942000  0.09352700  1
  H  1767  1  0.01929800  0.24732600  0.89771900  1
  H  1768  1  0.99572535  0.33569500  0.89071100  1
  H  1775  1  0.11991300  0.18316000  0.95409800  1
  H  1776  1  0.08786000  0.27009500  0.95630000  1
  H  1779  1  0.11967200  0.31245100  0.89373600  1
  H  1780  1  0.05447900  0.20951200  0.87171300  1
  H  1787  1  0.51924100  0.53163500  0.64202700  1
  H  1788  1  0.49577400  0.44324700  0.64906900  1
  H  1795  1  0.61968600  0.59582800  0.58546400  1
  H  1796  1  0.58790000  0.50878400  0.58344400  1
  H  1799  1  0.61975700  0.46667400  0.64590400  1
  H  1800  1  0.55436400  0.56949500  0.66795900  1
  H  1807  1  0.27055700  0.51559500  0.91211200  1
  H  1808  1  0.24629700  0.50907600  0.82396800  1
  H  1815  1  0.36895700  0.57328800  0.97612800  1
  H  1816  1  0.33862700  0.57419800  0.88890000  1
  H  1819  1  0.37048000  0.51145600  0.84657500  1
  H  1820  1  0.30586100  0.48969200  0.94996100  1
  H  1827  1  0.77049200  0.26342500  0.62760800  1
  H  1828  1  0.74624800  0.26994900  0.71574600  1
  H  1835  1  0.86902200  0.20575400  0.56362300  1
  H  1836  1  0.83857400  0.20482200  0.65086800  1
  H  1839  1  0.87042800  0.26755900  0.69320200  1
  H  1840  1  0.80581700  0.28933900  0.58977100  1
  H  1847  1  0.59877100  0.25051700  0.64141000  1
  H  1848  1  0.61898700  0.33976400  0.64882800  1
  H  1855  1  0.49940300  0.18400900  0.58482600  1
  H  1856  1  0.53093200  0.27101600  0.58152000  1
  H  1859  1  0.50991200  0.32037100  0.60474100  1
  H  1860  1  0.56395500  0.21198900  0.66723900  1
  H  1867  1  0.09886000  0.52848100  0.89837300  1
  H  1868  1  0.11900700  0.43923700  0.89084600  1
  H  1875  1  0.99957635  0.59495900  0.95510100  1
  H  1876  1  0.03091900  0.50786600  0.95822800  1
  H  1879  1  0.00995200  0.45859500  0.93494500  1
  H  1880  1  0.06410900  0.56705100  0.87261300  1
  H  1887  1  0.34746500  0.51631400  0.63058200  1
  H  1888  1  0.36858500  0.50940800  0.71959500  1
  H  1895  1  0.24964000  0.57385700  0.56437400  1
  H  1896  1  0.28016900  0.57618100  0.65152300  1
  H  1899  1  0.25906200  0.55286600  0.70077600  1
  H  1900  1  0.31242200  0.49046300  0.59214200  1
  H  1907  1  0.84748100  0.26265600  0.90914500  1
  H  1908  1  0.86856600  0.26964500  0.82013500  1
  H  1915  1  0.74956400  0.20508100  0.97528800  1
  H  1916  1  0.78012900  0.20282200  0.88811400  1
  H  1919  1  0.75905700  0.22618100  0.83892000  1
  H  1920  1  0.81245500  0.28847900  0.94761100  1
  H  1927  1  0.46487300  0.16386100  0.64126500  1
  H  1930  1  0.58903200  0.09437000  0.62656900  1
  H  1937  1  0.96501330  0.61513100  0.89934100  1
  H  1940  1  0.08961800  0.68461800  0.91298500  1
  H  1947  1  0.21694700  0.76020800  0.49566200  1
  H  1950  1  0.34081000  0.74419600  0.56539300  1
  H  1957  1  0.71677000  0.01830800  0.04409100  1
  H  1960  1  0.84032400  0.03589900  0.97448900  1
  H  1967  1  0.15375600  0.16146500  0.89867000  1
  H  1970  1  0.02821000  0.09357000  0.91268900  1
  H  1977  1  0.65361500  0.61746900  0.64029300  1
  H  1980  1  0.52771800  0.68547500  0.62737100  1
  H  1987  1  0.40175200  0.76001500  0.04170500  1
  H  1990  1  0.27642200  0.74477500  0.97362800  1
  H  1997  1  0.90177730  0.01853800  0.49810000  1
  H  2000  1  0.77678700  0.03526500  0.56614200  1
  H  2007  1  0.65330500  0.61496000  0.39919600  1
  H  2010  1  0.52946000  0.68517400  0.41171200  1
  H  2017  1  0.15312200  0.16401100  0.14030700  1
  H  2020  1  0.02933100  0.09354000  0.12710500  1
  H  2027  1  0.96409630  0.61731200  0.14035500  1
  H  2030  1  0.08895800  0.68636200  0.12697300  1
  H  2037  1  0.46407000  0.16169900  0.39921400  1
  H  2040  1  0.58949000  0.09301000  0.41100300  1
  H  2047  1  0.71367300  0.26084000  0.99570800  1
  H  2050  1  0.83838800  0.24833000  0.06478200  1
  H  2057  1  0.21364400  0.51832100  0.54388400  1
  H  2060  1  0.33832200  0.53186100  0.47473400  1
  H  2067  1  0.90447830  0.26077500  0.54184300  1
  H  2070  1  0.77891900  0.24730200  0.47375500  1
  H  2077  1  0.40450500  0.51822100  0.99793800  1
  H  2080  1  0.27835300  0.53011500  0.06557400  1
  H  2087  1  0.47815500  0.01317000  0.54378000  1
  H  2090  1  0.56940300  0.08734500  0.48045500  1
  H  2097  1  0.97805130  0.76564900  0.99597000  1
  H  2100  1  0.06934500  0.69137200  0.05992000  1
  H  2107  1  0.22478500  0.66283400  0.64426100  1
  H  2110  1  0.31923800  0.59576000  0.57480100  1
  H  2117  1  0.72446100  0.11615800  0.89551500  1
  H  2120  1  0.81922600  0.18326800  0.96466500  1
  H  2127  1  0.13970400  0.01324400  0.99744400  1
  H  2130  1  0.04855100  0.08722100  0.06107900  1
  H  2137  1  0.63989300  0.76556500  0.54243900  1
  H  2140  1  0.54798300  0.69192100  0.47853300  1
  H  2147  1  0.39329500  0.66154300  0.89573400  1
  H  2150  1  0.29859000  0.59392100  0.96443600  1
  H  2157  1  0.89313500  0.11752900  0.64427600  1
  H  2160  1  0.79859700  0.18486300  0.57523700  1
  H  2167  1  0.89013000  0.11620000  0.39312600  1
  H  2170  1  0.79997800  0.17920200  0.46872000  1
  H  2177  1  0.39069100  0.66275800  0.14646400  1
  H  2180  1  0.29915200  0.59974700  0.07143800  1
  H  2187  1  0.72707300  0.11755300  0.14625800  1
  H  2190  1  0.81912700  0.18095900  0.07204400  1
  H  2197  1  0.22696500  0.66136300  0.39349000  1
  H  2200  1  0.31873600  0.59782900  0.46774600  1
  H  2207  1  0.97519530  0.51371100  0.04388100  1
  H  2210  1  0.06828700  0.58565500  0.97913900  1
  H  2217  1  0.47555900  0.26532600  0.49589800  1
  H  2220  1  0.56778400  0.19238400  0.56091500  1
  H  2227  1  0.64211200  0.51331600  0.49728700  1
  H  2230  1  0.55070000  0.58691700  0.56225400  1
  H  2237  1  0.14167200  0.26576300  0.04241800  1
  H  2240  1  0.05087200  0.19169100  0.97746200  1
  H  2247  1  0.70707200  0.97666620  0.70294800  1
  H  2250  1  0.64276700  0.01454300  0.59785900  1
  H  2257  1  0.20707700  0.80235000  0.83686500  1
  H  2260  1  0.14222200  0.76400600  0.94193300  1
  H  2267  1  0.45730300  0.82174200  0.68385800  1
  H  2270  1  0.39353500  0.71630800  0.64486900  1
  H  2277  1  0.95728330  0.95720420  0.85609900  1
  H  2280  1  0.89365600  0.06278400  0.89473500  1
  H  2287  1  0.41037900  0.80340800  0.33714900  1
  H  2290  1  0.47456400  0.76430000  0.44177600  1
  H  2297  1  0.91039330  0.97551020  0.20260800  1
  H  2300  1  0.97510130  0.01511400  0.09799600  1
  H  2307  1  0.66091000  0.95626420  0.35662100  1
  H  2310  1  0.72490600  0.06211700  0.39419100  1
  H  2317  1  0.16093300  0.82274900  0.18302800  1
  H  2320  1  0.22486100  0.71680700  0.14573500  1
  H  2327  1  0.20679100  0.47629700  0.20321100  1
  H  2330  1  0.14312500  0.51376600  0.09770500  1
  H  2337  1  0.70678900  0.30248000  0.33650000  1
  H  2340  1  0.64250200  0.26469400  0.44201000  1
  H  2347  1  0.95797430  0.32190900  0.18413800  1
  H  2350  1  0.89264500  0.21765200  0.14402100  1
  H  2357  1  0.45800100  0.45703300  0.35566200  1
  H  2360  1  0.39292200  0.56144800  0.39552100  1
  H  2367  1  0.91057130  0.30336600  0.83736500  1
  H  2370  1  0.97354530  0.26514200  0.94286500  1
  H  2377  1  0.41056700  0.47566900  0.70241000  1
  H  2380  1  0.47417400  0.51428500  0.59693000  1
  H  2387  1  0.16072600  0.45622300  0.85691500  1
  H  2390  1  0.22602200  0.56127500  0.89509300  1
  H  2397  1  0.66069800  0.32281300  0.68276500  1
  H  2400  1  0.72587500  0.21765700  0.64486400  1
  H  2407  1  0.58333200  0.86383800  0.67972100  1
  H  2410  1  0.54799400  0.93639320  0.58364200  1
  H  2417  1  0.08300600  0.91514320  0.86012800  1
  H  2420  1  0.04745600  0.84201700  0.95615400  1
  H  2427  1  0.33273800  0.79806400  0.79562000  1
  H  2430  1  0.29786000  0.70186900  0.72238700  1
  H  2437  1  0.83278000  0.98093020  0.74418900  1
  H  2440  1  0.79813900  0.07722600  0.81727600  1
  H  2447  1  0.53596700  0.91516320  0.36049800  1
  H  2450  1  0.56806700  0.84236300  0.45721500  1
  H  2457  1  0.03627800  0.86385100  0.17929800  1
  H  2460  1  0.06866200  0.93716020  0.08260100  1
  H  2467  1  0.78595300  0.97950320  0.24439600  1
  H  2470  1  0.81933100  0.07625300  0.31742500  1
  H  2477  1  0.28584100  0.79940700  0.29543500  1
  H  2480  1  0.31910800  0.70265600  0.22246400  1
  H  2487  1  0.08223600  0.36391600  0.17993400  1
  H  2490  1  0.04926600  0.43660900  0.08332100  1
  H  2497  1  0.58192500  0.41496100  0.35971200  1
  H  2500  1  0.54878500  0.34179300  0.45635800  1
  H  2507  1  0.83254200  0.29868000  0.29563200  1
  H  2510  1  0.79836100  0.20245700  0.22224500  1
  H  2517  1  0.33268000  0.48018100  0.24416200  1
  H  2520  1  0.29852700  0.57652900  0.31731100  1
  H  2527  1  0.03602700  0.41518300  0.86139500  1
  H  2530  1  0.06798000  0.34234000  0.95810900  1
  H  2537  1  0.53636500  0.36381600  0.67841200  1
  H  2540  1  0.56844500  0.43719900  0.58170800  1
  H  2547  1  0.28500200  0.47986200  0.74418300  1
  H  2550  1  0.32028100  0.57594200  0.81737800  1
  H  2557  1  0.78498100  0.29919300  0.79553100  1
  H  2560  1  0.82001200  0.20299300  0.72250000  1
  C  1  1  0.02511200  0.11285700  0.63720600  1
  C  2  1  0.06050000  0.11930000  0.64337200  1
  C  3  1  0.08532500  0.09731800  0.64827900  1
  C  4  1  0.07463800  0.06811900  0.64748700  1
  C  5  1  0.03977100  0.06013800  0.64109200  1
  C  6  1  0.01509500  0.08292400  0.63595400  1
  C  9  1  0.00406100  0.13653100  0.62659000  1
  C  10  1  0.00266000  0.16426700  0.64061400  1
  C  11  1  0.99065300  0.18947500  0.62569400  1
  C  12  1  0.98091400  0.18655700  0.59633100  1
  C  13  1  0.98253300  0.15966400  0.58176900  1
  C  14  1  0.99362900  0.13485600  0.59716700  1
  C  21  1  0.52515100  0.88333500  0.90257500  1
  C  22  1  0.56056000  0.87693200  0.89641900  1
  C  23  1  0.58535600  0.89895300  0.89156900  1
  C  24  1  0.57462100  0.92813900  0.89237400  1
  C  25  1  0.53974200  0.93606700  0.89878100  1
  C  26  1  0.51510700  0.91325400  0.90391400  1
  C  29  1  0.50427600  0.85961500  0.91334600  1
  C  30  1  0.50285300  0.83190600  0.89926100  1
  C  31  1  0.49101800  0.80666400  0.91422800  1
  C  32  1  0.48121000  0.80955600  0.94358100  1
  C  33  1  0.48274300  0.83646500  0.95811500  1
  C  34  1  0.49382600  0.86129100  0.94275400  1
  C  41  1  0.77602800  0.86405100  0.65530000  1
  C  42  1  0.81149300  0.87017800  0.64908600  1
  C  43  1  0.83612100  0.87510800  0.67119600  1
  C  44  1  0.82517700  0.87429300  0.70028800  1
  C  45  1  0.79023900  0.86789100  0.70802000  1
  C  46  1  0.76574200  0.86281600  0.68513200  1
  C  49  1  0.75506800  0.85357900  0.63153200  1
  C  50  1  0.75411000  0.86759600  0.60380500  1
  C  51  1  0.74214400  0.85271300  0.57858400  1
  C  52  1  0.73194500  0.82341400  0.58145900  1
  C  53  1  0.73287700  0.80896200  0.60839800  1
  C  54  1  0.74404900  0.82426500  0.63321200  1
  C  61  1  0.27602700  0.13211900  0.88452000  1
  C  62  1  0.31150400  0.12603000  0.89075000  1
  C  63  1  0.33614400  0.12112500  0.86864500  1
  C  64  1  0.32521500  0.12193700  0.83954900  1
  C  65  1  0.29027800  0.12832800  0.83180000  1
  C  66  1  0.26577400  0.13340300  0.85468500  1
  C  69  1  0.25516000  0.14273500  0.90829400  1
  C  70  1  0.25414100  0.12869900  0.93601800  1
  C  71  1  0.24208800  0.14360400  0.96120700  1
  C  72  1  0.23166800  0.17284400  0.95827800  1
  C  73  1  0.23265500  0.18725300  0.93132100  1
  C  74  1  0.24401600  0.17200300  0.90654500  1
  C  81  1  0.53621600  0.11080400  0.90406000  1
  C  82  1  0.50082000  0.11640200  0.89702600  1
  C  83  1  0.47669100  0.09398800  0.89101600  1
  C  84  1  0.48824400  0.06498300  0.89285900  1
  C  85  1  0.52307900  0.05809900  0.90016000  1
  C  86  1  0.54703500  0.08113800  0.90591700  1
  C  89  1  0.55633200  0.13499500  0.91480700  1
  C  90  1  0.55775700  0.16252500  0.90037800  1
  C  91  1  0.56947700  0.18799800  0.91502100  1
  C  92  1  0.57884700  0.18557800  0.94451300  1
  C  93  1  0.57721200  0.15890600  0.95944800  1
  C  94  1  0.56628300  0.13386100  0.94437000  1
  C  101  1  0.03622700  0.88537500  0.63591900  1
  C  102  1  0.00081300  0.87979100  0.64291600  1
  C  103  1  0.97670200  0.90221900  0.64892200  1
  C  104  1  0.98827800  0.93121800  0.64708800  1
  C  105  1  0.02311600  0.93808300  0.63978800  1
  C  106  1  0.04705300  0.91503100  0.63402100  1
  C  109  1  0.05619100  0.86116200  0.62500900  1
  C  110  1  0.05765000  0.83364200  0.63946000  1
  C  111  1  0.06921500  0.80815700  0.62474600  1
  C  112  1  0.07864500  0.81059100  0.59526600  1
  C  113  1  0.07707100  0.83729500  0.58038500  1
  C  114  1  0.06615500  0.86233700  0.59545900  1
  C  121  1  0.78533000  0.86269300  0.88243500  1
  C  122  1  0.74987300  0.86970500  0.88781800  1
  C  123  1  0.72594600  0.87576400  0.86529300  1
  C  124  1  0.73773100  0.87387900  0.83639700  1
  C  125  1  0.77262300  0.86656900  0.82973600  1
  C  126  1  0.79640700  0.86085900  0.85287400  1
  C  129  1  0.80534600  0.85204900  0.90670700  1
  C  130  1  0.80633200  0.86643700  0.93424500  1
  C  131  1  0.81798800  0.85179800  0.95971600  1
  C  132  1  0.82779400  0.82236200  0.95730400  1
  C  133  1  0.82684800  0.80756800  0.93056400  1
  C  134  1  0.81586300  0.82258300  0.90553300  1
  C  141  1  0.28531100  0.13352000  0.65735500  1
  C  142  1  0.24983200  0.12655800  0.65198700  1
  C  143  1  0.22592500  0.12050100  0.67452700  1
  C  144  1  0.23774000  0.12236900  0.70341900  1
  C  145  1  0.27263800  0.12966600  0.71006200  1
  C  146  1  0.29640000  0.13538600  0.68690800  1
  C  149  1  0.30521200  0.14428400  0.63306000  1
  C  150  1  0.30624400  0.12985500  0.60553500  1
  C  151  1  0.31797200  0.14449200  0.58008100  1
  C  152  1  0.32799700  0.17387300  0.58251800  1
  C  153  1  0.32698600  0.18866500  0.60925500  1
  C  154  1  0.31583700  0.17371200  0.63426800  1
  C  161  1  0.03528400  0.88338700  0.40307800  1
  C  162  1  0.00004300  0.87702700  0.39634500  1
  C  163  1  0.97533700  0.89910900  0.39146400  1
  C  164  1  0.98608400  0.92828400  0.39261200  1
  C  165  1  0.02086300  0.93613400  0.39946700  1
  C  166  1  0.04535900  0.91327500  0.40481300  1
  C  169  1  0.05598900  0.85963100  0.41384700  1
  C  170  1  0.05843300  0.83223300  0.39927900  1
  C  171  1  0.07103300  0.80698700  0.41380600  1
  C  172  1  0.08059200  0.80958200  0.44324500  1
  C  173  1  0.07597900  0.83571200  0.45869000  1
  C  174  1  0.06466000  0.86066200  0.44368300  1
  C  181  1  0.53523600  0.11285700  0.13672500  1
  C  182  1  0.49996400  0.11917200  0.14340300  1
  C  183  1  0.47529000  0.09705100  0.14822600  1
  C  184  1  0.48609300  0.06788900  0.14708900  1
  C  185  1  0.52089400  0.06009700  0.14025700  1
  C  186  1  0.54535000  0.08298500  0.13492800  1
  C  189  1  0.55581000  0.13665900  0.12586600  1
  C  190  1  0.55827800  0.16400900  0.14052600  1
  C  191  1  0.57092000  0.18926000  0.12603100  1
  C  192  1  0.58077200  0.18668100  0.09665700  1
  C  193  1  0.57610100  0.16059800  0.08114900  1
  C  194  1  0.56460900  0.13564700  0.09606700  1
  C  201  1  0.28523800  0.13153900  0.38453900  1
  C  202  1  0.24981600  0.12533000  0.39079100  1
  C  203  1  0.22523700  0.12015300  0.36870100  1
  C  204  1  0.23616000  0.12080700  0.33960300  1
  C  205  1  0.27104500  0.12733300  0.33184200  1
  C  206  1  0.29551200  0.13265700  0.35469400  1
  C  209  1  0.30627000  0.14204200  0.40825000  1
  C  210  1  0.30761900  0.12801500  0.43596600  1
  C  211  1  0.32124900  0.14248300  0.46082900  1
  C  212  1  0.33162500  0.17173600  0.45784800  1
  C  213  1  0.32941900  0.18649200  0.43111100  1
  C  214  1  0.31744500  0.17131200  0.40646600  1
  C  221  1  0.78528400  0.86480800  0.15525300  1
  C  222  1  0.74984700  0.87095800  0.14897200  1
  C  223  1  0.72523600  0.87607700  0.17105200  1
  C  224  1  0.73612600  0.87541200  0.20015600  1
  C  225  1  0.77101300  0.86892100  0.20794300  1
  C  226  1  0.79551100  0.86363800  0.18510400  1
  C  229  1  0.80624500  0.85416600  0.13155000  1
  C  230  1  0.80763100  0.86819400  0.10382800  1
  C  231  1  0.82123700  0.85367800  0.07897300  1
  C  232  1  0.83175400  0.82446700  0.08202200  1
  C  233  1  0.82957300  0.80978100  0.10879400  1
  C  234  1  0.81750800  0.82493500  0.13340800  1
  C  241  1  0.52540000  0.88543900  0.13504100  1
  C  242  1  0.56069100  0.88000800  0.14246800  1
  C  243  1  0.58461200  0.90258000  0.14847500  1
  C  244  1  0.57287900  0.93152500  0.14639900  1
  C  245  1  0.53809700  0.93819600  0.13874000  1
  C  246  1  0.51441100  0.91502200  0.13281100  1
  C  249  1  0.50554900  0.86114400  0.12431500  1
  C  250  1  0.50318800  0.83397500  0.13931500  1
  C  251  1  0.49052500  0.80851800  0.12519800  1
  C  252  1  0.48091700  0.81062200  0.09573300  1
  C  253  1  0.48563200  0.83645900  0.07983500  1
  C  254  1  0.49705100  0.86162200  0.09442900  1
  C  261  1  0.02540500  0.11081900  0.40467900  1
  C  262  1  0.06069400  0.11623900  0.39721300  1
  C  263  1  0.08458900  0.09365100  0.39118800  1
  C  264  1  0.07283300  0.06471300  0.39327300  1
  C  265  1  0.03806100  0.05805900  0.40098600  1
  C  266  1  0.01441900  0.08124700  0.40697800  1
  C  269  1  0.00574600  0.13514500  0.41558700  1
  C  270  1  0.00326000  0.16226900  0.40051500  1
  C  271  1  0.99077200  0.18775400  0.41468700  1
  C  272  1  0.98113600  0.18565800  0.44414700  1
  C  273  1  0.98587400  0.15982900  0.46005700  1
  C  274  1  0.99732300  0.13466900  0.44547500  1
  C  281  1  0.27527800  0.13286200  0.15741800  1
  C  282  1  0.31071300  0.12584300  0.15199600  1
  C  283  1  0.33460900  0.11961000  0.17449700  1
  C  284  1  0.32283100  0.12131400  0.20340400  1
  C  285  1  0.28797300  0.12867300  0.21010400  1
  C  286  1  0.26421300  0.13457100  0.18699600  1
  C  289  1  0.25514200  0.14349100  0.13320600  1
  C  290  1  0.25385500  0.12911200  0.10566300  1
  C  291  1  0.24066300  0.14339300  0.08052200  1
  C  292  1  0.23063800  0.17277200  0.08303700  1
  C  293  1  0.23271800  0.18781700  0.10960300  1
  C  294  1  0.24442700  0.17290700  0.13448200  1
  C  301  1  0.77532800  0.86325600  0.38237800  1
  C  302  1  0.81078400  0.87023800  0.38777800  1
  C  303  1  0.83464600  0.87649500  0.36526000  1
  C  304  1  0.82282800  0.87482000  0.33636400  1
  C  305  1  0.78796200  0.86746400  0.32969000  1
  C  306  1  0.76423600  0.86153300  0.35281100  1
  C  309  1  0.75531500  0.85250400  0.40661400  1
  C  310  1  0.75401500  0.86691800  0.43414400  1
  C  311  1  0.74085000  0.85262900  0.45929500  1
  C  312  1  0.73066900  0.82328900  0.45676100  1
  C  313  1  0.73270200  0.80826300  0.43018200  1
  C  314  1  0.74449900  0.82312400  0.40531000  1
  C  321  1  0.52526400  0.61285700  0.13677000  1
  C  322  1  0.56064100  0.61926800  0.14302500  1
  C  323  1  0.58534600  0.59724400  0.14823000  1
  C  324  1  0.57459000  0.56806300  0.14750800  1
  C  325  1  0.53976800  0.56014100  0.14092700  1
  C  326  1  0.51518100  0.58293100  0.13560500  1
  C  329  1  0.50405000  0.63650100  0.12629800  1
  C  330  1  0.50232700  0.66420700  0.14037200  1
  C  331  1  0.48834100  0.68903200  0.12601600  1
  C  332  1  0.47828400  0.68606900  0.09670900  1
  C  333  1  0.48071000  0.65932500  0.08196100  1
  C  334  1  0.49290700  0.63469800  0.09706100  1
  C  341  1  0.02525900  0.38328900  0.40292800  1
  C  342  1  0.06064100  0.37688700  0.39667100  1
  C  343  1  0.08534400  0.39892500  0.39151600  1
  C  344  1  0.07457500  0.42810400  0.39223600  1
  C  345  1  0.03975000  0.43600300  0.39882500  1
  C  346  1  0.01517900  0.41320800  0.40416500  1
  C  349  1  0.00418700  0.35962100  0.41355000  1
  C  350  1  0.00235300  0.33196500  0.39938700  1
  C  351  1  0.98849800  0.30711400  0.41379100  1
  C  352  1  0.97835400  0.31004400  0.44307800  1
  C  353  1  0.98083500  0.33677500  0.45783700  1
  C  354  1  0.99308900  0.36141100  0.44278900  1
  C  361  1  0.27575500  0.36523200  0.15512700  1
  C  362  1  0.31104800  0.37186200  0.14885500  1
  C  363  1  0.33576100  0.37655200  0.17095600  1
  C  364  1  0.32494800  0.37538100  0.20008500  1
  C  365  1  0.29011500  0.36865600  0.20790000  1
  C  366  1  0.26564900  0.36346600  0.18498700  1
  C  369  1  0.25507100  0.35451200  0.13131200  1
  C  370  1  0.25269700  0.36904900  0.10389700  1
  C  371  1  0.23996900  0.35454200  0.07867800  1
  C  372  1  0.23035000  0.32507900  0.08131900  1
  C  373  1  0.23484000  0.30965300  0.10746000  1
  C  374  1  0.24621400  0.32467700  0.13236400  1
  C  381  1  0.77582100  0.63088300  0.38462800  1
  C  382  1  0.81114300  0.62434600  0.39090900  1
  C  383  1  0.83586500  0.61969800  0.36880700  1
  C  384  1  0.82504700  0.62084200  0.33967900  1
  C  385  1  0.79020100  0.62750900  0.33185500  1
  C  386  1  0.76572500  0.63267700  0.35476800  1
  C  389  1  0.75520700  0.64169500  0.40845600  1
  C  390  1  0.75279100  0.62709200  0.43583800  1
  C  391  1  0.73994300  0.64158200  0.46103100  1
  C  392  1  0.72997500  0.67096000  0.45835400  1
  C  393  1  0.73454600  0.68641900  0.43224300  1
  C  394  1  0.74615900  0.67147500  0.40737100  1
  C  401  1  0.03608300  0.61068700  0.40448400  1
  C  402  1  0.00065600  0.61619800  0.39747800  1
  C  403  1  0.97670200  0.59370300  0.39126000  1
  C  404  1  0.98840100  0.56473500  0.39298700  1
  C  405  1  0.02323900  0.55795300  0.40032900  1
  C  406  1  0.04706100  0.58104700  0.40620000  1
  C  409  1  0.05638400  0.63486900  0.41502300  1
  C  410  1  0.05803700  0.66236000  0.40052800  1
  C  411  1  0.07174000  0.68746800  0.41458900  1
  C  412  1  0.08159500  0.68502200  0.44399100  1
  C  413  1  0.07919600  0.65851500  0.45914800  1
  C  414  1  0.06713800  0.63364000  0.44439000  1
  C  421  1  0.53597800  0.38543300  0.13526300  1
  C  422  1  0.50054000  0.37994800  0.14226400  1
  C  423  1  0.47661800  0.40246600  0.14849500  1
  C  424  1  0.48835900  0.43142300  0.14676600  1
  C  425  1  0.52319900  0.43817300  0.13940000  1
  C  426  1  0.54698200  0.41505700  0.13350500  1
  C  429  1  0.55613500  0.36121100  0.12459900  1
  C  430  1  0.55784000  0.33375500  0.13915700  1
  C  431  1  0.57143900  0.30862500  0.12506100  1
  C  432  1  0.58144000  0.31105600  0.09569600  1
  C  433  1  0.57903800  0.33756100  0.08053800  1
  C  434  1  0.56691700  0.36244100  0.09524700  1
  C  441  1  0.28543200  0.36349400  0.38264700  1
  C  442  1  0.25007000  0.37079300  0.38795800  1
  C  443  1  0.22617700  0.37662400  0.36534000  1
  C  444  1  0.23801700  0.37453200  0.33645900  1
  C  445  1  0.27287600  0.36703300  0.32984800  1
  C  446  1  0.29650700  0.36126300  0.35310200  1
  C  449  1  0.30523800  0.35284600  0.40702400  1
  C  450  1  0.30751500  0.36786900  0.43417800  1
  C  451  1  0.32033500  0.35383200  0.45962900  1
  C  452  1  0.33006900  0.32435300  0.45751800  1
  C  453  1  0.32540400  0.30838200  0.43173300  1
  C  454  1  0.31390100  0.32295400  0.40659400  1
  C  461  1  0.78546400  0.63251000  0.15709900  1
  C  462  1  0.75009900  0.62520400  0.15178800  1
  C  463  1  0.72621300  0.61937800  0.17441200  1
  C  464  1  0.73806100  0.62146800  0.20329400  1
  C  465  1  0.77291200  0.62898900  0.20989600  1
  C  466  1  0.79652500  0.63480000  0.18664000  1
  C  469  1  0.80507000  0.64339800  0.13271100  1
  C  470  1  0.80742800  0.62839600  0.10554400  1
  C  471  1  0.81996700  0.64259000  0.08008000  1
  C  472  1  0.82963500  0.67207900  0.08224700  1
  C  473  1  0.82509000  0.68792900  0.10812400  1
  C  474  1  0.81368100  0.67328700  0.13324100  1
  C  481  1  0.53467300  0.38330800  0.90424100  1
  C  482  1  0.49937200  0.37704500  0.89765200  1
  C  483  1  0.47482100  0.39921000  0.89255700  1
  C  484  1  0.48572100  0.42835200  0.89357500  1
  C  485  1  0.52053000  0.43610700  0.90042700  1
  C  486  1  0.54491800  0.41317100  0.90579000  1
  C  489  1  0.55563000  0.35953200  0.91466100  1
  C  490  1  0.55818600  0.33220000  0.89998100  1
  C  491  1  0.57296800  0.30737400  0.91378700  1
  C  492  1  0.58318200  0.30993500  0.94310000  1
  C  493  1  0.57783800  0.33578400  0.95886100  1
  C  494  1  0.56531400  0.36059400  0.94427500  1
  C  501  1  0.03467600  0.61292000  0.63557200  1
  C  502  1  0.99936200  0.61916100  0.64215200  1
  C  503  1  0.97482700  0.59697500  0.64720800  1
  C  504  1  0.98575200  0.56784000  0.64619000  1
  C  505  1  0.02056700  0.56011900  0.63933200  1
  C  506  1  0.04492900  0.58306600  0.63396500  1
  C  509  1  0.05548100  0.63672400  0.62498300  1
  C  510  1  0.05805600  0.66405900  0.63966600  1
  C  511  1  0.07270200  0.68888700  0.62575900  1
  C  512  1  0.08306500  0.68627100  0.59649000  1
  C  513  1  0.07781800  0.66036600  0.58079500  1
  C  514  1  0.06524600  0.63558800  0.59540100  1
  C  521  1  0.78582200  0.63061400  0.88463500  1
  C  522  1  0.75052100  0.62413600  0.89100400  1
  C  523  1  0.72576800  0.61932800  0.86896200  1
  C  524  1  0.73646100  0.62036900  0.83980600  1
  C  525  1  0.77127200  0.62704400  0.83188100  1
  C  526  1  0.79583300  0.63222800  0.85473400  1
  C  529  1  0.80676000  0.64122800  0.90836100  1
  C  530  1  0.80927700  0.62680300  0.93584000  1
  C  531  1  0.82346400  0.64103200  0.96067500  1
  C  532  1  0.83300600  0.67052400  0.95798200  1
  C  533  1  0.82796600  0.68590200  0.93189300  1
  C  534  1  0.81607300  0.67095400  0.90711800  1
  C  541  1  0.28579300  0.36572500  0.65508500  1
  C  542  1  0.25047900  0.37217500  0.64871100  1
  C  543  1  0.22572100  0.37693900  0.67075800  1
  C  544  1  0.23641900  0.37589000  0.69991300  1
  C  545  1  0.27123100  0.36922900  0.70784000  1
  C  546  1  0.29578900  0.36404400  0.68498400  1
  C  549  1  0.30660000  0.35495900  0.63133700  1
  C  550  1  0.30919900  0.36943600  0.60388800  1
  C  551  1  0.32333700  0.35517400  0.57904400  1
  C  552  1  0.33304500  0.32572400  0.58177600  1
  C  553  1  0.32796800  0.31034400  0.60786000  1
  C  554  1  0.31596800  0.32525900  0.63261300  1
  C  561  1  0.02596300  0.38545000  0.63397300  1
  C  562  1  0.06128600  0.38010600  0.64136900  1
  C  563  1  0.08505800  0.40274600  0.64754400  1
  C  564  1  0.07320200  0.43166200  0.64553000  1
  C  565  1  0.03840600  0.43825100  0.63784600  1
  C  566  1  0.01483300  0.41501100  0.63186900  1
  C  569  1  0.00593700  0.36113300  0.62348300  1
  C  570  1  0.00347400  0.33400300  0.63854500  1
  C  571  1  0.98904800  0.30889700  0.62498300  1
  C  572  1  0.97909400  0.31096300  0.59557200  1
  C  573  1  0.98430100  0.33661600  0.57947200  1
  C  574  1  0.99662000  0.36166100  0.59377300  1
  C  581  1  0.52600500  0.61079800  0.90571300  1
  C  582  1  0.56134300  0.61613500  0.89835200  1
  C  583  1  0.58510500  0.59348800  0.89217100  1
  C  584  1  0.57323300  0.56457700  0.89417400  1
  C  585  1  0.53843500  0.55799700  0.90185100  1
  C  586  1  0.51487200  0.58124100  0.90783600  1
  C  589  1  0.50610700  0.63513000  0.91635700  1
  C  590  1  0.50362100  0.66226700  0.90130400  1
  C  591  1  0.48930200  0.68736800  0.91496200  1
  C  592  1  0.47918300  0.68523300  0.94432500  1
  C  593  1  0.48430900  0.65952700  0.96035500  1
  C  594  1  0.49669700  0.63451900  0.94603900  1
  C  601  1  0.77480800  0.63220800  0.65707500  1
  C  602  1  0.81014100  0.62497200  0.65157500  1
  C  603  1  0.83418900  0.61909600  0.67406700  1
  C  604  1  0.82258600  0.62114000  0.70301300  1
  C  605  1  0.78777900  0.62861300  0.70982100  1
  C  606  1  0.76395800  0.63436100  0.68669400  1
  C  609  1  0.75472500  0.64284200  0.63283200  1
  C  610  1  0.75220800  0.62797400  0.60559300  1
  C  611  1  0.73819400  0.64186600  0.58049800  1
  C  612  1  0.72879100  0.67142700  0.58268000  1
  C  613  1  0.73392000  0.68724400  0.60849200  1
  C  614  1  0.74577300  0.67266600  0.63349600  1
  C  621  1  0.27478300  0.36410000  0.88265400  1
  C  622  1  0.31013100  0.37129100  0.88815800  1
  C  623  1  0.33417900  0.37715800  0.86566300  1
  C  624  1  0.32257200  0.37512900  0.83671600  1
  C  625  1  0.28776000  0.36767000  0.82991200  1
  C  626  1  0.26394300  0.36191300  0.85304100  1
  C  629  1  0.25482200  0.35332100  0.90690900  1
  C  630  1  0.25224200  0.36820800  0.93413800  1
  C  631  1  0.23827700  0.35426800  0.95923200  1
  C  632  1  0.22870000  0.32474900  0.95698000  1
  C  633  1  0.23382900  0.30896000  0.93115200  1
  C  634  1  0.24579200  0.32352600  0.90618400  1
  C  641  1  0.99366800  0.21868400  0.63612300  1
  C  643  1  0.96067600  0.26311900  0.64076000  1
  C  644  1  0.99097000  0.28016800  0.63652500  1
  C  646  1  0.02470900  0.23555500  0.63236600  1
  C  648  1  0.05694500  0.22416900  0.62423800  1
  C  651  1  0.49399100  0.77748800  0.90368100  1
  C  653  1  0.46083000  0.73309100  0.89935700  1
  C  654  1  0.49122700  0.71611700  0.90341000  1
  C  656  1  0.52506700  0.76061500  0.90709400  1
  C  658  1  0.55738500  0.77200500  0.91481200  1
  C  661  1  0.74558400  0.86317300  0.54945800  1
  C  663  1  0.71273800  0.86821300  0.50503000  1
  C  664  1  0.74310300  0.86379200  0.48814200  1
  C  666  1  0.77660000  0.85922300  0.53264600  1
  C  668  1  0.80870100  0.85109000  0.54416400  1
  C  671  1  0.24536000  0.13315100  0.99035600  1
  C  673  1  0.21253400  0.12780000  0.03469900  1
  C  674  1  0.24281900  0.13223400  0.05167600  1
  C  676  1  0.27638100  0.13712200  0.00716900  1
  C  678  1  0.30847900  0.14549200  0.99576200  1
  C  681  1  0.56704300  0.21701600  0.90398600  1
  C  683  1  0.60083800  0.26100600  0.89906800  1
  C  684  1  0.57077100  0.27844700  0.90276400  1
  C  686  1  0.53622600  0.23428400  0.90714900  1
  C  688  1  0.50367800  0.22333100  0.91501600  1
  C  691  1  0.06678700  0.77915200  0.63583900  1
  C  693  1  0.10070000  0.73516800  0.64038000  1
  C  694  1  0.07052000  0.71782400  0.63681800  1
  C  696  1  0.03593100  0.76191000  0.63296400  1
  C  698  1  0.00332800  0.77290600  0.62549900  1
  C  701  1  0.81515400  0.86285100  0.98866500  1
  C  703  1  0.84884300  0.86814600  0.03263100  1
  C  704  1  0.81870300  0.86430600  0.04993400  1
  C  706  1  0.78436400  0.85953100  0.00589200  1
  C  708  1  0.75193600  0.85168000  0.99481600  1
  C  711  1  0.31526600  0.13344400  0.55111600  1
  C  713  1  0.34889600  0.12789800  0.50721000  1
  C  714  1  0.31882600  0.13180600  0.48984900  1
  C  716  1  0.28445700  0.13682800  0.53391500  1
  C  718  1  0.25204300  0.14491400  0.54491300  1
  C  721  1  0.06804400  0.77783300  0.40320100  1
  C  723  1  0.10063700  0.73310900  0.39937900  1
  C  724  1  0.07005900  0.71629700  0.40325600  1
  C  726  1  0.03687400  0.76111200  0.40698500  1
  C  728  1  0.00418700  0.77252400  0.41353100  1
  C  731  1  0.56778400  0.21839300  0.13669400  1
  C  733  1  0.60045800  0.26309300  0.14043000  1
  C  734  1  0.56982500  0.27981400  0.13649100  1
  C  736  1  0.53659300  0.23507200  0.13296500  1
  C  738  1  0.50396900  0.22352200  0.12652600  1
  C  741  1  0.49331500  0.77954000  0.13632400  1
  C  743  1  0.45996800  0.73517700  0.14034400  1
  C  744  1  0.49035800  0.71806800  0.13680500  1
  C  746  1  0.52423400  0.76246100  0.13288000  1
  C  748  1  0.55707600  0.77363800  0.12655600  1
  C  751  1  0.99326400  0.21671400  0.40344900  1
  C  753  1  0.95991400  0.26101400  0.39933900  1
  C  754  1  0.99030000  0.27811900  0.40284800  1
  C  756  1  0.02419800  0.23378600  0.40686600  1
  C  758  1  0.05706500  0.22274900  0.41325100  1
  C  761  1  0.24258100  0.36523000  0.04951700  1
  C  763  1  0.20948000  0.36933100  0.00506300  1
  C  764  1  0.23990900  0.36571400  0.98804700  1
  C  766  1  0.27355700  0.36161500  0.03253200  1
  C  768  1  0.30633800  0.35488300  0.04360300  1
  C  771  1  0.74266500  0.63087200  0.49018800  1
  C  773  1  0.70947700  0.62681900  0.53458600  1
  C  774  1  0.73985400  0.63043100  0.55169300  1
  C  776  1  0.77360700  0.63446300  0.50717500  1
  C  778  1  0.80635100  0.64113200  0.49603000  1
  C  781  1  0.31785100  0.36506500  0.48859700  1
  C  783  1  0.35157800  0.36940700  0.53274100  1
  C  784  1  0.32132200  0.36608800  0.55003500  1
  C  786  1  0.28710300  0.36175000  0.50589100  1
  C  788  1  0.25420400  0.35518500  0.49501900  1
  C  791  1  0.81782500  0.63130000  0.05110700  1
  C  793  1  0.85161300  0.62694700  0.00705700  1
  C  794  1  0.82138000  0.63018600  0.98971000  1
  C  796  1  0.78707300  0.63450900  0.03379400  1
  C  798  1  0.75410600  0.64101900  0.04452100  1
  C  801  1  0.98488500  0.16042900  0.49076900  1
  C  803  1  0.96400300  0.13800400  0.53436600  1
  C  804  1  0.98108600  0.15930800  0.55115900  1
  C  806  1  0.00335900  0.18124000  0.50769200  1
  C  808  1  0.02694000  0.20159200  0.49769200  1
  C  811  1  0.48478900  0.83583500  0.04912200  1
  C  813  1  0.46396800  0.85812700  0.00544300  1
  C  814  1  0.48120200  0.83684600  0.98872400  1
  C  816  1  0.50342400  0.81506300  0.03228400  1
  C  818  1  0.52699500  0.79484200  0.04244200  1
  C  821  1  0.73386200  0.71797000  0.60781300  1
  C  823  1  0.71193100  0.76182300  0.62903500  1
  C  824  1  0.73112800  0.77836900  0.60885200  1
  C  826  1  0.75500900  0.73450300  0.58845400  1
  C  828  1  0.77948400  0.72302000  0.56934400  1
  C  831  1  0.23377100  0.27823700  0.93182700  1
  C  833  1  0.21165900  0.23439900  0.91070400  1
  C  834  1  0.23088700  0.21784600  0.93085700  1
  C  836  1  0.25500800  0.26170300  0.95112700  1
  C  838  1  0.27953800  0.27327500  0.97019300  1
  C  841  1  0.57654900  0.16083900  0.05042800  1
  C  843  1  0.59681400  0.13802500  0.00685100  1
  C  844  1  0.57902800  0.15891000  0.99003400  1
  C  846  1  0.55735100  0.18120300  0.03350400  1
  C  848  1  0.53364900  0.20142100  0.04359900  1
  C  851  1  0.07633200  0.83551800  0.48940900  1
  C  853  1  0.09682000  0.85814300  0.53300800  1
  C  854  1  0.07886600  0.83733200  0.54980100  1
  C  856  1  0.05695300  0.81526600  0.50631000  1
  C  858  1  0.03310700  0.79529000  0.49612400  1
  C  861  1  0.82744800  0.71662100  0.93219300  1
  C  863  1  0.84898100  0.76049500  0.91078200  1
  C  864  1  0.82894500  0.77700300  0.93042800  1
  C  866  1  0.80545200  0.73308500  0.95096200  1
  C  868  1  0.78075400  0.72146500  0.96979700  1
  C  871  1  0.32751000  0.27961800  0.60755400  1
  C  873  1  0.34895600  0.23578300  0.62911100  1
  C  874  1  0.32912300  0.21923400  0.60936200  1
  C  876  1  0.30568600  0.26312200  0.58867100  1
  C  878  1  0.28115900  0.27481100  0.56967200  1
  C  881  1  0.32668500  0.27762000  0.43228900  1
  C  883  1  0.34756200  0.23411900  0.40953200  1
  C  884  1  0.33094700  0.21714400  0.43093000  1
  C  886  1  0.30863800  0.26050000  0.45319000  1
  C  888  1  0.28526100  0.27026900  0.47379900  1
  C  891  1  0.82639200  0.71868700  0.10768100  1
  C  893  1  0.84780400  0.76211000  0.13022900  1
  C  894  1  0.83095500  0.77913000  0.10899100  1
  C  896  1  0.80807100  0.73586100  0.08700300  1
  C  898  1  0.78434400  0.72609000  0.06673900  1
  C  901  1  0.23417700  0.27888800  0.10739700  1
  C  903  1  0.21324400  0.23545200  0.13018100  1
  C  904  1  0.23105700  0.21843900  0.10948400  1
  C  906  1  0.25347300  0.26174000  0.08730900  1
  C  908  1  0.27734200  0.27168500  0.06725100  1
  C  911  1  0.73386500  0.71718100  0.43237300  1
  C  913  1  0.71307300  0.76066500  0.40958800  1
  C  914  1  0.73091300  0.77764200  0.43029900  1
  C  916  1  0.75319000  0.73428800  0.45248500  1
  C  918  1  0.77707200  0.72433700  0.47256900  1
  C  921  1  0.48339000  0.66029400  0.99106100  1
  C  923  1  0.46160300  0.63823000  0.03452500  1
  C  924  1  0.47925100  0.65912800  0.05137400  1
  C  926  1  0.50299700  0.68048600  0.00792700  1
  C  928  1  0.52679100  0.70042200  0.99672300  1
  C  931  1  0.98337100  0.33579100  0.54876400  1
  C  933  1  0.96183200  0.35796400  0.50526600  1
  C  934  1  0.97931500  0.33695500  0.48843000  1
  C  936  1  0.00278000  0.31546200  0.53191300  1
  C  938  1  0.02640100  0.29542600  0.54306600  1
  C  941  1  0.07833400  0.66082000  0.55006800  1
  C  943  1  0.09901300  0.63801500  0.50661600  1
  C  944  1  0.08106300  0.65870200  0.48971900  1
  C  946  1  0.05850900  0.68084700  0.53317800  1
  C  948  1  0.03510600  0.70103200  0.54436800  1
  C  951  1  0.57832500  0.33527400  0.98959600  1
  C  953  1  0.59876300  0.35818500  0.03307600  1
  C  954  1  0.58102400  0.33736500  0.04996200  1
  C  956  1  0.55870200  0.31507900  0.00646000  1
  C  958  1  0.53555100  0.29471800  0.99514100  1
  C  961  1  0.12079700  0.10407200  0.65340600  1
  C  963  1  0.16922800  0.09592800  0.68511800  1
  C  964  1  0.19039600  0.11440300  0.66815000  1
  C  966  1  0.14179800  0.12229100  0.63561100  1
  C  968  1  0.13059200  0.13486700  0.60987400  1
  C  971  1  0.62083600  0.89223200  0.88645000  1
  C  973  1  0.66923800  0.90032700  0.85469800  1
  C  974  1  0.69042500  0.88188400  0.87168700  1
  C  976  1  0.64186100  0.87404800  0.90425600  1
  C  978  1  0.63077400  0.86152300  0.93000700  1
  C  981  1  0.87161200  0.88043500  0.66468300  1
  C  983  1  0.91970300  0.91246600  0.67315100  1
  C  984  1  0.94118700  0.89560600  0.65483600  1
  C  986  1  0.89293900  0.86275500  0.64662400  1
  C  988  1  0.88214900  0.83696300  0.63395600  1
  C  991  1  0.37164200  0.11582400  0.87516300  1
  C  993  1  0.41970800  0.08375400  0.86675300  1
  C  994  1  0.44119100  0.10062000  0.88506200  1
  C  996  1  0.39296700  0.13354600  0.89318700  1
  C  998  1  0.38204600  0.15935800  0.90581500  1
  C  1001  1  0.93986100  0.89247000  0.38626100  1
  C  1003  1  0.89132400  0.90114800  0.35482000  1
  C  1004  1  0.87018100  0.88250800  0.37162800  1
  C  1006  1  0.91887700  0.87408200  0.40389600  1
  C  1008  1  0.93014600  0.86118500  0.42945100  1
  C  1011  1  0.43980500  0.10364800  0.15342800  1
  C  1013  1  0.39131700  0.09500200  0.18493000  1
  C  1014  1  0.37013500  0.11359500  0.16810300  1
  C  1016  1  0.41877800  0.12199100  0.13578800  1
  C  1018  1  0.42990900  0.13484300  0.11021500  1
  C  1021  1  0.18974900  0.11493100  0.37522000  1
  C  1023  1  0.14158100  0.08290700  0.36708200  1
  C  1024  1  0.12010800  0.10008300  0.38511400  1
  C  1026  1  0.16843400  0.13294400  0.39294600  1
  C  1028  1  0.17923700  0.15891700  0.40523400  1
  C  1031  1  0.68974400  0.88126300  0.16451500  1
  C  1033  1  0.64159100  0.91331000  0.17260500  1
  C  1034  1  0.62012100  0.89613300  0.15457400  1
  C  1036  1  0.66843600  0.86321600  0.14680700  1
  C  1038  1  0.67938800  0.83723600  0.13454200  1
  C  1041  1  0.62083100  0.60385300  0.15346100  1
  C  1043  1  0.66912800  0.59547000  0.18526700  1
  C  1044  1  0.69061300  0.61349100  0.16809000  1
  C  1046  1  0.64213000  0.62162700  0.13547300  1
  C  1048  1  0.63116200  0.63402900  0.10958100  1
  C  1051  1  0.12082600  0.39231300  0.38630000  1
  C  1053  1  0.16911200  0.40056300  0.35445300  1
  C  1054  1  0.19058700  0.38256300  0.37166500  1
  C  1056  1  0.14212300  0.37457100  0.40431900  1
  C  1058  1  0.13125400  0.36226300  0.43023600  1
  C  1061  1  0.37129600  0.38163800  0.16438000  1
  C  1063  1  0.41999900  0.41290400  0.17320200  1
  C  1064  1  0.44108900  0.39607900  0.15453500  1
  C  1066  1  0.39224400  0.36397400  0.14598900  1
  C  1068  1  0.38092800  0.33851200  0.13298200  1
  C  1071  1  0.87140700  0.61462700  0.37537400  1
  C  1073  1  0.92006500  0.58330700  0.36656400  1
  C  1074  1  0.94117900  0.60012300  0.38521600  1
  C  1076  1  0.89237600  0.63230800  0.39373500  1
  C  1078  1  0.88094500  0.65778300  0.40672000  1
  C  1081  1  0.43935200  0.39271400  0.88716400  1
  C  1083  1  0.39122300  0.40129500  0.85525300  1
  C  1084  1  0.36971400  0.38305400  0.87217600  1
  C  1086  1  0.41801300  0.37471900  0.90489700  1
  C  1088  1  0.42889700  0.36208000  0.93069600  1
  C  1091  1  0.93935100  0.60345500  0.65257700  1
  C  1093  1  0.89123000  0.59495900  0.68451500  1
  C  1094  1  0.86971500  0.61316300  0.66755400  1
  C  1096  1  0.91800300  0.62140900  0.63481300  1
  C  1098  1  0.92878500  0.63397400  0.60899500  1
  C  1101  1  0.69028100  0.61426500  0.87564000  1
  C  1103  1  0.64170600  0.58268300  0.86750600  1
  C  1104  1  0.62060800  0.59978600  0.88591400  1
  C  1106  1  0.66933500  0.63221700  0.89373700  1
  C  1108  1  0.68057000  0.65795700  0.90624200  1
  C  1111  1  0.19022300  0.38196600  0.66409100  1
  C  1113  1  0.14165700  0.41355600  0.67221200  1
  C  1114  1  0.12055300  0.39644000  0.65382500  1
  C  1116  1  0.16927500  0.36396800  0.64603600  1
  C  1118  1  0.18065100  0.33821900  0.63355700  1
  C  1121  1  0.03297900  0.02946100  0.63936200  1
  C  1123  1  0.04565200  0.98318100  0.66185600  1
  C  1124  1  0.03134100  0.96813900  0.63810200  1
  C  1126  1  0.01817800  0.01438700  0.61532400  1
  C  1128  1  0.00568800  0.02818100  0.59069000  1
  C  1131  1  0.53286000  0.96672600  0.90052900  1
  C  1133  1  0.54547600  0.01302300  0.87804000  1
  C  1134  1  0.53126200  0.02803300  0.90185800  1
  C  1136  1  0.51830600  0.98179300  0.92467400  1
  C  1138  1  0.50602300  0.96805600  0.94936400  1
  C  1141  1  0.78310900  0.86616700  0.73858500  1
  C  1143  1  0.79531200  0.88873500  0.78485500  1
  C  1144  1  0.78105900  0.86485900  0.79977200  1
  C  1146  1  0.76851200  0.84196200  0.75355500  1
  C  1148  1  0.75635900  0.81722800  0.73977400  1
  C  1151  1  0.28321500  0.13008100  0.80122100  1
  C  1153  1  0.29533900  0.10748900  0.75495200  1
  C  1154  1  0.28111200  0.13136500  0.74001900  1
  C  1156  1  0.26852000  0.15425900  0.78626700  1
  C  1158  1  0.25631000  0.17894800  0.80016100  1
  C  1161  1  0.02774200  0.96677200  0.40138100  1
  C  1163  1  0.01602500  0.01304400  0.37858500  1
  C  1164  1  0.02954700  0.02807000  0.40266800  1
  C  1166  1  0.04179100  0.98181000  0.42575200  1
  C  1168  1  0.05347900  0.96796200  0.45062600  1
  C  1171  1  0.52787800  0.02948000  0.13835200  1
  C  1173  1  0.51620200  0.98320400  0.16116500  1
  C  1174  1  0.52963000  0.96819700  0.13703100  1
  C  1176  1  0.54168300  0.01443500  0.11389500  1
  C  1178  1  0.55317500  0.02821100  0.08896400  1
  C  1181  1  0.27809900  0.12902700  0.30127300  1
  C  1183  1  0.26608100  0.10621800  0.25509800  1
  C  1184  1  0.27960600  0.13032400  0.24008100  1
  C  1186  1  0.29203300  0.15344000  0.28621000  1
  C  1188  1  0.30380000  0.17834400  0.29991900  1
  C  1191  1  0.77798300  0.86717400  0.23852500  1
  C  1193  1  0.76601000  0.88994900  0.28471300  1
  C  1194  1  0.77954500  0.86584200  0.29972400  1
  C  1196  1  0.79205100  0.84278500  0.25354500  1
  C  1198  1  0.80391400  0.81795100  0.23970100  1
  C  1201  1  0.53294700  0.52949100  0.13916600  1
  C  1203  1  0.54507300  0.48325300  0.16188700  1
  C  1204  1  0.53155800  0.46819700  0.13782300  1
  C  1206  1  0.51889300  0.51441700  0.11482100  1
  C  1208  1  0.50699200  0.52822500  0.08999000  1
  C  1211  1  0.03286300  0.46663700  0.40059100  1
  C  1213  1  0.04492400  0.51286600  0.37781700  1
  C  1214  1  0.03153800  0.52791600  0.40194100  1
  C  1216  1  0.01909500  0.48173000  0.42503100  1
  C  1218  1  0.00742700  0.46801000  0.44993800  1
  C  1221  1  0.28317400  0.36673100  0.23853600  1
  C  1223  1  0.29529400  0.38928400  0.28487800  1
  C  1224  1  0.28137400  0.36529100  0.29984300  1
  C  1226  1  0.26889700  0.34241200  0.25354500  1
  C  1228  1  0.25694400  0.31762300  0.23974900  1
  C  1231  1  0.78330300  0.62941700  0.30121000  1
  C  1233  1  0.79537500  0.60680300  0.25489700  1
  C  1234  1  0.78142700  0.63075900  0.23989000  1
  C  1236  1  0.76886600  0.65367100  0.28619500  1
  C  1238  1  0.75680100  0.67841200  0.30007800  1
  C  1241  1  0.52759000  0.46672600  0.90226900  1
  C  1243  1  0.51609500  0.51303800  0.87946300  1
  C  1244  1  0.52980600  0.52802300  0.90349900  1
  C  1246  1  0.54182400  0.48172600  0.92659100  1
  C  1248  1  0.55350000  0.46785600  0.95145700  1
  C  1251  1  0.02769200  0.52951500  0.63747100  1
  C  1253  1  0.01626000  0.48319700  0.66029000  1
  C  1254  1  0.02981400  0.46823400  0.63617500  1
  C  1256  1  0.04162300  0.51451100  0.61303500  1
  C  1258  1  0.05306300  0.52831600  0.58810200  1
  C  1261  1  0.77808100  0.62891700  0.80121100  1
  C  1263  1  0.76551100  0.60644000  0.75490200  1
  C  1264  1  0.77953200  0.63035500  0.73988000  1
  C  1266  1  0.79246300  0.65315800  0.78614000  1
  C  1268  1  0.80467100  0.67788800  0.79988400  1
  C  1271  1  0.27798700  0.36733300  0.73851800  1
  C  1273  1  0.26550700  0.38985300  0.78481600  1
  C  1274  1  0.27949000  0.36593600  0.79985900  1
  C  1276  1  0.29246800  0.34312200  0.75357900  1
  C  1278  1  0.30473000  0.31843100  0.73972600  1
  C  1281  1  0.55358900  0.00424000  0.63720600  1
  C  1282  1  0.58897700  0.01068300  0.64337200  1
  C  1283  1  0.61380200  0.98870120  0.64827900  1
  C  1284  1  0.60311500  0.95950220  0.64748700  1
  C  1285  1  0.56824800  0.95152120  0.64109200  1
  C  1286  1  0.54357200  0.97430720  0.63595400  1
  C  1289  1  0.53253800  0.02791400  0.62659000  1
  C  1290  1  0.53113700  0.05565000  0.64061400  1
  C  1291  1  0.51913000  0.08085800  0.62569400  1
  C  1292  1  0.50939100  0.07794000  0.59633100  1
  C  1293  1  0.51101000  0.05104700  0.58176900  1
  C  1294  1  0.52210600  0.02623900  0.59716700  1
  C  1301  1  0.05362800  0.77471800  0.90257500  1
  C  1302  1  0.08903700  0.76831500  0.89641900  1
  C  1303  1  0.11383300  0.79033600  0.89156900  1
  C  1304  1  0.10309800  0.81952200  0.89237400  1
  C  1305  1  0.06821900  0.82745000  0.89878100  1
  C  1306  1  0.04358400  0.80463700  0.90391400  1
  C  1309  1  0.03275300  0.75099800  0.91334600  1
  C  1310  1  0.03133000  0.72328900  0.89926100  1
  C  1311  1  0.01949500  0.69804700  0.91422800  1
  C  1312  1  0.00968700  0.70093900  0.94358100  1
  C  1313  1  0.01122000  0.72784800  0.95811500  1
  C  1314  1  0.02230300  0.75267400  0.94275400  1
  C  1321  1  0.30450500  0.75543400  0.65530000  1
  C  1322  1  0.33997000  0.76156100  0.64908600  1
  C  1323  1  0.36459800  0.76649100  0.67119600  1
  C  1324  1  0.35365400  0.76567600  0.70028800  1
  C  1325  1  0.31871600  0.75927400  0.70802000  1
  C  1326  1  0.29421900  0.75419900  0.68513200  1
  C  1329  1  0.28354500  0.74496200  0.63153200  1
  C  1330  1  0.28258700  0.75897900  0.60380500  1
  C  1331  1  0.27062100  0.74409600  0.57858400  1
  C  1332  1  0.26042200  0.71479700  0.58145900  1
  C  1333  1  0.26135400  0.70034500  0.60839800  1
  C  1334  1  0.27252600  0.71564800  0.63321200  1
  C  1341  1  0.80450400  0.02350200  0.88452000  1
  C  1342  1  0.83998100  0.01741300  0.89075000  1
  C  1343  1  0.86462100  0.01250800  0.86864500  1
  C  1344  1  0.85369200  0.01332000  0.83954900  1
  C  1345  1  0.81875500  0.01971100  0.83180000  1
  C  1346  1  0.79425100  0.02478600  0.85468500  1
  C  1349  1  0.78363700  0.03411800  0.90829400  1
  C  1350  1  0.78261800  0.02008200  0.93601800  1
  C  1351  1  0.77056500  0.03498700  0.96120700  1
  C  1352  1  0.76014500  0.06422700  0.95827800  1
  C  1353  1  0.76113200  0.07863600  0.93132100  1
  C  1354  1  0.77249300  0.06338600  0.90654500  1
  C  1361  1  0.06469300  0.00218700  0.90406000  1
  C  1362  1  0.02929700  0.00778500  0.89702600  1
  C  1363  1  0.00516800  0.98537120  0.89101600  1
  C  1364  1  0.01672100  0.95636620  0.89285900  1
  C  1365  1  0.05155600  0.94948220  0.90016000  1
  C  1366  1  0.07551200  0.97252120  0.90591700  1
  C  1369  1  0.08480900  0.02637800  0.91480700  1
  C  1370  1  0.08623400  0.05390800  0.90037800  1
  C  1371  1  0.09795400  0.07938100  0.91502100  1
  C  1372  1  0.10732400  0.07696100  0.94451300  1
  C  1373  1  0.10568900  0.05028900  0.95944800  1
  C  1374  1  0.09476000  0.02524400  0.94437000  1
  C  1381  1  0.56470400  0.77675800  0.63591900  1
  C  1382  1  0.52929000  0.77117400  0.64291600  1
  C  1383  1  0.50517900  0.79360200  0.64892200  1
  C  1384  1  0.51675500  0.82260100  0.64708800  1
  C  1385  1  0.55159300  0.82946600  0.63978800  1
  C  1386  1  0.57553000  0.80641400  0.63402100  1
  C  1389  1  0.58466800  0.75254500  0.62500900  1
  C  1390  1  0.58612700  0.72502500  0.63946000  1
  C  1391  1  0.59769200  0.69954000  0.62474600  1
  C  1392  1  0.60712200  0.70197400  0.59526600  1
  C  1393  1  0.60554800  0.72867800  0.58038500  1
  C  1394  1  0.59463200  0.75372000  0.59545900  1
  C  1401  1  0.31380700  0.75407600  0.88243500  1
  C  1402  1  0.27835000  0.76108800  0.88781800  1
  C  1403  1  0.25442300  0.76714700  0.86529300  1
  C  1404  1  0.26620800  0.76526200  0.83639700  1
  C  1405  1  0.30110000  0.75795200  0.82973600  1
  C  1406  1  0.32488400  0.75224200  0.85287400  1
  C  1409  1  0.33382300  0.74343200  0.90670700  1
  C  1410  1  0.33480900  0.75782000  0.93424500  1
  C  1411  1  0.34646500  0.74318100  0.95971600  1
  C  1412  1  0.35627100  0.71374500  0.95730400  1
  C  1413  1  0.35532500  0.69895100  0.93056400  1
  C  1414  1  0.34434000  0.71396600  0.90553300  1
  C  1421  1  0.81378800  0.02490300  0.65735500  1
  C  1422  1  0.77830900  0.01794100  0.65198700  1
  C  1423  1  0.75440200  0.01188400  0.67452700  1
  C  1424  1  0.76621700  0.01375200  0.70341900  1
  C  1425  1  0.80111500  0.02104900  0.71006200  1
  C  1426  1  0.82487700  0.02676900  0.68690800  1
  C  1429  1  0.83368900  0.03566700  0.63306000  1
  C  1430  1  0.83472100  0.02123800  0.60553500  1
  C  1431  1  0.84644900  0.03587500  0.58008100  1
  C  1432  1  0.85647400  0.06525600  0.58251800  1
  C  1433  1  0.85546300  0.08004800  0.60925500  1
  C  1434  1  0.84431400  0.06509500  0.63426800  1
  C  1441  1  0.56376100  0.77477000  0.40307800  1
  C  1442  1  0.52852000  0.76841000  0.39634500  1
  C  1443  1  0.50381400  0.79049200  0.39146400  1
  C  1444  1  0.51456100  0.81966700  0.39261200  1
  C  1445  1  0.54934000  0.82751700  0.39946700  1
  C  1446  1  0.57383600  0.80465800  0.40481300  1
  C  1449  1  0.58446600  0.75101400  0.41384700  1
  C  1450  1  0.58691000  0.72361600  0.39927900  1
  C  1451  1  0.59951000  0.69837000  0.41380600  1
  C  1452  1  0.60906900  0.70096500  0.44324500  1
  C  1453  1  0.60445600  0.72709500  0.45869000  1
  C  1454  1  0.59313700  0.75204500  0.44368300  1
  C  1461  1  0.06371300  0.00424000  0.13672500  1
  C  1462  1  0.02844100  0.01055500  0.14340300  1
  C  1463  1  0.00376700  0.98843420  0.14822600  1
  C  1464  1  0.01457000  0.95927220  0.14708900  1
  C  1465  1  0.04937100  0.95148020  0.14025700  1
  C  1466  1  0.07382700  0.97436820  0.13492800  1
  C  1469  1  0.08428700  0.02804200  0.12586600  1
  C  1470  1  0.08675500  0.05539200  0.14052600  1
  C  1471  1  0.09939700  0.08064300  0.12603100  1
  C  1472  1  0.10924900  0.07806400  0.09665700  1
  C  1473  1  0.10457800  0.05198100  0.08114900  1
  C  1474  1  0.09308600  0.02703000  0.09606700  1
  C  1481  1  0.81371500  0.02292200  0.38453900  1
  C  1482  1  0.77829300  0.01671300  0.39079100  1
  C  1483  1  0.75371400  0.01153600  0.36870100  1
  C  1484  1  0.76463700  0.01219000  0.33960300  1
  C  1485  1  0.79952200  0.01871600  0.33184200  1
  C  1486  1  0.82398900  0.02404000  0.35469400  1
  C  1489  1  0.83474700  0.03342500  0.40825000  1
  C  1490  1  0.83609600  0.01939800  0.43596600  1
  C  1491  1  0.84972600  0.03386600  0.46082900  1
  C  1492  1  0.86010200  0.06311900  0.45784800  1
  C  1493  1  0.85789600  0.07787500  0.43111100  1
  C  1494  1  0.84592200  0.06269500  0.40646600  1
  C  1501  1  0.31376100  0.75619100  0.15525300  1
  C  1502  1  0.27832400  0.76234100  0.14897200  1
  C  1503  1  0.25371300  0.76746000  0.17105200  1
  C  1504  1  0.26460300  0.76679500  0.20015600  1
  C  1505  1  0.29949000  0.76030400  0.20794300  1
  C  1506  1  0.32398800  0.75502100  0.18510400  1
  C  1509  1  0.33472200  0.74554900  0.13155000  1
  C  1510  1  0.33610800  0.75957700  0.10382800  1
  C  1511  1  0.34971400  0.74506100  0.07897300  1
  C  1512  1  0.36023100  0.71585000  0.08202200  1
  C  1513  1  0.35805000  0.70116400  0.10879400  1
  C  1514  1  0.34598500  0.71631800  0.13340800  1
  C  1521  1  0.05387700  0.77682200  0.13504100  1
  C  1522  1  0.08916800  0.77139100  0.14246800  1
  C  1523  1  0.11308900  0.79396300  0.14847500  1
  C  1524  1  0.10135600  0.82290800  0.14639900  1
  C  1525  1  0.06657400  0.82957900  0.13874000  1
  C  1526  1  0.04288800  0.80640500  0.13281100  1
  C  1529  1  0.03402600  0.75252700  0.12431500  1
  C  1530  1  0.03166500  0.72535800  0.13931500  1
  C  1531  1  0.01900200  0.69990100  0.12519800  1
  C  1532  1  0.00939400  0.70200500  0.09573300  1
  C  1533  1  0.01410900  0.72784200  0.07983500  1
  C  1534  1  0.02552800  0.75300500  0.09442900  1
  C  1541  1  0.55388200  0.00220200  0.40467900  1
  C  1542  1  0.58917100  0.00762200  0.39721300  1
  C  1543  1  0.61306600  0.98503420  0.39118800  1
  C  1544  1  0.60131000  0.95609620  0.39327300  1
  C  1545  1  0.56653800  0.94944220  0.40098600  1
  C  1546  1  0.54289600  0.97263020  0.40697800  1
  C  1549  1  0.53422300  0.02652800  0.41558700  1
  C  1550  1  0.53173700  0.05365200  0.40051500  1
  C  1551  1  0.51924900  0.07913700  0.41468700  1
  C  1552  1  0.50961300  0.07704100  0.44414700  1
  C  1553  1  0.51435100  0.05121200  0.46005700  1
  C  1554  1  0.52580000  0.02605200  0.44547500  1
  C  1561  1  0.80375500  0.02424500  0.15741800  1
  C  1562  1  0.83919000  0.01722600  0.15199600  1
  C  1563  1  0.86308600  0.01099300  0.17449700  1
  C  1564  1  0.85130800  0.01269700  0.20340400  1
  C  1565  1  0.81645000  0.02005600  0.21010400  1
  C  1566  1  0.79269000  0.02595400  0.18699600  1
  C  1569  1  0.78361900  0.03487400  0.13320600  1
  C  1570  1  0.78233200  0.02049500  0.10566300  1
  C  1571  1  0.76914000  0.03477600  0.08052200  1
  C  1572  1  0.75911500  0.06415500  0.08303700  1
  C  1573  1  0.76119500  0.07920000  0.10960300  1
  C  1574  1  0.77290400  0.06429000  0.13448200  1
  C  1581  1  0.30380500  0.75463900  0.38237800  1
  C  1582  1  0.33926100  0.76162100  0.38777800  1
  C  1583  1  0.36312300  0.76787800  0.36526000  1
  C  1584  1  0.35130500  0.76620300  0.33636400  1
  C  1585  1  0.31643900  0.75884700  0.32969000  1
  C  1586  1  0.29271300  0.75291600  0.35281100  1
  C  1589  1  0.28379200  0.74388700  0.40661400  1
  C  1590  1  0.28249200  0.75830100  0.43414400  1
  C  1591  1  0.26932700  0.74401200  0.45929500  1
  C  1592  1  0.25914600  0.71467200  0.45676100  1
  C  1593  1  0.26117900  0.69964600  0.43018200  1
  C  1594  1  0.27297600  0.71450700  0.40531000  1
  C  1601  1  0.05374100  0.50424000  0.13677000  1
  C  1602  1  0.08911800  0.51065100  0.14302500  1
  C  1603  1  0.11382300  0.48862700  0.14823000  1
  C  1604  1  0.10306700  0.45944600  0.14750800  1
  C  1605  1  0.06824500  0.45152400  0.14092700  1
  C  1606  1  0.04365800  0.47431400  0.13560500  1
  C  1609  1  0.03252700  0.52788400  0.12629800  1
  C  1610  1  0.03080400  0.55559000  0.14037200  1
  C  1611  1  0.01681800  0.58041500  0.12601600  1
  C  1612  1  0.00676100  0.57745200  0.09670900  1
  C  1613  1  0.00918700  0.55070800  0.08196100  1
  C  1614  1  0.02138400  0.52608100  0.09706100  1
  C  1621  1  0.55373600  0.27467200  0.40292800  1
  C  1622  1  0.58911800  0.26827000  0.39667100  1
  C  1623  1  0.61382100  0.29030800  0.39151600  1
  C  1624  1  0.60305200  0.31948700  0.39223600  1
  C  1625  1  0.56822700  0.32738600  0.39882500  1
  C  1626  1  0.54365600  0.30459100  0.40416500  1
  C  1629  1  0.53266400  0.25100400  0.41355000  1
  C  1630  1  0.53083000  0.22334800  0.39938700  1
  C  1631  1  0.51697500  0.19849700  0.41379100  1
  C  1632  1  0.50683100  0.20142700  0.44307800  1
  C  1633  1  0.50931200  0.22815800  0.45783700  1
  C  1634  1  0.52156600  0.25279400  0.44278900  1
  C  1641  1  0.80423200  0.25661500  0.15512700  1
  C  1642  1  0.83952500  0.26324500  0.14885500  1
  C  1643  1  0.86423800  0.26793500  0.17095600  1
  C  1644  1  0.85342500  0.26676400  0.20008500  1
  C  1645  1  0.81859200  0.26003900  0.20790000  1
  C  1646  1  0.79412600  0.25484900  0.18498700  1
  C  1649  1  0.78354800  0.24589500  0.13131200  1
  C  1650  1  0.78117400  0.26043200  0.10389700  1
  C  1651  1  0.76844600  0.24592500  0.07867800  1
  C  1652  1  0.75882700  0.21646200  0.08131900  1
  C  1653  1  0.76331700  0.20103600  0.10746000  1
  C  1654  1  0.77469100  0.21606000  0.13236400  1
  C  1661  1  0.30429800  0.52226600  0.38462800  1
  C  1662  1  0.33962000  0.51572900  0.39090900  1
  C  1663  1  0.36434200  0.51108100  0.36880700  1
  C  1664  1  0.35352400  0.51222500  0.33967900  1
  C  1665  1  0.31867800  0.51889200  0.33185500  1
  C  1666  1  0.29420200  0.52406000  0.35476800  1
  C  1669  1  0.28368400  0.53307800  0.40845600  1
  C  1670  1  0.28126800  0.51847500  0.43583800  1
  C  1671  1  0.26842000  0.53296500  0.46103100  1
  C  1672  1  0.25845200  0.56234300  0.45835400  1
  C  1673  1  0.26302300  0.57780200  0.43224300  1
  C  1674  1  0.27463600  0.56285800  0.40737100  1
  C  1681  1  0.56456000  0.50207000  0.40448400  1
  C  1682  1  0.52913300  0.50758100  0.39747800  1
  C  1683  1  0.50517900  0.48508600  0.39126000  1
  C  1684  1  0.51687800  0.45611800  0.39298700  1
  C  1685  1  0.55171600  0.44933600  0.40032900  1
  C  1686  1  0.57553800  0.47243000  0.40620000  1
  C  1689  1  0.58486100  0.52625200  0.41502300  1
  C  1690  1  0.58651400  0.55374300  0.40052800  1
  C  1691  1  0.60021700  0.57885100  0.41458900  1
  C  1692  1  0.61007200  0.57640500  0.44399100  1
  C  1693  1  0.60767300  0.54989800  0.45914800  1
  C  1694  1  0.59561500  0.52502300  0.44439000  1
  C  1701  1  0.06445500  0.27681600  0.13526300  1
  C  1702  1  0.02901700  0.27133100  0.14226400  1
  C  1703  1  0.00509500  0.29384900  0.14849500  1
  C  1704  1  0.01683600  0.32280600  0.14676600  1
  C  1705  1  0.05167600  0.32955600  0.13940000  1
  C  1706  1  0.07545900  0.30644000  0.13350500  1
  C  1709  1  0.08461200  0.25259400  0.12459900  1
  C  1710  1  0.08631700  0.22513800  0.13915700  1
  C  1711  1  0.09991600  0.20000800  0.12506100  1
  C  1712  1  0.10991700  0.20243900  0.09569600  1
  C  1713  1  0.10751500  0.22894400  0.08053800  1
  C  1714  1  0.09539400  0.25382400  0.09524700  1
  C  1721  1  0.81390900  0.25487700  0.38264700  1
  C  1722  1  0.77854700  0.26217600  0.38795800  1
  C  1723  1  0.75465400  0.26800700  0.36534000  1
  C  1724  1  0.76649400  0.26591500  0.33645900  1
  C  1725  1  0.80135300  0.25841600  0.32984800  1
  C  1726  1  0.82498400  0.25264600  0.35310200  1
  C  1729  1  0.83371500  0.24422900  0.40702400  1
  C  1730  1  0.83599200  0.25925200  0.43417800  1
  C  1731  1  0.84881200  0.24521500  0.45962900  1
  C  1732  1  0.85854600  0.21573600  0.45751800  1
  C  1733  1  0.85388100  0.19976500  0.43173300  1
  C  1734  1  0.84237800  0.21433700  0.40659400  1
  C  1741  1  0.31394100  0.52389300  0.15709900  1
  C  1742  1  0.27857600  0.51658700  0.15178800  1
  C  1743  1  0.25469000  0.51076100  0.17441200  1
  C  1744  1  0.26653800  0.51285100  0.20329400  1
  C  1745  1  0.30138900  0.52037200  0.20989600  1
  C  1746  1  0.32500200  0.52618300  0.18664000  1
  C  1749  1  0.33354700  0.53478100  0.13271100  1
  C  1750  1  0.33590500  0.51977900  0.10554400  1
  C  1751  1  0.34844400  0.53397300  0.08008000  1
  C  1752  1  0.35811200  0.56346200  0.08224700  1
  C  1753  1  0.35356700  0.57931200  0.10812400  1
  C  1754  1  0.34215800  0.56467000  0.13324100  1
  C  1761  1  0.06315000  0.27469100  0.90424100  1
  C  1762  1  0.02784900  0.26842800  0.89765200  1
  C  1763  1  0.00329800  0.29059300  0.89255700  1
  C  1764  1  0.01419800  0.31973500  0.89357500  1
  C  1765  1  0.04900700  0.32749000  0.90042700  1
  C  1766  1  0.07339500  0.30455400  0.90579000  1
  C  1769  1  0.08410700  0.25091500  0.91466100  1
  C  1770  1  0.08666300  0.22358300  0.89998100  1
  C  1771  1  0.10144500  0.19875700  0.91378700  1
  C  1772  1  0.11165900  0.20131800  0.94310000  1
  C  1773  1  0.10631500  0.22716700  0.95886100  1
  C  1774  1  0.09379100  0.25197700  0.94427500  1
  C  1781  1  0.56315300  0.50430300  0.63557200  1
  C  1782  1  0.52783900  0.51054400  0.64215200  1
  C  1783  1  0.50330400  0.48835800  0.64720800  1
  C  1784  1  0.51422900  0.45922300  0.64619000  1
  C  1785  1  0.54904400  0.45150200  0.63933200  1
  C  1786  1  0.57340600  0.47444900  0.63396500  1
  C  1789  1  0.58395800  0.52810700  0.62498300  1
  C  1790  1  0.58653300  0.55544200  0.63966600  1
  C  1791  1  0.60117900  0.58027000  0.62575900  1
  C  1792  1  0.61154200  0.57765400  0.59649000  1
  C  1793  1  0.60629500  0.55174900  0.58079500  1
  C  1794  1  0.59372300  0.52697100  0.59540100  1
  C  1801  1  0.31429900  0.52199700  0.88463500  1
  C  1802  1  0.27899800  0.51551900  0.89100400  1
  C  1803  1  0.25424500  0.51071100  0.86896200  1
  C  1804  1  0.26493800  0.51175200  0.83980600  1
  C  1805  1  0.29974900  0.51842700  0.83188100  1
  C  1806  1  0.32431000  0.52361100  0.85473400  1
  C  1809  1  0.33523700  0.53261100  0.90836100  1
  C  1810  1  0.33775400  0.51818600  0.93584000  1
  C  1811  1  0.35194100  0.53241500  0.96067500  1
  C  1812  1  0.36148300  0.56190700  0.95798200  1
  C  1813  1  0.35644300  0.57728500  0.93189300  1
  C  1814  1  0.34455000  0.56233700  0.90711800  1
  C  1821  1  0.81427000  0.25710800  0.65508500  1
  C  1822  1  0.77895600  0.26355800  0.64871100  1
  C  1823  1  0.75419800  0.26832200  0.67075800  1
  C  1824  1  0.76489600  0.26727300  0.69991300  1
  C  1825  1  0.79970800  0.26061200  0.70784000  1
  C  1826  1  0.82426600  0.25542700  0.68498400  1
  C  1829  1  0.83507700  0.24634200  0.63133700  1
  C  1830  1  0.83767600  0.26081900  0.60388800  1
  C  1831  1  0.85181400  0.24655700  0.57904400  1
  C  1832  1  0.86152200  0.21710700  0.58177600  1
  C  1833  1  0.85644500  0.20172700  0.60786000  1
  C  1834  1  0.84444500  0.21664200  0.63261300  1
  C  1841  1  0.55444000  0.27683300  0.63397300  1
  C  1842  1  0.58976300  0.27148900  0.64136900  1
  C  1843  1  0.61353500  0.29412900  0.64754400  1
  C  1844  1  0.60167900  0.32304500  0.64553000  1
  C  1845  1  0.56688300  0.32963400  0.63784600  1
  C  1846  1  0.54331000  0.30639400  0.63186900  1
  C  1849  1  0.53441400  0.25251600  0.62348300  1
  C  1850  1  0.53195100  0.22538600  0.63854500  1
  C  1851  1  0.51752500  0.20028000  0.62498300  1
  C  1852  1  0.50757100  0.20234600  0.59557200  1
  C  1853  1  0.51277800  0.22799900  0.57947200  1
  C  1854  1  0.52509700  0.25304400  0.59377300  1
  C  1861  1  0.05448200  0.50218100  0.90571300  1
  C  1862  1  0.08982000  0.50751800  0.89835200  1
  C  1863  1  0.11358200  0.48487100  0.89217100  1
  C  1864  1  0.10171000  0.45596000  0.89417400  1
  C  1865  1  0.06691200  0.44938000  0.90185100  1
  C  1866  1  0.04334900  0.47262400  0.90783600  1
  C  1869  1  0.03458400  0.52651300  0.91635700  1
  C  1870  1  0.03209800  0.55365000  0.90130400  1
  C  1871  1  0.01777900  0.57875100  0.91496200  1
  C  1872  1  0.00766000  0.57661600  0.94432500  1
  C  1873  1  0.01278600  0.55091000  0.96035500  1
  C  1874  1  0.02517400  0.52590200  0.94603900  1
  C  1881  1  0.30328500  0.52359100  0.65707500  1
  C  1882  1  0.33861800  0.51635500  0.65157500  1
  C  1883  1  0.36266600  0.51047900  0.67406700  1
  C  1884  1  0.35106300  0.51252300  0.70301300  1
  C  1885  1  0.31625600  0.51999600  0.70982100  1
  C  1886  1  0.29243500  0.52574400  0.68669400  1
  C  1889  1  0.28320200  0.53422500  0.63283200  1
  C  1890  1  0.28068500  0.51935700  0.60559300  1
  C  1891  1  0.26667100  0.53324900  0.58049800  1
  C  1892  1  0.25726800  0.56281000  0.58268000  1
  C  1893  1  0.26239700  0.57862700  0.60849200  1
  C  1894  1  0.27425000  0.56404900  0.63349600  1
  C  1901  1  0.80326000  0.25548300  0.88265400  1
  C  1902  1  0.83860800  0.26267400  0.88815800  1
  C  1903  1  0.86265600  0.26854100  0.86566300  1
  C  1904  1  0.85104900  0.26651200  0.83671600  1
  C  1905  1  0.81623700  0.25905300  0.82991200  1
  C  1906  1  0.79242000  0.25329600  0.85304100  1
  C  1909  1  0.78329900  0.24470400  0.90690900  1
  C  1910  1  0.78071900  0.25959100  0.93413800  1
  C  1911  1  0.76675400  0.24565100  0.95923200  1
  C  1912  1  0.75717700  0.21613200  0.95698000  1
  C  1913  1  0.76230600  0.20034300  0.93115200  1
  C  1914  1  0.77426900  0.21490900  0.90618400  1
  C  1921  1  0.52214500  0.11006700  0.63612300  1
  C  1923  1  0.48915300  0.15450200  0.64076000  1
  C  1924  1  0.51944700  0.17155100  0.63652500  1
  C  1926  1  0.55318600  0.12693800  0.63236600  1
  C  1928  1  0.58542200  0.11555200  0.62423800  1
  C  1931  1  0.02246800  0.66887100  0.90368100  1
  C  1933  1  0.98930730  0.62447400  0.89935700  1
  C  1934  1  0.01970400  0.60750000  0.90341000  1
  C  1936  1  0.05354400  0.65199800  0.90709400  1
  C  1938  1  0.08586200  0.66338800  0.91481200  1
  C  1941  1  0.27406100  0.75455600  0.54945800  1
  C  1943  1  0.24121500  0.75959600  0.50503000  1
  C  1944  1  0.27158000  0.75517500  0.48814200  1
  C  1946  1  0.30507700  0.75060600  0.53264600  1
  C  1948  1  0.33717800  0.74247300  0.54416400  1
  C  1951  1  0.77383700  0.02453400  0.99035600  1
  C  1953  1  0.74101100  0.01918300  0.03469900  1
  C  1954  1  0.77129600  0.02361700  0.05167600  1
  C  1956  1  0.80485800  0.02850500  0.00716900  1
  C  1958  1  0.83695600  0.03687500  0.99576200  1
  C  1961  1  0.09552000  0.10839900  0.90398600  1
  C  1963  1  0.12931500  0.15238900  0.89906800  1
  C  1964  1  0.09924800  0.16983000  0.90276400  1
  C  1966  1  0.06470300  0.12566700  0.90714900  1
  C  1968  1  0.03215500  0.11471400  0.91501600  1
  C  1971  1  0.59526400  0.67053500  0.63583900  1
  C  1973  1  0.62917700  0.62655100  0.64038000  1
  C  1974  1  0.59899700  0.60920700  0.63681800  1
  C  1976  1  0.56440800  0.65329300  0.63296400  1
  C  1978  1  0.53180500  0.66428900  0.62549900  1
  C  1981  1  0.34363100  0.75423400  0.98866500  1
  C  1983  1  0.37732000  0.75952900  0.03263100  1
  C  1984  1  0.34718000  0.75568900  0.04993400  1
  C  1986  1  0.31284100  0.75091400  0.00589200  1
  C  1988  1  0.28041300  0.74306300  0.99481600  1
  C  1991  1  0.84374300  0.02482700  0.55111600  1
  C  1993  1  0.87737300  0.01928100  0.50721000  1
  C  1994  1  0.84730300  0.02318900  0.48984900  1
  C  1996  1  0.81293400  0.02821100  0.53391500  1
  C  1998  1  0.78052000  0.03629700  0.54491300  1
  C  2001  1  0.59652100  0.66921600  0.40320100  1
  C  2003  1  0.62911400  0.62449200  0.39937900  1
  C  2004  1  0.59853600  0.60768000  0.40325600  1
  C  2006  1  0.56535100  0.65249500  0.40698500  1
  C  2008  1  0.53266400  0.66390700  0.41353100  1
  C  2011  1  0.09626100  0.10977600  0.13669400  1
  C  2013  1  0.12893500  0.15447600  0.14043000  1
  C  2014  1  0.09830200  0.17119700  0.13649100  1
  C  2016  1  0.06507000  0.12645500  0.13296500  1
  C  2018  1  0.03244600  0.11490500  0.12652600  1
  C  2021  1  0.02179200  0.67092300  0.13632400  1
  C  2023  1  0.98844530  0.62656000  0.14034400  1
  C  2024  1  0.01883500  0.60945100  0.13680500  1
  C  2026  1  0.05271100  0.65384400  0.13288000  1
  C  2028  1  0.08555300  0.66502100  0.12655600  1
  C  2031  1  0.52174100  0.10809700  0.40344900  1
  C  2033  1  0.48839100  0.15239700  0.39933900  1
  C  2034  1  0.51877700  0.16950200  0.40284800  1
  C  2036  1  0.55267500  0.12516900  0.40686600  1
  C  2038  1  0.58554200  0.11413200  0.41325100  1
  C  2041  1  0.77105800  0.25661300  0.04951700  1
  C  2043  1  0.73795700  0.26071400  0.00506300  1
  C  2044  1  0.76838600  0.25709700  0.98804700  1
  C  2046  1  0.80203400  0.25299800  0.03253200  1
  C  2048  1  0.83481500  0.24626600  0.04360300  1
  C  2051  1  0.27114200  0.52225500  0.49018800  1
  C  2053  1  0.23795400  0.51820200  0.53458600  1
  C  2054  1  0.26833100  0.52181400  0.55169300  1
  C  2056  1  0.30208400  0.52584600  0.50717500  1
  C  2058  1  0.33482800  0.53251500  0.49603000  1
  C  2061  1  0.84632800  0.25644800  0.48859700  1
  C  2063  1  0.88005500  0.26079000  0.53274100  1
  C  2064  1  0.84979900  0.25747100  0.55003500  1
  C  2066  1  0.81558000  0.25313300  0.50589100  1
  C  2068  1  0.78268100  0.24656800  0.49501900  1
  C  2071  1  0.34630200  0.52268300  0.05110700  1
  C  2073  1  0.38009000  0.51833000  0.00705700  1
  C  2074  1  0.34985700  0.52156900  0.98971000  1
  C  2076  1  0.31555000  0.52589200  0.03379400  1
  C  2078  1  0.28258300  0.53240200  0.04452100  1
  C  2081  1  0.51336200  0.05181200  0.49076900  1
  C  2083  1  0.49248000  0.02938700  0.53436600  1
  C  2084  1  0.50956300  0.05069100  0.55115900  1
  C  2086  1  0.53183600  0.07262300  0.50769200  1
  C  2088  1  0.55541700  0.09297500  0.49769200  1
  C  2091  1  0.01326600  0.72721800  0.04912200  1
  C  2093  1  0.99244535  0.74951000  0.00544300  1
  C  2094  1  0.00967900  0.72822900  0.98872400  1
  C  2096  1  0.03190100  0.70644600  0.03228400  1
  C  2098  1  0.05547200  0.68622500  0.04244200  1
  C  2101  1  0.26233900  0.60935300  0.60781300  1
  C  2103  1  0.24040800  0.65320600  0.62903500  1
  C  2104  1  0.25960500  0.66975200  0.60885200  1
  C  2106  1  0.28348600  0.62588600  0.58845400  1
  C  2108  1  0.30796100  0.61440300  0.56934400  1
  C  2111  1  0.76224800  0.16962000  0.93182700  1
  C  2113  1  0.74013600  0.12578200  0.91070400  1
  C  2114  1  0.75936400  0.10922900  0.93085700  1
  C  2116  1  0.78348500  0.15308600  0.95112700  1
  C  2118  1  0.80801500  0.16465800  0.97019300  1
  C  2121  1  0.10502600  0.05222200  0.05042800  1
  C  2123  1  0.12529100  0.02940800  0.00685100  1
  C  2124  1  0.10750500  0.05029300  0.99003400  1
  C  2126  1  0.08582800  0.07258600  0.03350400  1
  C  2128  1  0.06212600  0.09280400  0.04359900  1
  C  2131  1  0.60480900  0.72690100  0.48940900  1
  C  2133  1  0.62529700  0.74952600  0.53300800  1
  C  2134  1  0.60734300  0.72871500  0.54980100  1
  C  2136  1  0.58543000  0.70664900  0.50631000  1
  C  2138  1  0.56158400  0.68667300  0.49612400  1
  C  2141  1  0.35592500  0.60800400  0.93219300  1
  C  2143  1  0.37745800  0.65187800  0.91078200  1
  C  2144  1  0.35742200  0.66838600  0.93042800  1
  C  2146  1  0.33392900  0.62446800  0.95096200  1
  C  2148  1  0.30923100  0.61284800  0.96979700  1
  C  2151  1  0.85598700  0.17100100  0.60755400  1
  C  2153  1  0.87743300  0.12716600  0.62911100  1
  C  2154  1  0.85760000  0.11061700  0.60936200  1
  C  2156  1  0.83416300  0.15450500  0.58867100  1
  C  2158  1  0.80963600  0.16619400  0.56967200  1
  C  2161  1  0.85516200  0.16900300  0.43228900  1
  C  2163  1  0.87603900  0.12550200  0.40953200  1
  C  2164  1  0.85942400  0.10852700  0.43093000  1
  C  2166  1  0.83711500  0.15188300  0.45319000  1
  C  2168  1  0.81373800  0.16165200  0.47379900  1
  C  2171  1  0.35486900  0.61007000  0.10768100  1
  C  2173  1  0.37628100  0.65349300  0.13022900  1
  C  2174  1  0.35943200  0.67051300  0.10899100  1
  C  2176  1  0.33654800  0.62724400  0.08700300  1
  C  2178  1  0.31282100  0.61747300  0.06673900  1
  C  2181  1  0.76265400  0.17027100  0.10739700  1
  C  2183  1  0.74172100  0.12683500  0.13018100  1
  C  2184  1  0.75953400  0.10982200  0.10948400  1
  C  2186  1  0.78195000  0.15312300  0.08730900  1
  C  2188  1  0.80581900  0.16306800  0.06725100  1
  C  2191  1  0.26234200  0.60856400  0.43237300  1
  C  2193  1  0.24155000  0.65204800  0.40958800  1
  C  2194  1  0.25939000  0.66902500  0.43029900  1
  C  2196  1  0.28166700  0.62567100  0.45248500  1
  C  2198  1  0.30554900  0.61572000  0.47256900  1
  C  2201  1  0.01186700  0.55167700  0.99106100  1
  C  2203  1  0.99008035  0.52961300  0.03452500  1
  C  2204  1  0.00772800  0.55051100  0.05137400  1
  C  2206  1  0.03147400  0.57186900  0.00792700  1
  C  2208  1  0.05526800  0.59180500  0.99672300  1
  C  2211  1  0.51184800  0.22717400  0.54876400  1
  C  2213  1  0.49030900  0.24934700  0.50526600  1
  C  2214  1  0.50779200  0.22833800  0.48843000  1
  C  2216  1  0.53125700  0.20684500  0.53191300  1
  C  2218  1  0.55487800  0.18680900  0.54306600  1
  C  2221  1  0.60681100  0.55220300  0.55006800  1
  C  2223  1  0.62749000  0.52939800  0.50661600  1
  C  2224  1  0.60954000  0.55008500  0.48971900  1
  C  2226  1  0.58698600  0.57223000  0.53317800  1
  C  2228  1  0.56358300  0.59241500  0.54436800  1
  C  2231  1  0.10680200  0.22665700  0.98959600  1
  C  2233  1  0.12724000  0.24956800  0.03307600  1
  C  2234  1  0.10950100  0.22874800  0.04996200  1
  C  2236  1  0.08717900  0.20646200  0.00646000  1
  C  2238  1  0.06402800  0.18610100  0.99514100  1
  C  2241  1  0.64927400  0.99545521  0.65340600  1
  C  2243  1  0.69770500  0.98731120  0.68511800  1
  C  2244  1  0.71887300  0.00578600  0.66815000  1
  C  2246  1  0.67027500  0.01367400  0.63561100  1
  C  2248  1  0.65906900  0.02625000  0.60987400  1
  C  2251  1  0.14931300  0.78361500  0.88645000  1
  C  2253  1  0.19771500  0.79171000  0.85469800  1
  C  2254  1  0.21890200  0.77326700  0.87168700  1
  C  2256  1  0.17033800  0.76543100  0.90425600  1
  C  2258  1  0.15925100  0.75290600  0.93000700  1
  C  2261  1  0.40008900  0.77181800  0.66468300  1
  C  2263  1  0.44818000  0.80384900  0.67315100  1
  C  2264  1  0.46966400  0.78698900  0.65483600  1
  C  2266  1  0.42141600  0.75413800  0.64662400  1
  C  2268  1  0.41062600  0.72834600  0.63395600  1
  C  2271  1  0.90011930  0.00720700  0.87516300  1
  C  2273  1  0.94818530  0.97513720  0.86675300  1
  C  2274  1  0.96966830  0.99200321  0.88506200  1
  C  2276  1  0.92144430  0.02492900  0.89318700  1
  C  2278  1  0.91052330  0.05074100  0.90581500  1
  C  2281  1  0.46833800  0.78385300  0.38626100  1
  C  2283  1  0.41980100  0.79253100  0.35482000  1
  C  2284  1  0.39865800  0.77389100  0.37162800  1
  C  2286  1  0.44735400  0.76546500  0.40389600  1
  C  2288  1  0.45862300  0.75256800  0.42945100  1
  C  2291  1  0.96828230  0.99503121  0.15342800  1
  C  2293  1  0.91979430  0.98638520  0.18493000  1
  C  2294  1  0.89861200  0.00497800  0.16810300  1
  C  2296  1  0.94725530  0.01337400  0.13578800  1
  C  2298  1  0.95838630  0.02622600  0.11021500  1
  C  2301  1  0.71822600  0.00631400  0.37522000  1
  C  2303  1  0.67005800  0.97429020  0.36708200  1
  C  2304  1  0.64858500  0.99146621  0.38511400  1
  C  2306  1  0.69691100  0.02432700  0.39294600  1
  C  2308  1  0.70771400  0.05030000  0.40523400  1
  C  2311  1  0.21822100  0.77264600  0.16451500  1
  C  2313  1  0.17006800  0.80469300  0.17260500  1
  C  2314  1  0.14859800  0.78751600  0.15457400  1
  C  2316  1  0.19691300  0.75459900  0.14680700  1
  C  2318  1  0.20786500  0.72861900  0.13454200  1
  C  2321  1  0.14930800  0.49523600  0.15346100  1
  C  2323  1  0.19760500  0.48685300  0.18526700  1
  C  2324  1  0.21909000  0.50487400  0.16809000  1
  C  2326  1  0.17060700  0.51301000  0.13547300  1
  C  2328  1  0.15963900  0.52541200  0.10958100  1
  C  2331  1  0.64930300  0.28369600  0.38630000  1
  C  2333  1  0.69758900  0.29194600  0.35445300  1
  C  2334  1  0.71906400  0.27394600  0.37166500  1
  C  2336  1  0.67060000  0.26595400  0.40431900  1
  C  2338  1  0.65973100  0.25364600  0.43023600  1
  C  2341  1  0.89977300  0.27302100  0.16438000  1
  C  2343  1  0.94847630  0.30428700  0.17320200  1
  C  2344  1  0.96956630  0.28746200  0.15453500  1
  C  2346  1  0.92072130  0.25535700  0.14598900  1
  C  2348  1  0.90940530  0.22989500  0.13298200  1
  C  2351  1  0.39988400  0.50601000  0.37537400  1
  C  2353  1  0.44854200  0.47469000  0.36656400  1
  C  2354  1  0.46965600  0.49150600  0.38521600  1
  C  2356  1  0.42085300  0.52369100  0.39373500  1
  C  2358  1  0.40942200  0.54916600  0.40672000  1
  C  2361  1  0.96782930  0.28409700  0.88716400  1
  C  2363  1  0.91970030  0.29267800  0.85525300  1
  C  2364  1  0.89819100  0.27443700  0.87217600  1
  C  2366  1  0.94649030  0.26610200  0.90489700  1
  C  2368  1  0.95737430  0.25346300  0.93069600  1
  C  2371  1  0.46782800  0.49483800  0.65257700  1
  C  2373  1  0.41970700  0.48634200  0.68451500  1
  C  2374  1  0.39819200  0.50454600  0.66755400  1
  C  2376  1  0.44648000  0.51279200  0.63481300  1
  C  2378  1  0.45726200  0.52535700  0.60899500  1
  C  2381  1  0.21875800  0.50564800  0.87564000  1
  C  2383  1  0.17018300  0.47406600  0.86750600  1
  C  2384  1  0.14908500  0.49116900  0.88591400  1
  C  2386  1  0.19781200  0.52360000  0.89373700  1
  C  2388  1  0.20904700  0.54934000  0.90624200  1
  C  2391  1  0.71870000  0.27334900  0.66409100  1
  C  2393  1  0.67013400  0.30493900  0.67221200  1
  C  2394  1  0.64903000  0.28782300  0.65382500  1
  C  2396  1  0.69775200  0.25535100  0.64603600  1
  C  2398  1  0.70912800  0.22960200  0.63355700  1
  C  2401  1  0.56145600  0.92084420  0.63936200  1
  C  2403  1  0.57412900  0.87456400  0.66185600  1
  C  2404  1  0.55981800  0.85952200  0.63810200  1
  C  2406  1  0.54665500  0.90577020  0.61532400  1
  C  2408  1  0.53416500  0.91956420  0.59069000  1
  C  2411  1  0.06133700  0.85810900  0.90052900  1
  C  2413  1  0.07395300  0.90440620  0.87804000  1
  C  2414  1  0.05973900  0.91941620  0.90185800  1
  C  2416  1  0.04678300  0.87317600  0.92467400  1
  C  2418  1  0.03450000  0.85943900  0.94936400  1
  C  2421  1  0.31158600  0.75755000  0.73858500  1
  C  2423  1  0.32378900  0.78011800  0.78485500  1
  C  2424  1  0.30953600  0.75624200  0.79977200  1
  C  2426  1  0.29698900  0.73334500  0.75355500  1
  C  2428  1  0.28483600  0.70861100  0.73977400  1
  C  2431  1  0.81169200  0.02146400  0.80122100  1
  C  2433  1  0.82381600  0.99887221  0.75495200  1
  C  2434  1  0.80958900  0.02274800  0.74001900  1
  C  2436  1  0.79699700  0.04564200  0.78626700  1
  C  2438  1  0.78478700  0.07033100  0.80016100  1
  C  2441  1  0.55621900  0.85815500  0.40138100  1
  C  2443  1  0.54450200  0.90442720  0.37858500  1
  C  2444  1  0.55802400  0.91945320  0.40266800  1
  C  2446  1  0.57026800  0.87319300  0.42575200  1
  C  2448  1  0.58195600  0.85934500  0.45062600  1
  C  2451  1  0.05635500  0.92086320  0.13835200  1
  C  2453  1  0.04467900  0.87458700  0.16116500  1
  C  2454  1  0.05810700  0.85958000  0.13703100  1
  C  2456  1  0.07016000  0.90581820  0.11389500  1
  C  2458  1  0.08165200  0.91959420  0.08896400  1
  C  2461  1  0.80657600  0.02041000  0.30127300  1
  C  2463  1  0.79455800  0.99760121  0.25509800  1
  C  2464  1  0.80808300  0.02170700  0.24008100  1
  C  2466  1  0.82051000  0.04482300  0.28621000  1
  C  2468  1  0.83227700  0.06972700  0.29991900  1
  C  2471  1  0.30646000  0.75855700  0.23852500  1
  C  2473  1  0.29448700  0.78133200  0.28471300  1
  C  2474  1  0.30802200  0.75722500  0.29972400  1
  C  2476  1  0.32052800  0.73416800  0.25354500  1
  C  2478  1  0.33239100  0.70933400  0.23970100  1
  C  2481  1  0.06142400  0.42087400  0.13916600  1
  C  2483  1  0.07355000  0.37463600  0.16188700  1
  C  2484  1  0.06003500  0.35958000  0.13782300  1
  C  2486  1  0.04737000  0.40580000  0.11482100  1
  C  2488  1  0.03546900  0.41960800  0.08999000  1
  C  2491  1  0.56134000  0.35802000  0.40059100  1
  C  2493  1  0.57340100  0.40424900  0.37781700  1
  C  2494  1  0.56001500  0.41929900  0.40194100  1
  C  2496  1  0.54757200  0.37311300  0.42503100  1
  C  2498  1  0.53590400  0.35939300  0.44993800  1
  C  2501  1  0.81165100  0.25811400  0.23853600  1
  C  2503  1  0.82377100  0.28066700  0.28487800  1
  C  2504  1  0.80985100  0.25667400  0.29984300  1
  C  2506  1  0.79737400  0.23379500  0.25354500  1
  C  2508  1  0.78542100  0.20900600  0.23974900  1
  C  2511  1  0.31178000  0.52080000  0.30121000  1
  C  2513  1  0.32385200  0.49818600  0.25489700  1
  C  2514  1  0.30990400  0.52214200  0.23989000  1
  C  2516  1  0.29734300  0.54505400  0.28619500  1
  C  2518  1  0.28527800  0.56979500  0.30007800  1
  C  2521  1  0.05606700  0.35810900  0.90226900  1
  C  2523  1  0.04457200  0.40442100  0.87946300  1
  C  2524  1  0.05828300  0.41940600  0.90349900  1
  C  2526  1  0.07030100  0.37310900  0.92659100  1
  C  2528  1  0.08197700  0.35923900  0.95145700  1
  C  2531  1  0.55616900  0.42089800  0.63747100  1
  C  2533  1  0.54473700  0.37458000  0.66029000  1
  C  2534  1  0.55829100  0.35961700  0.63617500  1
  C  2536  1  0.57010000  0.40589400  0.61303500  1
  C  2538  1  0.58154000  0.41969900  0.58810200  1
  C  2541  1  0.30655800  0.52030000  0.80121100  1
  C  2543  1  0.29398800  0.49782300  0.75490200  1
  C  2544  1  0.30800900  0.52173800  0.73988000  1
  C  2546  1  0.32094000  0.54454100  0.78614000  1
  C  2548  1  0.33314800  0.56927100  0.79988400  1
  C  2551  1  0.80646400  0.25871600  0.73851800  1
  C  2553  1  0.79398400  0.28123600  0.78481600  1
  C  2554  1  0.80796700  0.25731900  0.79985900  1
  C  2556  1  0.82094500  0.23450500  0.75357900  1
  C  2558  1  0.83320700  0.20981400  0.73972600  1
  N  642  1  0.96314300  0.23368900  0.63936500  1
  N  645  1  0.02108000  0.26510100  0.63167800  1
  N  652  1  0.46337100  0.76252000  0.90081300  1
  N  655  1  0.52148300  0.73107100  0.90785800  1
  N  662  1  0.71511100  0.86662700  0.53441900  1
  N  665  1  0.77318200  0.85871700  0.50312000  1
  N  672  1  0.21489700  0.12944900  0.00531500  1
  N  675  1  0.27286800  0.13753200  0.03669300  1
  N  682  1  0.59785700  0.23163300  0.90085700  1
  N  685  1  0.54032600  0.26379500  0.90746000  1
  N  692  1  0.09767400  0.76454300  0.63858600  1
  N  695  1  0.03995700  0.73239800  0.63252600  1
  N  702  1  0.84593400  0.86616300  0.00330300  1
  N  705  1  0.78827300  0.85941000  0.03538200  1
  N  712  1  0.34602500  0.12989600  0.53653800  1
  N  715  1  0.28843600  0.13690900  0.50442700  1
  N  722  1  0.09846000  0.76256800  0.40050700  1
  N  725  1  0.03997500  0.73153800  0.40753600  1
  N  732  1  0.59825300  0.23363200  0.13925900  1
  N  735  1  0.53967900  0.26464600  0.13233200  1
  N  742  1  0.46262400  0.76459700  0.13890100  1
  N  745  1  0.52074000  0.73291300  0.13263300  1
  N  752  1  0.96255900  0.23159200  0.40078700  1
  N  755  1  0.02071900  0.26333200  0.40708000  1
  N  762  1  0.21200000  0.36796900  0.03447800  1
  N  765  1  0.27017000  0.36132000  0.00300600  1
  N  772  1  0.71203300  0.62823500  0.50517500  1
  N  775  1  0.77011500  0.63478200  0.53669400  1
  N  782  1  0.34865700  0.36772600  0.50337000  1
  N  785  1  0.29083300  0.36176100  0.53539100  1
  N  792  1  0.84866800  0.62861500  0.03642800  1
  N  795  1  0.79083600  0.63447000  0.00429900  1
  N  802  1  0.96637300  0.13953900  0.50502300  1
  N  805  1  0.00049100  0.17941900  0.53686100  1
  N  812  1  0.46622400  0.85663900  0.03479500  1
  N  815  1  0.50065000  0.81681500  0.00310200  1
  N  822  1  0.71378600  0.73242900  0.62751700  1
  N  825  1  0.75205900  0.76380600  0.59007000  1
  N  832  1  0.21357700  0.26379300  0.91219500  1
  N  835  1  0.25194800  0.23240000  0.94954700  1
  N  842  1  0.59506500  0.13994100  0.03619800  1
  N  845  1  0.55963000  0.17903500  0.00431900  1
  N  852  1  0.09506200  0.85627200  0.50365600  1
  N  855  1  0.05926600  0.81735600  0.53549700  1
  N  862  1  0.84770700  0.73109900  0.91264200  1
  N  865  1  0.80785400  0.76240900  0.94906100  1
  N  872  1  0.34763300  0.26517200  0.62722800  1
  N  875  1  0.30815400  0.23379900  0.59061700  1
  N  882  1  0.34498500  0.26348400  0.41119600  1
  N  885  1  0.31170800  0.23131000  0.45122900  1
  N  892  1  0.84509500  0.73274800  0.12857800  1
  N  895  1  0.81131000  0.76503600  0.08891400  1
  N  902  1  0.21529300  0.26482700  0.12817500  1
  N  905  1  0.25082700  0.23253900  0.08950000  1
  N  912  1  0.71505100  0.73128600  0.41158000  1
  N  915  1  0.75064100  0.76349300  0.45027900  1
  N  922  1  0.46409900  0.63982400  0.00520600  1
  N  925  1  0.49950300  0.67869800  0.03715500  1
  N  932  1  0.96427900  0.35636700  0.53458600  1
  N  935  1  0.99936400  0.31726300  0.50268200  1
  N  942  1  0.09716600  0.64004800  0.53593900  1
  N  945  1  0.06132000  0.67862400  0.50393400  1
  N  952  1  0.59694000  0.35616100  0.00375200  1
  N  955  1  0.56149500  0.31732300  0.03571200  1
  N  962  1  0.13562900  0.09159400  0.67712100  1
  N  965  1  0.17545200  0.12638200  0.64422000  1
  N  972  1  0.63564400  0.90467800  0.86270900  1
  N  975  1  0.67550400  0.86994500  0.89564900  1
  N  982  1  0.88613300  0.90425700  0.67725600  1
  N  985  1  0.92654800  0.87156900  0.64275300  1
  N  992  1  0.38614300  0.09197000  0.86263800  1
  N  995  1  0.42656600  0.12468700  0.89709000  1
  N  1002  1  0.92497600  0.90530000  0.36275800  1
  N  1005  1  0.88517600  0.87018100  0.39535400  1
  N  1012  1  0.42496000  0.09084600  0.17696400  1
  N  1015  1  0.38508800  0.12589100  0.14434000  1
  N  1022  1  0.17519800  0.09097000  0.36294100  1
  N  1025  1  0.13480400  0.12424800  0.39687900  1
  N  1032  1  0.67520200  0.90524700  0.17675800  1
  N  1035  1  0.63481400  0.87194700  0.14284500  1
  N  1042  1  0.63545800  0.59144200  0.17730200  1
  N  1045  1  0.67584400  0.62540700  0.14404900  1
  N  1052  1  0.13545600  0.40465600  0.36242700  1
  N  1055  1  0.17582100  0.37073300  0.39574900  1
  N  1062  1  0.38630100  0.40506000  0.17729600  1
  N  1065  1  0.42599800  0.37241400  0.14212500  1
  N  1072  1  0.88637400  0.59117300  0.36248500  1
  N  1075  1  0.92612100  0.62381400  0.39759900  1
  N  1082  1  0.42483700  0.40532300  0.86338000  1
  N  1085  1  0.38436200  0.37094100  0.89616300  1
  N  1092  1  0.92483900  0.59089700  0.67638800  1
  N  1095  1  0.88436000  0.62521500  0.64353400  1
  N  1102  1  0.67535700  0.59055400  0.86318900  1
  N  1105  1  0.63565500  0.62372300  0.89783800  1
  N  1112  1  0.17531300  0.40569400  0.67651400  1
  N  1115  1  0.13559200  0.37248800  0.64193100  1
  N  1122  1  0.04605000  0.01264000  0.66125500  1
  N  1125  1  0.01743400  0.98468600  0.61648700  1
  N  1132  1  0.54584300  0.98356200  0.87860800  1
  N  1135  1  0.51753100  0.01149100  0.92354700  1
  N  1142  1  0.79591400  0.88815200  0.75544000  1
  N  1145  1  0.76750400  0.84310500  0.78320300  1
  N  1152  1  0.29597800  0.10808200  0.78436600  1
  N  1155  1  0.26751600  0.15308800  0.75661000  1
  N  1162  1  0.01548000  0.98359500  0.37918200  1
  N  1165  1  0.04270200  0.01151300  0.42459800  1
  N  1172  1  0.51569200  0.01265500  0.16058400  1
  N  1175  1  0.54261800  0.98473600  0.11502900  1
  N  1182  1  0.26566400  0.10682400  0.28451500  1
  N  1185  1  0.29282100  0.15229100  0.25655600  1
  N  1192  1  0.76555900  0.88936400  0.25529800  1
  N  1195  1  0.79283600  0.84393600  0.28320500  1
  N  1202  1  0.54543700  0.51271000  0.16131300  1
  N  1205  1  0.51820100  0.48471700  0.11595100  1
  N  1212  1  0.04524600  0.48340700  0.37839000  1
  N  1215  1  0.01838500  0.51142600  0.42390800  1
  N  1222  1  0.29578900  0.38875900  0.25544500  1
  N  1225  1  0.26797200  0.34350000  0.28321800  1
  N  1232  1  0.79591600  0.60737400  0.28432400  1
  N  1235  1  0.76794100  0.65251900  0.25651300  1
  N  1242  1  0.51535400  0.48359000  0.88008700  1
  N  1245  1  0.54291700  0.51142200  0.92541200  1
  N  1252  1  0.01557200  0.51264900  0.65969600  1
  N  1255  1  0.04272300  0.48481900  0.61417800  1
  N  1262  1  0.76519700  0.60696600  0.78433800  1
  N  1265  1  0.79319700  0.65207000  0.75646000  1
  N  1272  1  0.26515400  0.38930800  0.75538400  1
  N  1275  1  0.29319300  0.34424500  0.78326500  1
  N  1922  1  0.49162000  0.12507200  0.63936500  1
  N  1925  1  0.54955700  0.15648400  0.63167800  1
  N  1932  1  0.99184835  0.65390300  0.90081300  1
  N  1935  1  0.04996000  0.62245400  0.90785800  1
  N  1942  1  0.24358800  0.75801000  0.53441900  1
  N  1945  1  0.30165900  0.75010000  0.50312000  1
  N  1952  1  0.74337400  0.02083200  0.00531500  1
  N  1955  1  0.80134500  0.02891500  0.03669300  1
  N  1962  1  0.12633400  0.12301600  0.90085700  1
  N  1965  1  0.06880300  0.15517800  0.90746000  1
  N  1972  1  0.62615100  0.65592600  0.63858600  1
  N  1975  1  0.56843400  0.62378100  0.63252600  1
  N  1982  1  0.37441100  0.75754600  0.00330300  1
  N  1985  1  0.31675000  0.75079300  0.03538200  1
  N  1992  1  0.87450200  0.02127900  0.53653800  1
  N  1995  1  0.81691300  0.02829200  0.50442700  1
  N  2002  1  0.62693700  0.65395100  0.40050700  1
  N  2005  1  0.56845200  0.62292100  0.40753600  1
  N  2012  1  0.12673000  0.12501500  0.13925900  1
  N  2015  1  0.06815600  0.15602900  0.13233200  1
  N  2022  1  0.99110135  0.65598000  0.13890100  1
  N  2025  1  0.04921700  0.62429600  0.13263300  1
  N  2032  1  0.49103600  0.12297500  0.40078700  1
  N  2035  1  0.54919600  0.15471500  0.40708000  1
  N  2042  1  0.74047700  0.25935200  0.03447800  1
  N  2045  1  0.79864700  0.25270300  0.00300600  1
  N  2052  1  0.24051000  0.51961800  0.50517500  1
  N  2055  1  0.29859200  0.52616500  0.53669400  1
  N  2062  1  0.87713400  0.25910900  0.50337000  1
  N  2065  1  0.81931000  0.25314400  0.53539100  1
  N  2072  1  0.37714500  0.51999800  0.03642800  1
  N  2075  1  0.31931300  0.52585300  0.00429900  1
  N  2082  1  0.49485000  0.03092200  0.50502300  1
  N  2085  1  0.52896800  0.07080200  0.53686100  1
  N  2092  1  0.99470135  0.74802200  0.03479500  1
  N  2095  1  0.02912700  0.70819800  0.00310200  1
  N  2102  1  0.24226300  0.62381200  0.62751700  1
  N  2105  1  0.28053600  0.65518900  0.59007000  1
  N  2112  1  0.74205400  0.15517600  0.91219500  1
  N  2115  1  0.78042500  0.12378300  0.94954700  1
  N  2122  1  0.12354200  0.03132400  0.03619800  1
  N  2125  1  0.08810700  0.07041800  0.00431900  1
  N  2132  1  0.62353900  0.74765500  0.50365600  1
  N  2135  1  0.58774300  0.70873900  0.53549700  1
  N  2142  1  0.37618400  0.62248200  0.91264200  1
  N  2145  1  0.33633100  0.65379200  0.94906100  1
  N  2152  1  0.87611000  0.15655500  0.62722800  1
  N  2155  1  0.83663100  0.12518200  0.59061700  1
  N  2162  1  0.87346200  0.15486700  0.41119600  1
  N  2165  1  0.84018500  0.12269300  0.45122900  1
  N  2172  1  0.37357200  0.62413100  0.12857800  1
  N  2175  1  0.33978700  0.65641900  0.08891400  1
  N  2182  1  0.74377000  0.15621000  0.12817500  1
  N  2185  1  0.77930400  0.12392200  0.08950000  1
  N  2192  1  0.24352800  0.62266900  0.41158000  1
  N  2195  1  0.27911800  0.65487600  0.45027900  1
  N  2202  1  0.99257635  0.53120700  0.00520600  1
  N  2205  1  0.02798000  0.57008100  0.03715500  1
  N  2212  1  0.49275600  0.24775000  0.53458600  1
  N  2215  1  0.52784100  0.20864600  0.50268200  1
  N  2222  1  0.62564300  0.53143100  0.53593900  1
  N  2225  1  0.58979700  0.57000700  0.50393400  1
  N  2232  1  0.12541700  0.24754400  0.00375200  1
  N  2235  1  0.08997200  0.20870600  0.03571200  1
  N  2242  1  0.66410600  0.98297720  0.67712100  1
  N  2245  1  0.70392900  0.01776500  0.64422000  1
  N  2252  1  0.16412100  0.79606100  0.86270900  1
  N  2255  1  0.20398100  0.76132800  0.89564900  1
  N  2262  1  0.41461000  0.79564000  0.67725600  1
  N  2265  1  0.45502500  0.76295200  0.64275300  1
  N  2272  1  0.91462030  0.98335320  0.86263800  1
  N  2275  1  0.95504330  0.01607000  0.89709000  1
  N  2282  1  0.45345300  0.79668300  0.36275800  1
  N  2285  1  0.41365300  0.76156400  0.39535400  1
  N  2292  1  0.95343730  0.98222920  0.17696400  1
  N  2295  1  0.91356530  0.01727400  0.14434000  1
  N  2302  1  0.70367500  0.98235320  0.36294100  1
  N  2305  1  0.66328100  0.01563100  0.39687900  1
  N  2312  1  0.20367900  0.79663000  0.17675800  1
  N  2315  1  0.16329100  0.76333000  0.14284500  1
  N  2322  1  0.16393500  0.48282500  0.17730200  1
  N  2325  1  0.20432100  0.51679000  0.14404900  1
  N  2332  1  0.66393300  0.29603900  0.36242700  1
  N  2335  1  0.70429800  0.26211600  0.39574900  1
  N  2342  1  0.91477830  0.29644300  0.17729600  1
  N  2345  1  0.95447530  0.26379700  0.14212500  1
  N  2352  1  0.41485100  0.48255600  0.36248500  1
  N  2355  1  0.45459800  0.51519700  0.39759900  1
  N  2362  1  0.95331430  0.29670600  0.86338000  1
  N  2365  1  0.91283930  0.26232400  0.89616300  1
  N  2372  1  0.45331600  0.48228000  0.67638800  1
  N  2375  1  0.41283700  0.51659800  0.64353400  1
  N  2382  1  0.20383400  0.48193700  0.86318900  1
  N  2385  1  0.16413200  0.51510600  0.89783800  1
  N  2392  1  0.70379000  0.29707700  0.67651400  1
  N  2395  1  0.66406900  0.26387100  0.64193100  1
  N  2402  1  0.57452700  0.90402320  0.66125500  1
  N  2405  1  0.54591100  0.87606900  0.61648700  1
  N  2412  1  0.07432000  0.87494500  0.87860800  1
  N  2415  1  0.04600800  0.90287420  0.92354700  1
  N  2422  1  0.32439100  0.77953500  0.75544000  1
  N  2425  1  0.29598100  0.73448800  0.78320300  1
  N  2432  1  0.82445500  0.99946521  0.78436600  1
  N  2435  1  0.79599300  0.04447100  0.75661000  1
  N  2442  1  0.54395700  0.87497800  0.37918200  1
  N  2445  1  0.57117900  0.90289620  0.42459800  1
  N  2452  1  0.04416900  0.90403820  0.16058400  1
  N  2455  1  0.07109500  0.87611900  0.11502900  1
  N  2462  1  0.79414100  0.99820721  0.28451500  1
  N  2465  1  0.82129800  0.04367400  0.25655600  1
  N  2472  1  0.29403600  0.78074700  0.25529800  1
  N  2475  1  0.32131300  0.73531900  0.28320500  1
  N  2482  1  0.07391400  0.40409300  0.16131300  1
  N  2485  1  0.04667800  0.37610000  0.11595100  1
  N  2492  1  0.57372300  0.37479000  0.37839000  1
  N  2495  1  0.54686200  0.40280900  0.42390800  1
  N  2502  1  0.82426600  0.28014200  0.25544500  1
  N  2505  1  0.79644900  0.23488300  0.28321800  1
  N  2512  1  0.32439300  0.49875700  0.28432400  1
  N  2515  1  0.29641800  0.54390200  0.25651300  1
  N  2522  1  0.04383100  0.37497300  0.88008700  1
  N  2525  1  0.07139400  0.40280500  0.92541200  1
  N  2532  1  0.54404900  0.40403200  0.65969600  1
  N  2535  1  0.57120000  0.37620200  0.61417800  1
  N  2542  1  0.29367400  0.49834900  0.78433800  1
  N  2545  1  0.32167400  0.54345300  0.75646000  1
  N  2552  1  0.79363100  0.28069100  0.75538400  1
  N  2555  1  0.82167000  0.23562800  0.78326500  1
  O  17  1  0.98118700  0.07615900  0.62986000  1
  O  18  1  0.01222600  0.16630700  0.66907700  1
  O  37  1  0.48121000  0.91998800  0.91009300  1
  O  38  1  0.51230200  0.82990800  0.87076700  1
  O  57  1  0.73176900  0.85677800  0.69173300  1
  O  58  1  0.76407300  0.89600500  0.60178800  1
  O  77  1  0.23180400  0.13944200  0.84808100  1
  O  78  1  0.26422900  0.10032700  0.93810500  1
  O  97  1  0.58091400  0.07494900  0.91291000  1
  O  98  1  0.54866200  0.16411500  0.87178800  1
  O  117  1  0.08093000  0.92119400  0.62699800  1
  O  118  1  0.04865700  0.83205300  0.66807200  1
  O  137  1  0.83037300  0.85397600  0.84687600  1
  O  138  1  0.79686200  0.89498100  0.93584600  1
  O  157  1  0.33037000  0.14227400  0.69288100  1
  O  158  1  0.29664300  0.10134300  0.60389400  1
  O  177  1  0.07910100  0.91991000  0.41163000  1
  O  178  1  0.04959400  0.83058600  0.37063800  1
  O  197  1  0.57909300  0.07638300  0.12807000  1
  O  198  1  0.54928000  0.16565100  0.16913600  1
  O  217  1  0.32941900  0.13885700  0.34800800  1
  O  218  1  0.29647000  0.09995300  0.43838500  1
  O  237  1  0.82942000  0.85745900  0.19180400  1
  O  238  1  0.79646500  0.89625000  0.10136800  1
  O  257  1  0.48064200  0.92100700  0.12532600  1
  O  258  1  0.51203200  0.83274000  0.16796700  1
  O  277  1  0.98067200  0.07529300  0.41455900  1
  O  278  1  0.01178600  0.16342900  0.37179300  1
  O  297  1  0.23026600  0.14146800  0.19305300  1
  O  298  1  0.26459300  0.10091100  0.10366900  1
  O  317  1  0.73028700  0.85462600  0.34678800  1
  O  318  1  0.76477300  0.89511500  0.43613700  1
  O  337  1  0.48131800  0.57610500  0.12939200  1
  O  338  1  0.51339200  0.66662900  0.16841800  1
  O  357  1  0.98133800  0.42002900  0.41047100  1
  O  358  1  0.01329300  0.32958600  0.37130200  1
  O  377  1  0.23185100  0.35676700  0.19155400  1
  O  378  1  0.26163500  0.39769800  0.10223300  1
  O  397  1  0.73191300  0.63932700  0.34821200  1
  O  398  1  0.76196400  0.59849800  0.43755000  1
  O  417  1  0.08099800  0.57491300  0.41306000  1
  O  418  1  0.04727900  0.66430700  0.37237000  1
  O  437  1  0.58091600  0.42115000  0.12660400  1
  O  438  1  0.54713700  0.33183500  0.16733300  1
  O  457  1  0.33033400  0.35388400  0.34721800  1
  O  458  1  0.29854300  0.39652700  0.43538500  1
  O  477  1  0.83033400  0.64225300  0.19250600  1
  O  478  1  0.79878700  0.59966900  0.10433100  1
  O  497  1  0.57875200  0.41973800  0.91237700  1
  O  498  1  0.54731800  0.33015300  0.87185900  1
  O  517  1  0.07874200  0.57650500  0.62729700  1
  O  518  1  0.04723900  0.66613400  0.66780300  1
  O  537  1  0.82964500  0.63876600  0.84805800  1
  O  538  1  0.79877000  0.59856700  0.93804000  1
  O  557  1  0.32959700  0.35748800  0.69164200  1
  O  558  1  0.29872600  0.39768000  0.60169200  1
  O  577  1  0.98100200  0.42093500  0.62451800  1
  O  578  1  0.01399500  0.33241900  0.66678100  1
  O  597  1  0.48103700  0.57533600  0.91519600  1
  O  598  1  0.51412000  0.66389400  0.87306300  1
  O  617  1  0.73015600  0.64166200  0.69277500  1
  O  618  1  0.76242000  0.59963600  0.60388100  1
  O  637  1  0.23014300  0.35459900  0.84696900  1
  O  638  1  0.26244700  0.39654600  0.93587600  1
  O  649  1  0.08324800  0.23893000  0.62762500  1
  O  659  1  0.58382900  0.75742200  0.91137300  1
  O  669  1  0.83530200  0.85428700  0.52974100  1
  O  679  1  0.33485000  0.13984600  0.00973800  1
  O  689  1  0.47768700  0.23839600  0.91133700  1
  O  699  1  0.97717100  0.75802300  0.62916500  1
  O  709  1  0.72564700  0.85519900  0.00955600  1
  O  719  1  0.22599600  0.13905900  0.53061100  1
  O  729  1  0.98746200  0.76118600  0.43310200  1
  O  739  1  0.48539900  0.23587000  0.10877900  1
  O  749  1  0.57560900  0.76095800  0.10901700  1
  O  759  1  0.07238500  0.23343400  0.43396600  1
  O  769  1  0.32239100  0.33484100  0.03239100  1
  O  779  1  0.82433300  0.65924100  0.50847100  1
  O  789  1  0.23641700  0.33699800  0.50753800  1
  O  799  1  0.73919300  0.66194100  0.03380100  1
  O  809  1  0.01666700  0.22669800  0.49797600  1
  O  819  1  0.51787100  0.76944300  0.04135500  1
  O  829  1  0.79848700  0.73918300  0.55534800  1
  O  839  1  0.29901900  0.25680200  0.98337200  1
  O  849  1  0.54351400  0.22663100  0.04290900  1
  O  859  1  0.04175700  0.76978700  0.49737800  1
  O  869  1  0.76092900  0.73749900  0.98313900  1
  O  879  1  0.26152800  0.25845300  0.55650300  1
  O  889  1  0.29549300  0.26905200  0.49885300  1
  O  899  1  0.79297400  0.72820400  0.04132300  1
  O  909  1  0.26907200  0.26946000  0.04176300  1
  O  919  1  0.76719300  0.72564700  0.49774000  1
  O  929  1  0.54348500  0.71593400  0.01321400  1
  O  939  1  0.04311400  0.27969000  0.52679000  1
  O  949  1  0.01849000  0.71687500  0.52813100  1
  O  959  1  0.51902100  0.27910300  0.01167800  1
  O  969  1  0.15052100  0.15051400  0.59620300  1
  O  979  1  0.65058600  0.84603600  0.94398300  1
  O  989  1  0.90223600  0.82308400  0.61862800  1
  O  999  1  0.40270700  0.17331100  0.92056100  1
  O  1009  1  0.91048800  0.84494600  0.44269400  1
  O  1019  1  0.41033800  0.15090300  0.09665700  1
  O  1029  1  0.15909500  0.17310200  0.42022800  1
  O  1039  1  0.65867600  0.82297800  0.12014300  1
  O  1049  1  0.65140400  0.64922200  0.09571800  1
  O  1059  1  0.15136700  0.34725200  0.44443600  1
  O  1069  1  0.40037800  0.32497700  0.11681300  1
  O  1079  1  0.90097800  0.67136900  0.42236700  1
  O  1089  1  0.40879800  0.34641100  0.94416800  1
  O  1099  1  0.90880800  0.64947200  0.59519400  1
  O  1109  1  0.66091000  0.67194700  0.92184400  1
  O  1119  1  0.16041800  0.32416000  0.61851100  1
  O  1129  1  0.99135000  0.01392000  0.57173100  1
  O  1139  1  0.49216000  0.98213200  0.96870700  1
  O  1149  1  0.74253100  0.79780300  0.75377600  1
  O  1159  1  0.24292100  0.19832900  0.78578900  1
  O  1169  1  0.06690500  0.98222400  0.47003900  1
  O  1179  1  0.56611000  0.01412400  0.06919300  1
  O  1189  1  0.31701000  0.19799100  0.28581700  1
  O  1199  1  0.81672600  0.79835800  0.25414600  1
  O  1209  1  0.49347500  0.51392000  0.07065500  1
  O  1219  1  0.99446000  0.48215200  0.46965700  1
  O  1229  1  0.24355500  0.29800500  0.25377700  1
  O  1239  1  0.74382100  0.69795200  0.28566300  1
  O  1249  1  0.56710900  0.48207400  0.97081200  1
  O  1259  1  0.06612100  0.51427000  0.56835700  1
  O  1269  1  0.81824600  0.69738900  0.78581400  1
  O  1279  1  0.31785900  0.29897800  0.75416700  1
  O  1297  1  0.50966400  0.96754220  0.62986000  1
  O  1298  1  0.54070300  0.05769000  0.66907700  1
  O  1317  1  0.00968700  0.81137100  0.91009300  1
  O  1318  1  0.04077900  0.72129100  0.87076700  1
  O  1337  1  0.26024600  0.74816100  0.69173300  1
  O  1338  1  0.29255000  0.78738800  0.60178800  1
  O  1357  1  0.76028100  0.03082500  0.84808100  1
  O  1358  1  0.79270600  0.99171021  0.93810500  1
  O  1377  1  0.10939100  0.96633220  0.91291000  1
  O  1378  1  0.07713900  0.05549800  0.87178800  1
  O  1397  1  0.60940700  0.81257700  0.62699800  1
  O  1398  1  0.57713400  0.72343600  0.66807200  1
  O  1417  1  0.35885000  0.74535900  0.84687600  1
  O  1418  1  0.32533900  0.78636400  0.93584600  1
  O  1437  1  0.85884700  0.03365700  0.69288100  1
  O  1438  1  0.82512000  0.99272621  0.60389400  1
  O  1457  1  0.60757800  0.81129300  0.41163000  1
  O  1458  1  0.57807100  0.72196900  0.37063800  1
  O  1477  1  0.10757000  0.96776620  0.12807000  1
  O  1478  1  0.07775700  0.05703400  0.16913600  1
  O  1497  1  0.85789600  0.03024000  0.34800800  1
  O  1498  1  0.82494700  0.99133621  0.43838500  1
  O  1517  1  0.35789700  0.74884200  0.19180400  1
  O  1518  1  0.32494200  0.78763300  0.10136800  1
  O  1537  1  0.00911900  0.81239000  0.12532600  1
  O  1538  1  0.04050900  0.72412300  0.16796700  1
  O  1557  1  0.50914900  0.96667620  0.41455900  1
  O  1558  1  0.54026300  0.05481200  0.37179300  1
  O  1577  1  0.75874300  0.03285100  0.19305300  1
  O  1578  1  0.79307000  0.99229421  0.10366900  1
  O  1597  1  0.25876400  0.74600900  0.34678800  1
  O  1598  1  0.29325000  0.78649800  0.43613700  1
  O  1617  1  0.00979500  0.46748800  0.12939200  1
  O  1618  1  0.04186900  0.55801200  0.16841800  1
  O  1637  1  0.50981500  0.31141200  0.41047100  1
  O  1638  1  0.54177000  0.22096900  0.37130200  1
  O  1657  1  0.76032800  0.24815000  0.19155400  1
  O  1658  1  0.79011200  0.28908100  0.10223300  1
  O  1677  1  0.26039000  0.53071000  0.34821200  1
  O  1678  1  0.29044100  0.48988100  0.43755000  1
  O  1697  1  0.60947500  0.46629600  0.41306000  1
  O  1698  1  0.57575600  0.55569000  0.37237000  1
  O  1717  1  0.10939300  0.31253300  0.12660400  1
  O  1718  1  0.07561400  0.22321800  0.16733300  1
  O  1737  1  0.85881100  0.24526700  0.34721800  1
  O  1738  1  0.82702000  0.28791000  0.43538500  1
  O  1757  1  0.35881100  0.53363600  0.19250600  1
  O  1758  1  0.32726400  0.49105200  0.10433100  1
  O  1777  1  0.10722900  0.31112100  0.91237700  1
  O  1778  1  0.07579500  0.22153600  0.87185900  1
  O  1797  1  0.60721900  0.46788800  0.62729700  1
  O  1798  1  0.57571600  0.55751700  0.66780300  1
  O  1817  1  0.35812200  0.53014900  0.84805800  1
  O  1818  1  0.32724700  0.48995000  0.93804000  1
  O  1837  1  0.85807400  0.24887100  0.69164200  1
  O  1838  1  0.82720300  0.28906300  0.60169200  1
  O  1857  1  0.50947900  0.31231800  0.62451800  1
  O  1858  1  0.54247200  0.22380200  0.66678100  1
  O  1877  1  0.00951400  0.46671900  0.91519600  1
  O  1878  1  0.04259700  0.55527700  0.87306300  1
  O  1897  1  0.25863300  0.53304500  0.69277500  1
  O  1898  1  0.29089700  0.49101900  0.60388100  1
  O  1917  1  0.75862000  0.24598200  0.84696900  1
  O  1918  1  0.79092400  0.28792900  0.93587600  1
  O  1929  1  0.61172500  0.13031300  0.62762500  1
  O  1939  1  0.11230600  0.64880500  0.91137300  1
  O  1949  1  0.36377900  0.74567000  0.52974100  1
  O  1959  1  0.86332700  0.03122900  0.00973800  1
  O  1969  1  0.00616400  0.12977900  0.91133700  1
  O  1979  1  0.50564800  0.64940600  0.62916500  1
  O  1989  1  0.25412400  0.74658200  0.00955600  1
  O  1999  1  0.75447300  0.03044200  0.53061100  1
  O  2009  1  0.51593900  0.65256900  0.43310200  1
  O  2019  1  0.01387600  0.12725300  0.10877900  1
  O  2029  1  0.10408600  0.65234100  0.10901700  1
  O  2039  1  0.60086200  0.12481700  0.43396600  1
  O  2049  1  0.85086800  0.22622400  0.03239100  1
  O  2059  1  0.35281000  0.55062400  0.50847100  1
  O  2069  1  0.76489400  0.22838100  0.50753800  1
  O  2079  1  0.26767000  0.55332400  0.03380100  1
  O  2089  1  0.54514400  0.11808100  0.49797600  1
  O  2099  1  0.04634800  0.66082600  0.04135500  1
  O  2109  1  0.32696400  0.63056600  0.55534800  1
  O  2119  1  0.82749600  0.14818500  0.98337200  1
  O  2129  1  0.07199100  0.11801400  0.04290900  1
  O  2139  1  0.57023400  0.66117000  0.49737800  1
  O  2149  1  0.28940600  0.62888200  0.98313900  1
  O  2159  1  0.79000500  0.14983600  0.55650300  1
  O  2169  1  0.82397000  0.16043500  0.49885300  1
  O  2179  1  0.32145100  0.61958700  0.04132300  1
  O  2189  1  0.79754900  0.16084300  0.04176300  1
  O  2199  1  0.29567000  0.61703000  0.49774000  1
  O  2209  1  0.07196200  0.60731700  0.01321400  1
  O  2219  1  0.57159100  0.17107300  0.52679000  1
  O  2229  1  0.54696700  0.60825800  0.52813100  1
  O  2239  1  0.04749800  0.17048600  0.01167800  1
  O  2249  1  0.67899800  0.04189700  0.59620300  1
  O  2259  1  0.17906300  0.73741900  0.94398300  1
  O  2269  1  0.43071300  0.71446700  0.61862800  1
  O  2279  1  0.93118430  0.06469400  0.92056100  1
  O  2289  1  0.43896500  0.73632900  0.44269400  1
  O  2299  1  0.93881530  0.04228600  0.09665700  1
  O  2309  1  0.68757200  0.06448500  0.42022800  1
  O  2319  1  0.18715300  0.71436100  0.12014300  1
  O  2329  1  0.17988100  0.54060500  0.09571800  1
  O  2339  1  0.67984400  0.23863500  0.44443600  1
  O  2349  1  0.92885530  0.21636000  0.11681300  1
  O  2359  1  0.42945500  0.56275200  0.42236700  1
  O  2369  1  0.93727530  0.23779400  0.94416800  1
  O  2379  1  0.43728500  0.54085500  0.59519400  1
  O  2389  1  0.18938700  0.56333000  0.92184400  1
  O  2399  1  0.68889500  0.21554300  0.61851100  1
  O  2409  1  0.51982700  0.90530320  0.57173100  1
  O  2419  1  0.02063700  0.87351500  0.96870700  1
  O  2429  1  0.27100800  0.68918600  0.75377600  1
  O  2439  1  0.77139800  0.08971200  0.78578900  1
  O  2449  1  0.59538200  0.87360700  0.47003900  1
  O  2459  1  0.09458700  0.90550720  0.06919300  1
  O  2469  1  0.84548700  0.08937400  0.28581700  1
  O  2479  1  0.34520300  0.68974100  0.25414600  1
  O  2489  1  0.02195200  0.40530300  0.07065500  1
  O  2499  1  0.52293700  0.37353500  0.46965700  1
  O  2509  1  0.77203200  0.18938800  0.25377700  1
  O  2519  1  0.27229800  0.58933500  0.28566300  1
  O  2529  1  0.09558600  0.37345700  0.97081200  1
  O  2539  1  0.59459800  0.40565300  0.56835700  1
  O  2549  1  0.34672300  0.58877200  0.78581400  1
  O  2559  1  0.84633600  0.19036100  0.75416700  1
