# generated using pymatgen
data_H7(C6O)2
_symmetry_space_group_name_H-M   'P 1'
_cell_length_a   26.25700000
_cell_length_b   50.34720000
_cell_length_c   50.34720000
_cell_angle_alpha   120.00000000
_cell_angle_beta   90.00000000
_cell_angle_gamma   90.00000000
_symmetry_Int_Tables_number   1
_chemical_formula_structural   H7(C6O)2
_chemical_formula_sum   'H336 C576 O96'
_cell_volume   57640.31976469
_cell_formula_units_Z   48
loop_
 _symmetry_equiv_pos_site_id
 _symmetry_equiv_pos_as_xyz
  1  'x, y, z'
loop_
 _atom_site_type_symbol
 _atom_site_label
 _atom_site_symmetry_multiplicity
 _atom_site_fract_x
 _atom_site_fract_y
 _atom_site_fract_z
 _atom_site_occupancy
  H  7  1  0.91358400  0.74414300  0.13053900  1
  H  8  1  0.95523900  0.70018100  0.17968500  1
  H  15  1  0.83691200  0.67723000  0.00041300  1
  H  16  1  0.96596300  0.67988300  0.05123800  1
  H  19  1  0.95048700  0.63482400  0.06701600  1
  H  20  1  0.80776800  0.72762500  0.10983300  1
  H  27  1  0.91365800  0.48159300  0.25516600  1
  H  28  1  0.95527300  0.57471000  0.29913600  1
  H  35  1  0.83691400  0.41837100  0.32203200  1
  H  36  1  0.96603600  0.46651600  0.31940000  1
  H  39  1  0.95053700  0.52737900  0.36448800  1
  H  40  1  0.80784900  0.47744500  0.27168500  1
  H  47  1  0.91360000  0.86875800  0.51772000  1
  H  48  1  0.95525400  0.81961500  0.42460900  1
  H  55  1  0.83687100  0.99887500  0.58092700  1
  H  56  1  0.96595000  0.94806700  0.53277500  1
  H  59  1  0.95046500  0.93228900  0.47192800  1
  H  60  1  0.80776300  0.88945000  0.52189000  1
  H  67  1  0.41357600  0.31885700  0.80508300  1
  H  68  1  0.45520300  0.36281900  0.75593200  1
  H  75  1  0.33688100  0.38571400  0.93517300  1
  H  76  1  0.46598200  0.38308500  0.88438100  1
  H  79  1  0.45047700  0.42817600  0.86861000  1
  H  80  1  0.30778000  0.33538600  0.82575200  1
  H  87  1  0.41364500  0.58141200  0.68046200  1
  H  88  1  0.45527600  0.48829600  0.63647800  1
  H  95  1  0.33686200  0.64461200  0.61355500  1
  H  96  1  0.46596600  0.59648000  0.61620800  1
  H  99  1  0.45050800  0.53562500  0.57113700  1
  H  100  1  0.30780600  0.58557900  0.66394900  1
  H  107  1  0.41357300  0.19422600  0.41790200  1
  H  108  1  0.45513900  0.24339900  0.51102700  1
  H  115  1  0.33693400  0.06412100  0.35466300  1
  H  116  1  0.46599700  0.11493300  0.40286300  1
  H  119  1  0.45046900  0.13071700  0.46371600  1
  H  120  1  0.30779500  0.17354400  0.41373000  1
  H  127  1  0.01533500  0.58151200  0.80486000  1
  H  128  1  0.97362600  0.48840900  0.75585800  1
  H  135  1  0.09202000  0.64504100  0.93496400  1
  H  136  1  0.96314500  0.59637900  0.88433400  1
  H  139  1  0.97850900  0.53576000  0.86848100  1
  H  140  1  0.12091900  0.58609400  0.82550300  1
  H  147  1  0.01535400  0.19442900  0.68074200  1
  H  148  1  0.97368000  0.24344700  0.63665000  1
  H  155  1  0.09195500  0.06434100  0.61422700  1
  H  156  1  0.96309800  0.11497200  0.61614700  1
  H  159  1  0.97853200  0.13081200  0.57136300  1
  H  160  1  0.12088400  0.17379800  0.66468400  1
  H  167  1  0.01538500  0.31853200  0.41777500  1
  H  168  1  0.97365300  0.36263600  0.51087400  1
  H  175  1  0.09199300  0.38508000  0.35421100  1
  H  176  1  0.96316900  0.38312600  0.40291200  1
  H  179  1  0.97858000  0.42790700  0.46352300  1
  H  180  1  0.12096400  0.33460100  0.41318700  1
  H  187  1  0.51531700  0.48147100  0.13072900  1
  H  188  1  0.47365200  0.57458300  0.17973900  1
  H  195  1  0.59197900  0.41791300  0.00065300  1
  H  196  1  0.46309100  0.46658200  0.05126900  1
  H  199  1  0.47853100  0.52722000  0.06710200  1
  H  200  1  0.62089200  0.47692400  0.11010400  1
  H  207  1  0.51538600  0.86856100  0.25484000  1
  H  208  1  0.47369400  0.81954100  0.29892500  1
  H  215  1  0.59200900  0.99867000  0.32141000  1
  H  216  1  0.46317100  0.94802100  0.31944900  1
  H  219  1  0.47856500  0.93216900  0.36421200  1
  H  220  1  0.62095800  0.88921000  0.27090600  1
  H  227  1  0.51537800  0.74443700  0.51781300  1
  H  228  1  0.47371700  0.70035800  0.42470200  1
  H  235  1  0.59194100  0.67790400  0.58137300  1
  H  236  1  0.46309100  0.67985000  0.53267200  1
  H  239  1  0.47850800  0.63506700  0.47204600  1
  H  240  1  0.62090200  0.72836000  0.52237500  1
  H  247  1  0.01663000  0.31913300  0.80521200  1
  H  248  1  0.97277600  0.36275500  0.75611600  1
  H  255  1  0.09235500  0.38602100  0.93537500  1
  H  256  1  0.96328400  0.38330100  0.88452400  1
  H  259  1  0.97718500  0.42823100  0.86867200  1
  H  260  1  0.12171900  0.33586200  0.82598900  1
  H  267  1  0.01660700  0.58127000  0.68015800  1
  H  268  1  0.97280600  0.48854100  0.63653100  1
  H  275  1  0.09235900  0.64456200  0.61332400  1
  H  276  1  0.96325600  0.59643100  0.61600900  1
  H  279  1  0.97719800  0.53562900  0.57105400  1
  H  280  1  0.12167300  0.58529100  0.66343400  1
  H  287  1  0.01665700  0.19407600  0.41800500  1
  H  288  1  0.97278600  0.24315900  0.51072300  1
  H  295  1  0.09240400  0.06392700  0.35472600  1
  H  296  1  0.96333100  0.11476400  0.40285400  1
  H  299  1  0.97723400  0.13060900  0.46364000  1
  H  300  1  0.12174900  0.17331000  0.41396900  1
  H  307  1  0.51666100  0.74385600  0.13036800  1
  H  308  1  0.47284500  0.70023700  0.17947500  1
  H  315  1  0.59235900  0.67702700  0.00023500  1
  H  316  1  0.46327800  0.67971600  0.05107100  1
  H  319  1  0.47722000  0.63475600  0.06691100  1
  H  320  1  0.62171900  0.72711600  0.10961500  1
  H  327  1  0.51659300  0.48170100  0.25542100  1
  H  328  1  0.47276800  0.57442700  0.29905000  1
  H  335  1  0.59242800  0.41845600  0.32230800  1
  H  336  1  0.46330400  0.46653600  0.31957800  1
  H  339  1  0.47719400  0.52734000  0.36452300  1
  H  340  1  0.62170900  0.47769700  0.27216600  1
  H  347  1  0.51667300  0.86892300  0.51758000  1
  H  348  1  0.47287900  0.81980000  0.42485100  1
  H  355  1  0.59234400  0.99906100  0.58087200  1
  H  356  1  0.46327400  0.94821800  0.53271900  1
  H  359  1  0.47722400  0.93236600  0.47192200  1
  H  360  1  0.62172100  0.88968300  0.52160400  1
  H  367  1  0.91207800  0.48160900  0.13059600  1
  H  368  1  0.95594500  0.57433100  0.17956100  1
  H  375  1  0.83636000  0.41804300  0.00046000  1
  H  376  1  0.96522800  0.46666700  0.05112500  1
  H  379  1  0.95139400  0.52723000  0.06705200  1
  H  380  1  0.80722400  0.47715500  0.10987700  1
  H  387  1  0.91200200  0.86871900  0.25514200  1
  H  388  1  0.95587400  0.81974000  0.29888100  1
  H  395  1  0.83641900  0.99884900  0.32164600  1
  H  396  1  0.96524200  0.94816400  0.31965200  1
  H  399  1  0.95135600  0.93225200  0.36430400  1
  H  400  1  0.80720300  0.88943600  0.27140300  1
  H  407  1  0.91200500  0.74417400  0.51770100  1
  H  408  1  0.95596000  0.70042400  0.42499500  1
  H  415  1  0.83634500  0.67761500  0.58129000  1
  H  416  1  0.96519300  0.67965400  0.53264600  1
  H  419  1  0.95138700  0.63501700  0.47209000  1
  H  420  1  0.80717000  0.72790600  0.52215900  1
  H  427  1  0.41206100  0.58138700  0.80501700  1
  H  428  1  0.45592700  0.48866400  0.75605600  1
  H  435  1  0.33637400  0.64500500  0.93513900  1
  H  436  1  0.46524700  0.59634900  0.88448100  1
  H  439  1  0.45136800  0.53577400  0.86857100  1
  H  440  1  0.30722400  0.58582400  0.82571900  1
  H  447  1  0.41198800  0.19428200  0.68049600  1
  H  448  1  0.45586200  0.24325100  0.63674700  1
  H  455  1  0.33635500  0.06412700  0.61392800  1
  H  456  1  0.46517800  0.11482600  0.61596400  1
  H  459  1  0.45133400  0.13074900  0.57133200  1
  H  460  1  0.30715500  0.17355000  0.66423700  1
  H  467  1  0.41200000  0.31882300  0.41790900  1
  H  468  1  0.45582000  0.36257500  0.51063800  1
  H  475  1  0.33643500  0.38533500  0.35427800  1
  H  476  1  0.46525400  0.38333900  0.40297700  1
  H  479  1  0.45137200  0.42798500  0.46353600  1
  H  480  1  0.30721600  0.33507600  0.41343700  1
  H  486  1  0.88825700  0.78829100  0.25845800  1
  H  487  1  0.88831400  0.74091600  0.21144100  1
  H  489  1  0.98312300  0.77927900  0.17166500  1
  H  491  1  0.02380500  0.83279100  0.22877800  1
  H  497  1  0.88831600  0.56535900  0.21101600  1
  H  498  1  0.88836800  0.56571800  0.25839100  1
  H  500  1  0.98320200  0.48759100  0.22004000  1
  H  502  1  0.02388200  0.49119000  0.16652200  1
  H  508  1  0.88831400  0.74083300  0.43394000  1
  H  509  1  0.88835800  0.78784800  0.43357800  1
  H  511  1  0.98313200  0.82764300  0.51173200  1
  H  513  1  0.02382100  0.77053400  0.50814100  1
  H  519  1  0.38822700  0.27470200  0.67716800  1
  H  520  1  0.38828400  0.32207800  0.72418400  1
  H  522  1  0.48312800  0.28372500  0.76395600  1
  H  524  1  0.52379900  0.23021300  0.70684100  1
  H  530  1  0.38831500  0.49763900  0.72460100  1
  H  531  1  0.38836400  0.49727900  0.67722600  1
  H  533  1  0.48318500  0.57541100  0.71557700  1
  H  535  1  0.52387100  0.57181400  0.76909500  1
  H  541  1  0.38818900  0.32215000  0.50165000  1
  H  542  1  0.38823100  0.27513600  0.50201500  1
  H  544  1  0.48312000  0.23536300  0.42391000  1
  H  546  1  0.52380600  0.29247100  0.42752200  1
  H  552  1  0.04043700  0.49758500  0.67695000  1
  H  553  1  0.04050200  0.49730800  0.72400700  1
  H  555  1  0.94569700  0.57544900  0.76374900  1
  H  557  1  0.90487200  0.57174700  0.70662000  1
  H  563  1  0.04043300  0.32234900  0.72473700  1
  H  564  1  0.04052500  0.27529000  0.67740300  1
  H  566  1  0.94574300  0.23553400  0.71579700  1
  H  568  1  0.90489700  0.29265600  0.76922600  1
  H  574  1  0.04041800  0.27455200  0.50171100  1
  H  575  1  0.04050200  0.32188500  0.50198500  1
  H  577  1  0.94576300  0.28348100  0.42381600  1
  H  579  1  0.90492100  0.23004000  0.42749900  1
  H  585  1  0.54043000  0.56538900  0.25863800  1
  H  586  1  0.54051000  0.56566200  0.21157800  1
  H  588  1  0.44569000  0.48753100  0.17183500  1
  H  590  1  0.40485900  0.49123000  0.22897000  1
  H  596  1  0.54049900  0.74064600  0.21084100  1
  H  597  1  0.54057100  0.78770200  0.25817600  1
  H  599  1  0.44575500  0.82744900  0.21979100  1
  H  601  1  0.40492000  0.77032000  0.16636900  1
  H  607  1  0.54053700  0.78844300  0.43390500  1
  H  608  1  0.54060200  0.74110900  0.43363100  1
  H  610  1  0.44576600  0.77950100  0.51175500  1
  H  612  1  0.40493900  0.83292300  0.50804900  1
  H  618  1  0.76049600  0.64905300  0.04312700  1
  H  619  1  0.66937600  0.64876500  0.04296800  1
  H  621  1  0.66817700  0.73402400  0.04585600  1
  H  623  1  0.77372000  0.73595600  0.02572300  1
  H  629  1  0.76057600  0.48941700  0.35015100  1
  H  630  1  0.66945300  0.48955800  0.35046000  1
  H  632  1  0.66821000  0.40695200  0.26541600  1
  H  634  1  0.77359400  0.38487900  0.26352500  1
  H  640  1  0.76050100  0.95613300  0.51001000  1
  H  641  1  0.66938000  0.95629700  0.50987300  1
  H  643  1  0.66816000  0.95346200  0.59227300  1
  H  645  1  0.77360400  0.97360100  0.61436400  1
  H  651  1  0.26053100  0.41391700  0.89242300  1
  H  652  1  0.16940900  0.41423000  0.89259800  1
  H  654  1  0.16814800  0.32901400  0.88979200  1
  H  656  1  0.27361700  0.32704900  0.90991700  1
  H  662  1  0.26049700  0.57365200  0.58541600  1
  H  663  1  0.16937100  0.57351500  0.58511500  1
  H  665  1  0.16815200  0.65600700  0.67026700  1
  H  667  1  0.27354900  0.67808600  0.67217000  1
  H  673  1  0.26055800  0.10680600  0.42555300  1
  H  674  1  0.16943500  0.10663700  0.42568200  1
  H  676  1  0.16822100  0.10959200  0.34334800  1
  H  678  1  0.27367400  0.08947100  0.32124500  1
  H  684  1  0.16832300  0.57508200  0.89362300  1
  H  685  1  0.25946900  0.57496500  0.89378800  1
  H  687  1  0.26063800  0.65574900  0.88796300  1
  H  689  1  0.15469600  0.67801100  0.90770900  1
  H  695  1  0.16825500  0.10553300  0.58552800  1
  H  696  1  0.25939300  0.10535000  0.58522800  1
  H  698  1  0.26060000  0.11147000  0.67197000  1
  H  700  1  0.15471200  0.09176200  0.67456800  1
  H  706  1  0.16833900  0.41377300  0.42408500  1
  H  707  1  0.25947300  0.41406200  0.42420600  1
  H  709  1  0.26067200  0.32730700  0.34359900  1
  H  711  1  0.15466200  0.32473100  0.32131900  1
  H  717  1  0.66824600  0.48796600  0.04208100  1
  H  718  1  0.75938600  0.48810400  0.04190700  1
  H  720  1  0.76064000  0.40721000  0.04753700  1
  H  722  1  0.65478300  0.38492600  0.02776900  1
  H  728  1  0.66832300  0.95745000  0.35007900  1
  H  729  1  0.75946200  0.95761600  0.35036900  1
  H  731  1  0.76065500  0.95153600  0.26364400  1
  H  733  1  0.65473600  0.97125400  0.26106700  1
  H  739  1  0.66825100  0.64922100  0.51144800  1
  H  740  1  0.75939100  0.64892200  0.51133100  1
  H  742  1  0.76060500  0.73561800  0.59200600  1
  H  744  1  0.65466400  0.73819700  0.61429100  1
  H  750  1  0.94014300  0.62149600  0.99095900  1
  H  751  1  0.98870200  0.59821500  0.94442400  1
  H  753  1  0.98952600  0.68207300  0.94443500  1
  H  755  1  0.96177200  0.72497800  0.00986400  1
  H  761  1  0.94009900  0.46461500  0.37778000  1
  H  762  1  0.98864400  0.44136000  0.40106200  1
  H  764  1  0.98956400  0.35753100  0.31719000  1
  H  766  1  0.96184400  0.38006100  0.27429200  1
  H  772  1  0.93996100  0.00839300  0.53468800  1
  H  773  1  0.98850300  0.05493200  0.55794400  1
  H  775  1  0.98960400  0.05481800  0.64173700  1
  H  777  1  0.96189600  0.98937800  0.61918000  1
  H  783  1  0.44002700  0.44146600  0.94468000  1
  H  784  1  0.48857400  0.46475000  0.99122000  1
  H  786  1  0.48958300  0.38085800  0.99113800  1
  H  788  1  0.46186800  0.33797100  0.92570200  1
  H  794  1  0.44000000  0.59837400  0.55780300  1
  H  795  1  0.48854300  0.62162800  0.53451800  1
  H  797  1  0.48954500  0.70544300  0.61840400  1
  H  799  1  0.46183000  0.68290500  0.66129700  1
  H  805  1  0.44010700  0.05464300  0.40094600  1
  H  806  1  0.48865000  0.00810200  0.37769100  1
  H  808  1  0.48957900  0.00814800  0.29386200  1
  H  810  1  0.46185300  0.07358500  0.31640000  1
  H  816  1  0.98932300  0.44178000  0.94488400  1
  H  817  1  0.94025400  0.46496600  0.99121800  1
  H  819  1  0.93866200  0.38097400  0.99092800  1
  H  821  1  0.96700500  0.33820200  0.92558600  1
  H  827  1  0.98930500  0.59831200  0.55755600  1
  H  828  1  0.94023200  0.62145000  0.53436100  1
  H  830  1  0.93866000  0.70516700  0.61833900  1
  H  832  1  0.96700500  0.68261200  0.66112100  1
  H  838  1  0.98944700  0.05438600  0.40096000  1
  H  839  1  0.94038300  0.00805000  0.37781600  1
  H  841  1  0.93864500  0.00839000  0.29413600  1
  H  843  1  0.96695500  0.07373500  0.31672600  1
  H  849  1  0.48937700  0.62125400  0.99070100  1
  H  850  1  0.44032000  0.59806200  0.94436300  1
  H  852  1  0.43862500  0.68207300  0.94468700  1
  H  854  1  0.46694100  0.72483500  0.01003600  1
  H  860  1  0.48948800  0.46464800  0.37807500  1
  H  861  1  0.44042600  0.44149700  0.40126100  1
  H  863  1  0.43864000  0.35783500  0.31723000  1
  H  865  1  0.46694500  0.38043200  0.27448100  1
  H  871  1  0.48931300  0.00857100  0.53461600  1
  H  872  1  0.44024400  0.05490700  0.55776300  1
  H  874  1  0.43864800  0.05461900  0.64146700  1
  H  876  1  0.46698300  0.98927600  0.61889200  1
  H  882  1  0.00794300  0.62371800  0.10439800  1
  H  883  1  0.00845700  0.57598600  0.10413200  1
  H  885  1  0.88281500  0.60550000  0.16449800  1
  H  887  1  0.84435100  0.65470800  0.15421500  1
  H  893  1  0.00799300  0.57587600  0.37559900  1
  H  894  1  0.00848800  0.62333800  0.42333700  1
  H  896  1  0.88283000  0.65417700  0.39382300  1
  H  898  1  0.84438700  0.59469400  0.34462600  1
  H  904  1  0.00791300  0.89491300  0.42343700  1
  H  905  1  0.00840800  0.89518100  0.37597400  1
  H  907  1  0.88277700  0.83480500  0.34513100  1
  H  909  1  0.84433400  0.84508900  0.40461400  1
  H  915  1  0.50792900  0.43928600  0.83122700  1
  H  916  1  0.50843900  0.48701600  0.83149100  1
  H  918  1  0.38279600  0.45750500  0.77113100  1
  H  920  1  0.34433000  0.40830800  0.78142700  1
  H  926  1  0.50796300  0.48710800  0.56001300  1
  H  927  1  0.50843500  0.43964000  0.51228100  1
  H  929  1  0.38275400  0.40883600  0.54181800  1
  H  931  1  0.34434500  0.46833900  0.59103700  1
  H  937  1  0.50788700  0.16811100  0.51220100  1
  H  938  1  0.50839300  0.16783300  0.55965900  1
  H  940  1  0.38273500  0.22818400  0.59051200  1
  H  942  1  0.34427700  0.21790400  0.53102300  1
  H  948  1  0.92091000  0.48739200  0.83118900  1
  H  949  1  0.92025000  0.43994600  0.83149700  1
  H  951  1  0.04590600  0.40895400  0.77114600  1
  H  953  1  0.08452500  0.46840800  0.78138900  1
  H  959  1  0.92095200  0.16810100  0.56029700  1
  H  960  1  0.92029900  0.16777300  0.51253500  1
  H  962  1  0.04593700  0.22814400  0.54189600  1
  H  964  1  0.08455500  0.21792900  0.59111600  1
  H  970  1  0.92098100  0.43898800  0.51188100  1
  H  971  1  0.92029800  0.48673500  0.55932500  1
  H  973  1  0.04591000  0.45736900  0.59034300  1
  H  975  1  0.08455900  0.40815500  0.53089600  1
  H  981  1  0.42095000  0.57559400  0.10439400  1
  H  982  1  0.42030200  0.62303500  0.10408000  1
  H  984  1  0.54593800  0.65402600  0.16444800  1
  H  986  1  0.58454400  0.59458200  0.15421300  1
  H  992  1  0.42099500  0.89488200  0.37528200  1
  H  993  1  0.42033700  0.89519600  0.42303700  1
  H  995  1  0.54596400  0.83482200  0.39366600  1
  H  997  1  0.58458600  0.84505400  0.34445800  1
  H  1003  1  0.42094600  0.62400300  0.42369000  1
  H  1004  1  0.42027200  0.57624500  0.37625000  1
  H  1006  1  0.54591500  0.60559300  0.34523900  1
  H  1008  1  0.58455200  0.65480600  0.40468300  1
  C  1  1  0.91891300  0.69590500  0.10371000  1
  C  2  1  0.92308600  0.72460100  0.13093600  1
  C  3  1  0.93655000  0.72663000  0.15908100  1
  C  4  1  0.94619100  0.69914800  0.15938400  1
  C  5  1  0.94202100  0.67015200  0.13256900  1
  C  6  1  0.92866800  0.66865000  0.10457300  1
  C  9  1  0.89772000  0.69420900  0.07696200  1
  C  10  1  0.84468000  0.69829800  0.07523800  1
  C  11  1  0.82229200  0.69228800  0.04714600  1
  C  12  1  0.85334000  0.68284700  0.02104500  1
  C  13  1  0.90621900  0.67865700  0.02248300  1
  C  14  1  0.92796200  0.68409100  0.05041900  1
  C  21  1  0.91899700  0.50300500  0.30340700  1
  C  22  1  0.92323800  0.50151600  0.27470400  1
  C  23  1  0.93660800  0.52765300  0.27268600  1
  C  24  1  0.94622600  0.55544100  0.30016900  1
  C  25  1  0.94206400  0.55761300  0.32916100  1
  C  26  1  0.92873500  0.53112100  0.33066800  1
  C  29  1  0.89781200  0.47793700  0.30507900  1
  C  30  1  0.84476200  0.47214900  0.30099500  1
  C  31  1  0.82235300  0.45006400  0.30699800  1
  C  32  1  0.85338100  0.43335600  0.31638800  1
  C  33  1  0.90625200  0.43899500  0.32060700  1
  C  34  1  0.92803000  0.46150200  0.31519300  1
  C  41  1  0.91891900  0.89558900  0.49631200  1
  C  42  1  0.92309800  0.86836300  0.49778200  1
  C  43  1  0.93655000  0.84021900  0.47166100  1
  C  44  1  0.94620300  0.83991500  0.44387600  1
  C  45  1  0.94201000  0.86673000  0.44170000  1
  C  46  1  0.92866200  0.89472700  0.46819200  1
  C  49  1  0.89771500  0.92233200  0.52136200  1
  C  50  1  0.84467200  0.92404800  0.52716800  1
  C  51  1  0.82228600  0.95214000  0.54924600  1
  C  52  1  0.85331100  0.97824600  0.56591500  1
  C  53  1  0.90619100  0.97681400  0.56029700  1
  C  54  1  0.92794700  0.94888000  0.53779600  1
  C  61  1  0.41892000  0.36709800  0.83190700  1
  C  62  1  0.42315900  0.33839400  0.80469600  1
  C  63  1  0.43653000  0.33637400  0.77654200  1
  C  64  1  0.44615400  0.36385400  0.77623200  1
  C  65  1  0.44199900  0.39284700  0.80304900  1
  C  66  1  0.42866600  0.39435500  0.83104900  1
  C  69  1  0.39774400  0.36877100  0.85865000  1
  C  70  1  0.34469600  0.36468800  0.86036100  1
  C  71  1  0.32230200  0.37068500  0.88845100  1
  C  72  1  0.35333700  0.38007500  0.91454400  1
  C  73  1  0.40621100  0.38429100  0.91311600  1
  C  74  1  0.42797600  0.37888000  0.88519400  1
  C  81  1  0.41895800  0.56001000  0.63222400  1
  C  82  1  0.42314300  0.56147500  0.66091700  1
  C  83  1  0.43658700  0.53535000  0.66293400  1
  C  84  1  0.44623100  0.50756800  0.63545100  1
  C  85  1  0.44204900  0.50539300  0.60645800  1
  C  86  1  0.42870000  0.53189100  0.60496300  1
  C  89  1  0.39774400  0.58506000  0.63053400  1
  C  90  1  0.34469900  0.59085900  0.63462400  1
  C  91  1  0.32228300  0.61293400  0.62861300  1
  C  92  1  0.35331000  0.62960300  0.61917300  1
  C  93  1  0.40619200  0.62399200  0.61498400  1
  C  94  1  0.42796100  0.60149700  0.62041900  1
  C  101  1  0.41891600  0.16740800  0.43932700  1
  C  102  1  0.42314300  0.19461800  0.43783000  1
  C  103  1  0.43649600  0.22277800  0.46396400  1
  C  104  1  0.44610500  0.22309600  0.49176100  1
  C  105  1  0.44195700  0.19627800  0.49393700  1
  C  106  1  0.42864700  0.16827300  0.46744800  1
  C  109  1  0.39776000  0.14066000  0.41425600  1
  C  110  1  0.34471500  0.13894400  0.40844300  1
  C  111  1  0.32234300  0.11085000  0.38634900  1
  C  112  1  0.35338300  0.08475400  0.36965900  1
  C  113  1  0.40624900  0.08619000  0.37532200  1
  C  114  1  0.42799900  0.11411500  0.39783400  1
  C  121  1  0.01009900  0.56016800  0.83175400  1
  C  122  1  0.00586700  0.56158700  0.80450300  1
  C  123  1  0.99237000  0.53544600  0.77638500  1
  C  124  1  0.98272000  0.50768900  0.77613600  1
  C  125  1  0.98692600  0.50556000  0.80297800  1
  C  126  1  0.00033400  0.53207300  0.83094300  1
  C  129  1  0.03123600  0.58527400  0.85848900  1
  C  130  1  0.08419700  0.59129900  0.86013300  1
  C  131  1  0.10653800  0.61346700  0.88819800  1
  C  132  1  0.07555200  0.63001200  0.91434800  1
  C  133  1  0.02274700  0.62418500  0.91299300  1
  C  134  1  0.00106100  0.60157400  0.88509100  1
  C  141  1  0.01010600  0.16754200  0.63249800  1
  C  142  1  0.00581400  0.19478000  0.66118100  1
  C  143  1  0.99240200  0.22290800  0.66315400  1
  C  144  1  0.98277500  0.22316700  0.63564900  1
  C  145  1  0.98696800  0.19632400  0.60667900  1
  C  146  1  0.00035300  0.16835200  0.60521500  1
  C  149  1  0.03119800  0.14080400  0.63089000  1
  C  150  1  0.08416300  0.13915800  0.63527600  1
  C  151  1  0.10648800  0.11109400  0.62939600  1
  C  152  1  0.07547900  0.08495700  0.61983200  1
  C  153  1  0.02269300  0.08631600  0.61532000  1
  C  154  1  0.00101200  0.11420900  0.62058500  1
  C  161  1  0.01016300  0.36677000  0.43911800  1
  C  162  1  0.00592100  0.33809900  0.43769800  1
  C  163  1  0.99240200  0.33612400  0.46383800  1
  C  164  1  0.98275800  0.36363200  0.49159300  1
  C  165  1  0.98697600  0.39260400  0.49372500  1
  C  166  1  0.00039500  0.39405500  0.46721200  1
  C  169  1  0.03127800  0.36839400  0.41400500  1
  C  170  1  0.08423900  0.36401600  0.40796800  1
  C  171  1  0.10656800  0.36990300  0.38579000  1
  C  172  1  0.07554800  0.37950000  0.36924900  1
  C  173  1  0.02274700  0.38397100  0.37508700  1
  C  174  1  0.00108400  0.37868800  0.39770900  1
  C  181  1  0.51008000  0.50282300  0.10384000  1
  C  182  1  0.50577700  0.50138100  0.13107800  1
  C  183  1  0.49236300  0.52753900  0.15920600  1
  C  184  1  0.48274700  0.55530100  0.15946000  1
  C  185  1  0.48695100  0.55742700  0.13261700  1
  C  186  1  0.50033100  0.53091600  0.10464700  1
  C  189  1  0.53118300  0.47769600  0.07710700  1
  C  190  1  0.58415600  0.47168400  0.07546400  1
  C  191  1  0.60650100  0.44950600  0.04740400  1
  C  192  1  0.57549500  0.43291700  0.02126900  1
  C  193  1  0.52270200  0.43877000  0.02262200  1
  C  194  1  0.50100800  0.46139200  0.05051200  1
  C  201  1  0.51014900  0.89544800  0.30307900  1
  C  202  1  0.50592100  0.86820000  0.27440400  1
  C  203  1  0.49244300  0.84007800  0.27242300  1
  C  204  1  0.48278500  0.83982100  0.29992700  1
  C  205  1  0.48699700  0.86665900  0.32889700  1
  C  206  1  0.50038800  0.89463100  0.33035900  1
  C  209  1  0.53127100  0.92218700  0.30470900  1
  C  210  1  0.58422800  0.92384000  0.30032500  1
  C  211  1  0.60655400  0.95190700  0.30622100  1
  C  212  1  0.57555300  0.97805200  0.31582600  1
  C  213  1  0.52275100  0.97668900  0.32030000  1
  C  214  1  0.50108100  0.94878200  0.31501100  1
  C  221  1  0.51011100  0.69619500  0.49645300  1
  C  222  1  0.50583000  0.72488000  0.49790000  1
  C  223  1  0.49243200  0.72685700  0.47174600  1
  C  224  1  0.48280000  0.69935400  0.44398100  1
  C  225  1  0.48697000  0.67038000  0.44184800  1
  C  226  1  0.50034600  0.66891600  0.46835700  1
  C  229  1  0.53119500  0.69458200  0.52157900  1
  C  230  1  0.58416400  0.69895700  0.52760800  1
  C  231  1  0.60648500  0.69307200  0.54979000  1
  C  232  1  0.57546900  0.68351500  0.56636300  1
  C  233  1  0.52267900  0.67901100  0.56049700  1
  C  234  1  0.50100500  0.68428200  0.53787000  1
  C  241  1  0.01025900  0.36730800  0.83206000  1
  C  242  1  0.00650300  0.33859300  0.80482700  1
  C  243  1  0.99217600  0.33641300  0.77673300  1
  C  244  1  0.98209800  0.36385100  0.77641000  1
  C  245  1  0.98591900  0.39287300  0.80322600  1
  C  246  1  0.99956400  0.39448600  0.83123000  1
  C  249  1  0.03157100  0.36912400  0.85883400  1
  C  250  1  0.08462400  0.36508300  0.86057000  1
  C  251  1  0.10699100  0.37103600  0.88865300  1
  C  252  1  0.07594000  0.38041600  0.91474300  1
  C  253  1  0.02305500  0.38458900  0.91329000  1
  C  254  1  0.00131200  0.37915500  0.88535700  1
  C  261  1  0.01023200  0.55993500  0.63198000  1
  C  262  1  0.00641600  0.56143800  0.66070300  1
  C  263  1  0.99217600  0.53550600  0.66287300  1
  C  264  1  0.98212100  0.50774200  0.63543600  1
  C  265  1  0.98592300  0.50553700  0.60641400  1
  C  266  1  0.99955700  0.53193000  0.60480100  1
  C  269  1  0.03152900  0.58491200  0.63018600  1
  C  270  1  0.08458600  0.59067700  0.63422900  1
  C  271  1  0.10696800  0.61281500  0.62829000  1
  C  272  1  0.07591700  0.62956100  0.61895200  1
  C  273  1  0.02304000  0.62391900  0.61474600  1
  C  274  1  0.00128600  0.60140400  0.62015300  1
  C  281  1  0.01029700  0.16722800  0.43933300  1
  C  282  1  0.00653000  0.19445900  0.43784900  1
  C  283  1  0.99219000  0.22254700  0.46376300  1
  C  284  1  0.98211400  0.22286600  0.49152100  1
  C  285  1  0.98593300  0.19605200  0.49373400  1
  C  286  1  0.99960200  0.16805500  0.46733700  1
  C  289  1  0.03161300  0.14045600  0.41437000  1
  C  290  1  0.08466600  0.13872200  0.40859300  1
  C  291  1  0.10704800  0.11064600  0.38646200  1
  C  292  1  0.07598600  0.08455700  0.36975300  1
  C  293  1  0.02310100  0.08600300  0.37537300  1
  C  294  1  0.00135800  0.11393400  0.39787500  1
  C  301  1  0.51027800  0.69567700  0.10352800  1
  C  302  1  0.50647000  0.72440100  0.13074700  1
  C  303  1  0.49222600  0.72657200  0.15884800  1
  C  304  1  0.48216000  0.69913800  0.15917700  1
  C  305  1  0.48595000  0.67011300  0.13236300  1
  C  306  1  0.49959200  0.66850000  0.10435700  1
  C  309  1  0.53156400  0.69388200  0.07675500  1
  C  310  1  0.58462100  0.69792200  0.07502400  1
  C  311  1  0.60698800  0.69198700  0.04694600  1
  C  312  1  0.57592600  0.68265300  0.02086700  1
  C  313  1  0.52304800  0.67845100  0.02231400  1
  C  314  1  0.50130600  0.68385800  0.05023600  1
  C  321  1  0.51023300  0.50303200  0.30359700  1
  C  322  1  0.50647000  0.50154800  0.27488300  1
  C  323  1  0.49216900  0.52746700  0.27271100  1
  C  324  1  0.48208400  0.55522600  0.30014400  1
  C  325  1  0.48590800  0.55743600  0.32917000  1
  C  326  1  0.49955400  0.53104000  0.33077700  1
  C  329  1  0.53157200  0.47807700  0.30541100  1
  C  330  1  0.58462800  0.47232100  0.30138000  1
  C  331  1  0.60703800  0.45019900  0.30733000  1
  C  332  1  0.57599400  0.43347600  0.31670000  1
  C  333  1  0.52310200  0.43907500  0.32086600  1
  C  334  1  0.50133600  0.46157100  0.31543400  1
  C  341  1  0.51028200  0.89575800  0.49623600  1
  C  342  1  0.50648100  0.86854100  0.49774400  1
  C  343  1  0.49225300  0.84043500  0.47181500  1
  C  344  1  0.48219100  0.84010100  0.44404900  1
  C  345  1  0.48597600  0.86691400  0.44183800  1
  C  346  1  0.49960300  0.89492500  0.46822700  1
  C  349  1  0.53156400  0.92253500  0.52121200  1
  C  350  1  0.58461700  0.92426800  0.52698600  1
  C  351  1  0.60698000  0.95235100  0.54913200  1
  C  352  1  0.57591400  0.97842700  0.56586900  1
  C  353  1  0.52304100  0.97698000  0.56021300  1
  C  354  1  0.50130200  0.94905400  0.53769700  1
  C  361  1  0.91833900  0.50288200  0.10369000  1
  C  362  1  0.92215900  0.50144400  0.13094600  1
  C  363  1  0.93649800  0.52738400  0.15901200  1
  C  364  1  0.94658500  0.55511800  0.15928600  1
  C  365  1  0.94272600  0.55728200  0.13244900  1
  C  366  1  0.92902600  0.53086800  0.10447300  1
  C  369  1  0.89709100  0.47786600  0.07692600  1
  C  370  1  0.84412100  0.47186600  0.07526300  1
  C  371  1  0.82178200  0.44965300  0.04721300  1
  C  372  1  0.85280500  0.43308000  0.02107900  1
  C  373  1  0.90561600  0.43890700  0.02244000  1
  C  374  1  0.92728700  0.46151800  0.05034700  1
  C  381  1  0.91828600  0.89561600  0.30332200  1
  C  382  1  0.92215500  0.86837400  0.27462000  1
  C  383  1  0.93643700  0.84029800  0.27249200  1
  C  384  1  0.94650800  0.84001600  0.29994700  1
  C  385  1  0.94267400  0.86685300  0.32895200  1
  C  386  1  0.92898200  0.89483300  0.33052400  1
  C  389  1  0.89708600  0.92238600  0.30505500  1
  C  390  1  0.84411800  0.92405200  0.30070700  1
  C  391  1  0.82182400  0.95210900  0.30652700  1
  C  392  1  0.85286600  0.97822600  0.31604600  1
  C  393  1  0.90566000  0.97685500  0.32054800  1
  C  394  1  0.92730400  0.94895400  0.31528200  1
  C  401  1  0.91828600  0.69599700  0.49643100  1
  C  402  1  0.92210200  0.72469000  0.49786900  1
  C  403  1  0.93646400  0.72681600  0.47193400  1
  C  404  1  0.94658100  0.69936000  0.44420500  1
  C  405  1  0.94273700  0.67035600  0.44203700  1
  C  406  1  0.92900600  0.66879500  0.46845000  1
  C  409  1  0.89704300  0.69424700  0.52144600  1
  C  410  1  0.84407400  0.69858800  0.52745500  1
  C  411  1  0.82176600  0.69275200  0.54967500  1
  C  412  1  0.85278200  0.68319300  0.56625000  1
  C  413  1  0.90558800  0.67872800  0.56040900  1
  C  414  1  0.92725200  0.68402300  0.53779700  1
  C  421  1  0.41832600  0.56011100  0.83192200  1
  C  422  1  0.42221000  0.56156700  0.80467800  1
  C  423  1  0.43649600  0.53561400  0.77660500  1
  C  424  1  0.44655800  0.50788000  0.77633100  1
  C  425  1  0.44271200  0.50571900  0.80317100  1
  C  426  1  0.42901200  0.53212900  0.83114800  1
  C  429  1  0.39710800  0.58514900  0.85868500  1
  C  430  1  0.34413200  0.59114500  0.86033900  1
  C  431  1  0.32182200  0.61337500  0.88839200  1
  C  432  1  0.35283800  0.62998900  0.91451800  1
  C  433  1  0.40563600  0.62412300  0.91315400  1
  C  434  1  0.42730600  0.60149800  0.88525800  1
  C  441  1  0.41825300  0.16737900  0.63231700  1
  C  442  1  0.42206900  0.19463200  0.66101000  1
  C  443  1  0.43640800  0.22269800  0.66313900  1
  C  444  1  0.44650100  0.22297600  0.63568200  1
  C  445  1  0.44265800  0.19614000  0.60667700  1
  C  446  1  0.42895100  0.16816400  0.60511500  1
  C  449  1  0.39702500  0.14061000  0.63056700  1
  C  450  1  0.34406000  0.13893900  0.63491400  1
  C  451  1  0.32176100  0.11088200  0.62907700  1
  C  452  1  0.35278500  0.08474900  0.61950900  1
  C  453  1  0.40559400  0.08612600  0.61504000  1
  C  454  1  0.42723800  0.11403700  0.62033500  1
  C  461  1  0.41828800  0.36700400  0.43919000  1
  C  462  1  0.42214900  0.33830300  0.43773300  1
  C  463  1  0.43641200  0.33618000  0.46368700  1
  C  464  1  0.44647100  0.36363800  0.49142400  1
  C  465  1  0.44265800  0.39264200  0.49358800  1
  C  466  1  0.42897800  0.39420900  0.46717500  1
  C  469  1  0.39709700  0.36873500  0.41414900  1
  C  470  1  0.34412800  0.36438300  0.40812800  1
  C  471  1  0.32183700  0.37020600  0.38589300  1
  C  472  1  0.35288000  0.37973100  0.36929900  1
  C  473  1  0.40567400  0.38423800  0.37518200  1
  C  474  1  0.42731800  0.37896500  0.39781200  1
  C  481  1  0.93621300  0.75535600  0.18699300  1
  C  482  1  0.90901600  0.75876400  0.21275300  1
  C  483  1  0.90901400  0.78676600  0.24053200  1
  C  484  1  0.93646000  0.81238600  0.24370200  1
  C  485  1  0.96343400  0.80920100  0.21781800  1
  C  488  1  0.96270200  0.78110900  0.18982700  1
  C  492  1  0.93627900  0.52683600  0.24395800  1
  C  493  1  0.90909600  0.54919300  0.24055000  1
  C  494  1  0.90909300  0.54896700  0.21254700  1
  C  495  1  0.93653600  0.52651600  0.18692700  1
  C  496  1  0.96351200  0.50381900  0.19011400  1
  C  499  1  0.96276400  0.50391400  0.21820300  1
  C  503  1  0.93623600  0.81230500  0.47247500  1
  C  504  1  0.90906000  0.78653900  0.45011700  1
  C  505  1  0.90906100  0.75876200  0.45034300  1
  C  506  1  0.93649800  0.75560000  0.47279900  1
  C  507  1  0.96345400  0.78148900  0.49550300  1
  C  510  1  0.96270600  0.80948000  0.49540300  1
  C  514  1  0.43619500  0.30764300  0.74863000  1
  C  515  1  0.40900600  0.30423600  0.72286900  1
  C  516  1  0.40899100  0.27623100  0.69509300  1
  C  517  1  0.43644300  0.25061400  0.69192400  1
  C  518  1  0.46342600  0.25380000  0.71780400  1
  C  521  1  0.46267600  0.28188900  0.74579900  1
  C  525  1  0.43627900  0.53615900  0.69165800  1
  C  526  1  0.40909400  0.51380300  0.69506600  1
  C  527  1  0.40908600  0.51403100  0.72307000  1
  C  528  1  0.43653000  0.53648500  0.74869000  1
  C  529  1  0.46350600  0.55918200  0.74550300  1
  C  532  1  0.46277500  0.55907600  0.71740800  1
  C  536  1  0.43615700  0.25068700  0.46314100  1
  C  537  1  0.40894500  0.27644500  0.48548000  1
  C  538  1  0.40895300  0.30422300  0.48525500  1
  C  539  1  0.43642400  0.30739200  0.46281200  1
  C  540  1  0.46340700  0.28150900  0.44012300  1
  C  543  1  0.46265300  0.25351700  0.44022200  1
  C  547  1  0.99262700  0.53621000  0.74844500  1
  C  548  1  0.01976100  0.51382300  0.72267800  1
  C  549  1  0.01969600  0.51399800  0.69487500  1
  C  550  1  0.99221900  0.53642500  0.69168200  1
  C  551  1  0.96528900  0.55915200  0.71757100  1
  C  554  1  0.96613500  0.55911800  0.74559400  1
  C  558  1  0.99266100  0.25084300  0.69186200  1
  C  559  1  0.01979500  0.27661400  0.69524900  1
  C  560  1  0.01970400  0.30442000  0.72322500  1
  C  561  1  0.99222700  0.30760700  0.74884200  1
  C  562  1  0.96531500  0.28171400  0.74567900  1
  C  565  1  0.96614600  0.25369600  0.71761600  1
  C  569  1  0.99265300  0.30742100  0.46307300  1
  C  570  1  0.01978400  0.30403800  0.48546100  1
  C  571  1  0.01970000  0.27606100  0.48528800  1
  C  572  1  0.99223000  0.25044300  0.46285600  1
  C  573  1  0.96532000  0.25360100  0.44012100  1
  C  576  1  0.96613800  0.28166700  0.44017200  1
  C  580  1  0.49262200  0.52676700  0.18714100  1
  C  581  1  0.51975800  0.54915300  0.21291000  1
  C  582  1  0.51968200  0.54898000  0.24071300  1
  C  583  1  0.49219900  0.52655400  0.24390500  1
  C  584  1  0.46526900  0.50382900  0.21801700  1
  C  587  1  0.46609600  0.50387200  0.18999700  1
  C  591  1  0.49269800  0.81214300  0.24371800  1
  C  592  1  0.51984500  0.78637600  0.24033000  1
  C  593  1  0.51977300  0.75857400  0.21235200  1
  C  594  1  0.49227900  0.75538300  0.18673800  1
  C  595  1  0.46534900  0.78127200  0.18990300  1
  C  598  1  0.46619500  0.80929400  0.21796100  1
  C  602  1  0.49271000  0.75556700  0.47252300  1
  C  603  1  0.51985700  0.75895200  0.45014100  1
  C  604  1  0.51980000  0.78693100  0.45032100  1
  C  605  1  0.49230600  0.81254700  0.47274000  1
  C  606  1  0.46536500  0.80938300  0.49546200  1
  C  609  1  0.46619100  0.78132100  0.49542000  1
  C  613  1  0.66062300  0.69116200  0.04386900  1
  C  614  1  0.68807300  0.66654700  0.04283100  1
  C  615  1  0.74153600  0.66673500  0.04293400  1
  C  616  1  0.76862600  0.69151700  0.04404700  1
  C  617  1  0.74131500  0.71586000  0.04421500  1
  C  620  1  0.68755400  0.71567900  0.04435700  1
  C  624  1  0.66067200  0.44795900  0.30816400  1
  C  625  1  0.68814100  0.47161300  0.33269800  1
  C  626  1  0.74160100  0.47151700  0.33250400  1
  C  627  1  0.76867600  0.44777700  0.30777500  1
  C  628  1  0.74135500  0.42351800  0.28352100  1
  C  631  1  0.68759200  0.42384300  0.28372200  1
  C  635  1  0.66061500  0.95542800  0.55138500  1
  C  636  1  0.68807100  0.95645000  0.52780300  1
  C  637  1  0.74153400  0.95635300  0.52789600  1
  C  638  1  0.76861600  0.95523300  0.55156400  1
  C  639  1  0.74129800  0.95508600  0.57574900  1
  C  642  1  0.68753700  0.95497200  0.57543300  1
  C  646  1  0.16062300  0.37185800  0.89174300  1
  C  647  1  0.18809700  0.39644000  0.89272700  1
  C  648  1  0.24155700  0.39624700  0.89263100  1
  C  649  1  0.26862800  0.37146000  0.89152200  1
  C  650  1  0.24130200  0.34714600  0.89140100  1
  C  653  1  0.18754100  0.34735000  0.89128400  1
  C  657  1  0.16060700  0.61505900  0.62746900  1
  C  658  1  0.18806700  0.59143600  0.60290200  1
  C  659  1  0.24152700  0.59153000  0.60309100  1
  C  660  1  0.26861300  0.61524000  0.62784000  1
  C  661  1  0.24129400  0.63944900  0.65214100  1
  C  664  1  0.18753300  0.63912800  0.65195100  1
  C  668  1  0.16067600  0.10755400  0.38419500  1
  C  669  1  0.18813100  0.10650800  0.40776500  1
  C  670  1  0.24159200  0.10661000  0.40767900  1
  C  671  1  0.26867400  0.10776200  0.38402700  1
  C  672  1  0.24136300  0.10794400  0.35985900  1
  C  675  1  0.18760200  0.10805900  0.36017400  1
  C  679  1  0.26819000  0.61569900  0.89144800  1
  C  680  1  0.24075400  0.59256000  0.89329400  1
  C  681  1  0.18729000  0.59263800  0.89318900  1
  C  682  1  0.16020400  0.61586100  0.89126100  1
  C  683  1  0.18749900  0.63958900  0.89022500  1
  C  686  1  0.24126000  0.63926500  0.89008600  1
  C  690  1  0.26814100  0.10780500  0.62835500  1
  C  691  1  0.24069300  0.10587800  0.60333700  1
  C  692  1  0.18722900  0.10602000  0.60354100  1
  C  693  1  0.16015000  0.10803800  0.62873500  1
  C  694  1  0.18745700  0.10916900  0.65353900  1
  C  697  1  0.24121800  0.10927800  0.65333400  1
  C  701  1  0.26821300  0.37092200  0.38354600  1
  C  702  1  0.24077300  0.39595400  0.40662600  1
  C  703  1  0.18730500  0.39576500  0.40654700  1
  C  704  1  0.16022300  0.37057000  0.38337500  1
  C  705  1  0.18753300  0.34575100  0.35971800  1
  C  708  1  0.24129100  0.34593800  0.36004700  1
  C  712  1  0.76816000  0.44732000  0.04415100  1
  C  713  1  0.74069500  0.47048900  0.04237400  1
  C  714  1  0.68723000  0.47039600  0.04247800  1
  C  715  1  0.66016800  0.44713700  0.04435300  1
  C  716  1  0.68748800  0.42338000  0.04532500  1
  C  719  1  0.74125000  0.42371400  0.04545200  1
  C  723  1  0.76820000  0.95517200  0.30724600  1
  C  724  1  0.74075900  0.95710600  0.33227000  1
  C  725  1  0.68729200  0.95700700  0.33208700  1
  C  726  1  0.66021100  0.95498200  0.30689100  1
  C  727  1  0.68751800  0.95384400  0.28208200  1
  C  730  1  0.74127800  0.95372700  0.28227900  1
  C  734  1  0.76814300  0.69202800  0.55202400  1
  C  735  1  0.74068800  0.66703000  0.52891100  1
  C  736  1  0.68722100  0.66721600  0.52899600  1
  C  737  1  0.66014800  0.69240500  0.55218100  1
  C  738  1  0.68745900  0.71719500  0.57586800  1
  C  741  1  0.74121900  0.71699500  0.57554800  1
  C  745  1  0.99332900  0.63805800  0.94018200  1
  C  746  1  0.97861600  0.62081700  0.95403100  1
  C  747  1  0.95045800  0.63454500  0.98144900  1
  C  748  1  0.93586300  0.66568100  0.99536300  1
  C  749  1  0.95045200  0.68306400  0.98153000  1
  C  752  1  0.97925500  0.66926600  0.95421200  1
  C  756  1  0.99331100  0.39728300  0.36121500  1
  C  757  1  0.97856300  0.42836600  0.37846100  1
  C  758  1  0.95044600  0.44206300  0.36472600  1
  C  759  1  0.93587300  0.42484600  0.33358500  1
  C  760  1  0.95047600  0.39363100  0.31620000  1
  C  763  1  0.97927700  0.38011100  0.33000000  1
  C  767  1  0.99326800  0.05912600  0.60200300  1
  C  768  1  0.97847200  0.04530500  0.57092800  1
  C  769  1  0.95033100  0.01788200  0.55723600  1
  C  770  1  0.93582400  0.00393600  0.57444000  1
  C  771  1  0.95049200  0.01773700  0.60564200  1
  C  774  1  0.97929400  0.04505700  0.61916200  1
  C  778  1  0.49328500  0.42489100  0.99543000  1
  C  779  1  0.47850800  0.44214300  0.98160300  1
  C  780  1  0.45037400  0.42841300  0.95417800  1
  C  781  1  0.43584100  0.39726400  0.94024000  1
  C  782  1  0.45047700  0.37987300  0.95405600  1
  C  785  1  0.47928100  0.39367000  0.98137300  1
  C  789  1  0.49324700  0.66569900  0.57437200  1
  C  790  1  0.47847700  0.63462000  0.55712200  1
  C  791  1  0.45035500  0.62092400  0.57085800  1
  C  792  1  0.43581400  0.63813900  0.60200400  1
  C  793  1  0.45044300  0.66934700  0.61939400  1
  C  796  1  0.47923500  0.68286800  0.60559000  1
  C  800  1  0.49332700  0.00387600  0.33361600  1
  C  801  1  0.47858800  0.01771600  0.36470000  1
  C  802  1  0.45044300  0.04513900  0.37839200  1
  C  803  1  0.43588700  0.05906900  0.36117700  1
  C  804  1  0.45050000  0.04524200  0.32996500  1
  C  807  1  0.47929600  0.01792100  0.31644400  1
  C  811  1  0.93513800  0.42504000  0.99529000  1
  C  812  1  0.95027700  0.44235400  0.98159400  1
  C  813  1  0.97873800  0.42868200  0.95429100  1
  C  814  1  0.99330400  0.39754000  0.94036900  1
  C  815  1  0.97830000  0.38008400  0.95404700  1
  C  818  1  0.94916200  0.39382200  0.98123800  1
  C  822  1  0.93513400  0.66545400  0.57427800  1
  C  823  1  0.95025800  0.63444100  0.55697300  1
  C  824  1  0.97873600  0.62082100  0.57064800  1
  C  825  1  0.99330600  0.63804600  0.60178700  1
  C  826  1  0.97830400  0.66918300  0.61923900  1
  C  829  1  0.94917300  0.68263000  0.60549200  1
  C  833  1  0.93520700  0.00399800  0.33382700  1
  C  834  1  0.95037200  0.01768700  0.36483200  1
  C  835  1  0.97885900  0.04498000  0.37845600  1
  C  836  1  0.99336700  0.05892100  0.36124500  1
  C  837  1  0.97831900  0.04525800  0.33011900  1
  C  840  1  0.94919700  0.01806200  0.31666600  1
  C  844  1  0.43515900  0.63799700  0.94030700  1
  C  845  1  0.45032500  0.62067900  0.95401233  1
  C  846  1  0.47877800  0.63435400  0.98129900  1
  C  847  1  0.49331100  0.66550100  0.99523200  1
  C  848  1  0.47828300  0.68296200  0.98156300  1
  C  851  1  0.44915600  0.66921900  0.95436700  1
  C  855  1  0.43521600  0.39752000  0.36131600  1
  C  856  1  0.45040900  0.42851900  0.37864200  1
  C  857  1  0.47889200  0.44214600  0.36497400  1
  C  858  1  0.49338400  0.42494100  0.33382000  1
  C  859  1  0.47831700  0.39381900  0.31634900  1
  C  862  1  0.44918600  0.38036500  0.33008800  1
  C  866  1  0.43513300  0.05898200  0.60176300  1
  C  867  1  0.45027500  0.04528700  0.57075200  1
  C  868  1  0.47875200  0.01799100  0.55712700  1
  C  869  1  0.49330000  0.00406300  0.57434500  1
  C  870  1  0.47829400  0.01774100  0.60547800  1
  C  873  1  0.44916300  0.04493400  0.61893100  1
  C  877  1  0.94607200  0.58646800  0.13460600  1
  C  878  1  0.98215900  0.59230100  0.11733900  1
  C  879  1  0.98178600  0.62031200  0.11748000  1
  C  880  1  0.94511600  0.64308100  0.13471000  1
  C  881  1  0.90912200  0.63740500  0.15230200  1
  C  884  1  0.91015400  0.60948900  0.15239800  1
  C  888  1  0.94611500  0.64333100  0.41285200  1
  C  889  1  0.98217700  0.62022400  0.40702600  1
  C  890  1  0.98181700  0.59235800  0.37901100  1
  C  891  1  0.94516600  0.58682300  0.35623600  1
  C  892  1  0.90916300  0.61008900  0.36191500  1
  C  895  1  0.91021100  0.63811000  0.38982400  1
  C  899  1  0.94604800  0.86468900  0.35597400  1
  C  900  1  0.98212400  0.88196500  0.37907800  1
  C  901  1  0.98177000  0.88181900  0.40694700  1
  C  902  1  0.94510100  0.86459300  0.41248800  1
  C  903  1  0.90910300  0.84700000  0.38922300  1
  C  906  1  0.91015700  0.84687900  0.36119800  1
  C  910  1  0.44606700  0.47653300  0.80101200  1
  C  911  1  0.48213300  0.47070600  0.81829100  1
  C  912  1  0.48177200  0.44269200  0.81814500  1
  C  913  1  0.44510300  0.41992200  0.80091600  1
  C  914  1  0.40910900  0.42560000  0.78332500  1
  C  917  1  0.41016000  0.45350700  0.78321000  1
  C  921  1  0.44602100  0.41967400  0.52277000  1
  C  922  1  0.48211400  0.44276500  0.52858900  1
  C  923  1  0.48177200  0.47063600  0.55660300  1
  C  924  1  0.44511900  0.47618400  0.57938200  1
  C  925  1  0.40909800  0.45293100  0.57371100  1
  C  928  1  0.41011100  0.42491300  0.54579800  1
  C  932  1  0.44600600  0.19830400  0.57965400  1
  C  933  1  0.48209900  0.18104300  0.55655600  1
  C  934  1  0.48173700  0.18119600  0.52869000  1
  C  935  1  0.44505800  0.19841900  0.52315000  1
  C  936  1  0.40905200  0.21600000  0.54641400  1
  C  939  1  0.41010300  0.21611200  0.57443500  1
  C  943  1  0.98260400  0.41987800  0.80101900  1
  C  944  1  0.94658600  0.44302100  0.81828900  1
  C  945  1  0.94705200  0.47088400  0.81813000  1
  C  946  1  0.98376500  0.47637200  0.80088700  1
  C  947  1  0.01971100  0.45306700  0.78330400  1
  C  950  1  0.01856900  0.42505700  0.78321300  1
  C  954  1  0.98264900  0.19825400  0.52294100  1
  C  955  1  0.94661600  0.18099800  0.52882400  1
  C  956  1  0.94708900  0.18116100  0.55684600  1
  C  957  1  0.98379100  0.19841600  0.57958200  1
  C  958  1  0.01974200  0.21599200  0.57385200  1
  C  961  1  0.01859200  0.21608300  0.54593300  1
  C  965  1  0.98263500  0.47632800  0.57940900  1
  C  966  1  0.94662000  0.47044700  0.55625900  1
  C  967  1  0.94709700  0.44242900  0.52839800  1
  C  968  1  0.98381200  0.41969800  0.52291200  1
  C  969  1  0.01974600  0.42542100  0.54622400  1
  C  972  1  0.01860700  0.45334600  0.57422700  1
  C  976  1  0.48265100  0.64310700  0.13456400  1
  C  977  1  0.44664200  0.61995900  0.11728800  1
  C  978  1  0.44709100  0.59210200  0.11745500  1
  C  979  1  0.48378600  0.58661500  0.13470700  1
  C  980  1  0.51973100  0.60992100  0.15229100  1
  C  983  1  0.51859200  0.63793100  0.15238300  1
  C  987  1  0.48267000  0.86470400  0.41262400  1
  C  988  1  0.44665000  0.88196800  0.40674500  1
  C  989  1  0.44710700  0.88180100  0.37871900  1
  C  990  1  0.48382800  0.86456400  0.35599400  1
  C  991  1  0.51977300  0.84698300  0.36171900  1
  C  994  1  0.51861500  0.84688400  0.38963300  1
  C  998  1  0.48263200  0.58664600  0.35617600  1
  C  999  1  0.44660800  0.59252800  0.37932100  1
  C  1000  1  0.44706800  0.62055700  0.40717500  1
  C  1001  1  0.48379400  0.64328200  0.41266000  1
  C  1002  1  0.51973100  0.63755300  0.38935200  1
  C  1005  1  0.51858500  0.60963300  0.36134500  1
  O  17  1  0.91905800  0.64081300  0.07926100  1
  O  18  1  0.81451300  0.70549600  0.10004300  1
  O  37  1  0.91910700  0.53362800  0.35849500  1
  O  38  1  0.81462100  0.48977900  0.29381200  1
  O  57  1  0.91904100  0.92003900  0.46566800  1
  O  58  1  0.81451200  0.89924100  0.50955300  1
  O  77  1  0.41904500  0.42218500  0.85637000  1
  O  78  1  0.31454000  0.35751500  0.83555500  1
  O  97  1  0.41907600  0.52937400  0.57713100  1
  O  98  1  0.31455900  0.57324100  0.64182100  1
  O  117  1  0.41903000  0.14295400  0.46995800  1
  O  118  1  0.31454400  0.16374400  0.42606000  1
  O  137  1  0.00998100  0.52959000  0.85627500  1
  O  138  1  0.11438700  0.57375800  0.83532200  1
  O  157  1  0.01001100  0.14301400  0.57740700  1
  O  158  1  0.11436800  0.16396100  0.64252700  1
  O  177  1  0.01004900  0.42186700  0.46969300  1
  O  178  1  0.11445200  0.35675700  0.42551000  1
  O  197  1  0.51000000  0.53338500  0.07931000  1
  O  198  1  0.61434200  0.48924900  0.10027400  1
  O  217  1  0.51003500  0.91996000  0.35817700  1
  O  218  1  0.61443700  0.89903600  0.29306200  1
  O  237  1  0.50998900  0.64110600  0.46588600  1
  O  238  1  0.61437300  0.70620500  0.51005400  1
  O  257  1  0.00875400  0.42238200  0.85655700  1
  O  258  1  0.11478300  0.35797300  0.83578200  1
  O  277  1  0.00876900  0.52937600  0.57691400  1
  O  278  1  0.11473400  0.57298200  0.64132500  1
  O  297  1  0.00880000  0.14272600  0.46990400  1
  O  298  1  0.11482500  0.16350900  0.42627900  1
  O  317  1  0.50879300  0.64061300  0.07902200  1
  O  318  1  0.61478400  0.70500600  0.09980700  1
  O  337  1  0.50875500  0.53360700  0.35867100  1
  O  338  1  0.61476100  0.49001400  0.29427400  1
  O  357  1  0.50879700  0.92025700  0.46566800  1
  O  358  1  0.61478400  0.89948700  0.50929900  1
  O  377  1  0.91978700  0.53340000  0.07913000  1
  O  378  1  0.81393400  0.48947300  0.10006000  1
  O  397  1  0.91974100  0.92018200  0.35839400  1
  O  398  1  0.81390200  0.89927200  0.29354100  1
  O  417  1  0.91977700  0.64091900  0.46591600  1
  O  418  1  0.81387000  0.70576900  0.50984800  1
  O  437  1  0.41975800  0.52961300  0.85649700  1
  O  438  1  0.31393800  0.57352100  0.83555100  1
  O  457  1  0.41972000  0.14282100  0.57724000  1
  O  458  1  0.31384700  0.16372500  0.64210000  1
  O  477  1  0.41975000  0.42207600  0.46968800  1
  O  478  1  0.31390800  0.35721500  0.42574000  1
  O  490  1  0.99120200  0.83265300  0.21910100  1
  O  501  1  0.99128000  0.48165000  0.16666300  1
  O  512  1  0.99121700  0.78020900  0.51767600  1
  O  523  1  0.49120200  0.23035000  0.71651900  1
  O  534  1  0.49127400  0.58135100  0.76895200  1
  O  545  1  0.49121300  0.28279400  0.41796800  1
  O  556  1  0.93748100  0.58129500  0.71626600  1
  O  567  1  0.93751400  0.28301400  0.76912800  1
  O  578  1  0.93754100  0.23014800  0.41796300  1
  O  589  1  0.43746700  0.48168200  0.21931900  1
  O  600  1  0.43752400  0.77996800  0.16646000  1
  O  611  1  0.43754700  0.83283000  0.51760200  1
  O  622  1  0.76585000  0.74083500  0.04677500  1
  O  633  1  0.76587900  0.40103200  0.25859200  1
  O  644  1  0.76584300  0.95254200  0.59816900  1
  O  655  1  0.26581700  0.32217400  0.88886000  1
  O  666  1  0.26584000  0.66191300  0.67707700  1
  O  677  1  0.26590900  0.11052200  0.33745800  1
  O  688  1  0.16296500  0.66153100  0.88686900  1
  O  699  1  0.16291500  0.11258800  0.67886100  1
  O  710  1  0.16300700  0.32041700  0.33782400  1
  O  721  1  0.66297500  0.40140100  0.04862700  1
  O  732  1  0.66297400  0.95042700  0.25676200  1
  O  743  1  0.66293700  0.74251700  0.59778100  1
  O  754  1  0.93663700  0.71298700  0.99378600  1
  O  765  1  0.93669100  0.37596900  0.28627000  1
  O  776  1  0.93674300  0.00545600  0.62329800  1
  O  787  1  0.43671700  0.34993800  0.94177600  1
  O  798  1  0.43667500  0.68700700  0.64932600  1
  O  809  1  0.43671300  0.05750700  0.31230100  1
  O  820  1  0.99202500  0.35014300  0.94175900  1
  O  831  1  0.99202600  0.68684100  0.64917900  1
  O  842  1  0.99199200  0.05756400  0.31247500  1
  O  853  1  0.49197100  0.71290900  0.99386400  1
  O  864  1  0.49198600  0.37617900  0.28639700  1
  O  875  1  0.49200500  0.00544900  0.62313000  1
  O  886  1  0.87191100  0.65797500  0.16876900  1
  O  897  1  0.87193700  0.60597900  0.34135200  1
  O  908  1  0.87189500  0.83053600  0.39333200  1
  O  919  1  0.37188500  0.40503500  0.76686700  1
  O  930  1  0.37190000  0.45704500  0.59429400  1
  O  941  1  0.37183100  0.23246000  0.54230800  1
  O  952  1  0.05696600  0.45712700  0.76683300  1
  O  963  1  0.05698100  0.23247600  0.59438600  1
  O  974  1  0.05698900  0.40488600  0.54217300  1
  O  985  1  0.55698200  0.60586200  0.16876600  1
  O  996  1  0.55702000  0.83050400  0.34118300  1
  O  1007  1  0.55699000  0.65808100  0.39340400  1
