# generated using pymatgen
data_H9C20N4O3
_symmetry_space_group_name_H-M   'P 1'
_cell_length_a   34.96750000
_cell_length_b   41.62745000
_cell_length_c   41.62750000
_cell_angle_alpha   120.00011920
_cell_angle_beta   90.09120000
_cell_angle_gamma   89.90879989
_symmetry_Int_Tables_number   1
_chemical_formula_structural   H9C20N4O3
_chemical_formula_sum   'H216 C480 N96 O72'
_cell_volume   52475.19938003
_cell_formula_units_Z   24
loop_
 _symmetry_equiv_pos_site_id
 _symmetry_equiv_pos_as_xyz
  1  'x, y, z'
loop_
 _atom_site_type_symbol
 _atom_site_label
 _atom_site_symmetry_multiplicity
 _atom_site_fract_x
 _atom_site_fract_y
 _atom_site_fract_z
 _atom_site_occupancy
  H  7  1  0.95676900  0.56650000  0.52970500  1
  H  16  1  0.04878000  0.53806100  0.58016400  1
  H  17  1  0.87079000  0.50726900  0.57602700  1
  H  18  1  0.13558700  0.59438700  0.53192900  1
  H  19  1  0.99461200  0.56279000  0.62388400  1
  H  20  1  0.00090800  0.61980300  0.56109600  1
  H  31  1  0.62276900  0.96671900  0.43554100  1
  H  40  1  0.71472000  0.04542800  0.46391500  1
  H  41  1  0.53676000  0.07245100  0.49494500  1
  H  42  1  0.80160100  0.94070700  0.40744300  1
  H  43  1  0.66049000  0.06455900  0.43929100  1
  H  44  1  0.66685000  0.94472700  0.38221300  1
  H  55  1  0.28891500  0.47250200  0.03537100  1
  H  64  1  0.38091500  0.42231900  0.95664800  1
  H  65  1  0.20284400  0.42599900  0.92964200  1
  H  66  1  0.46784700  0.47068200  0.06136200  1
  H  67  1  0.32689100  0.37846300  0.93753000  1
  H  68  1  0.33326200  0.44122300  0.05735200  1
  H  79  1  0.45686300  0.43732400  0.47073100  1
  H  88  1  0.54852300  0.46576700  0.42023900  1
  H  89  1  0.37038800  0.49650000  0.42444700  1
  H  90  1  0.63572900  0.40955200  0.46858100  1
  H  91  1  0.49425200  0.44102100  0.37652300  1
  H  92  1  0.50106700  0.38402100  0.43932100  1
  H  103  1  0.12290900  0.03700000  0.56493500  1
  H  112  1  0.21486100  0.95813700  0.53649400  1
  H  113  1  0.03686900  0.93142400  0.50574100  1
  H  114  1  0.30175300  0.06272100  0.59264500  1
  H  115  1  0.16078500  0.93916100  0.56130700  1
  H  116  1  0.16717900  0.05896200  0.61824600  1
  H  127  1  0.78893300  0.53145300  0.96463000  1
  H  136  1  0.88062100  0.58191400  0.04374500  1
  H  137  1  0.70268000  0.57759100  0.07000300  1
  H  138  1  0.96782500  0.53372100  0.93943400  1
  H  139  1  0.82639000  0.62565500  0.06260500  1
  H  140  1  0.83313400  0.56290600  0.94282800  1
  H  151  1  0.14481000  0.46185100  0.54903200  1
  H  156  1  0.19534500  0.56781500  0.60801100  1
  H  161  1  0.31888900  0.39668500  0.47705800  1
  H  162  1  0.35864300  0.50667000  0.54070800  1
  H  167  1  0.10822700  0.52482900  0.59873900  1
  H  168  1  0.39334400  0.41857600  0.48325800  1
  H  175  1  0.81063300  0.09052100  0.53993300  1
  H  180  1  0.86126500  0.04330200  0.43400400  1
  H  185  1  0.98476900  0.08390000  0.60538600  1
  H  186  1  0.02461800  0.03735000  0.49541900  1
  H  191  1  0.77410200  0.07715100  0.47684000  1
  H  192  1  0.05925600  0.06820200  0.58360000  1
  H  199  1  0.47669300  0.45341300  0.91154500  1
  H  204  1  0.52754600  0.39458200  0.95867500  1
  H  209  1  0.65076600  0.52491600  0.91767800  1
  H  210  1  0.69084100  0.46141300  0.96416700  1
  H  215  1  0.44029000  0.40376100  0.92493100  1
  H  216  1  0.72537400  0.51859600  0.93326600  1
  H  223  1  0.64446900  0.54212300  0.45152400  1
  H  228  1  0.69509300  0.43611200  0.39262400  1
  H  233  1  0.81862300  0.60718700  0.52343900  1
  H  234  1  0.85844300  0.49715100  0.45989300  1
  H  239  1  0.60786400  0.47924000  0.40193800  1
  H  240  1  0.89307800  0.58529100  0.51729000  1
  H  247  1  0.31072100  0.91314500  0.46012200  1
  H  252  1  0.36150000  0.96007800  0.56606600  1
  H  257  1  0.48464600  0.92002100  0.39492900  1
  H  258  1  0.52463500  0.96631700  0.50490200  1
  H  263  1  0.27428700  0.92636200  0.52308000  1
  H  264  1  0.55909500  0.93567000  0.41673300  1
  H  271  1  0.97662200  0.55046700  0.08887600  1
  H  276  1  0.02716300  0.60965300  0.04216800  1
  H  281  1  0.15078400  0.47835200  0.08198700  1
  H  282  1  0.19051200  0.54219300  0.03589700  1
  H  287  1  0.93996700  0.60019000  0.07568800  1
  H  288  1  0.22521600  0.48457500  0.06642000  1
  H  295  1  0.04875700  0.65505100  0.46618200  1
  H  300  1  0.06893000  0.71814600  0.58141500  1
  H  305  1  0.09299300  0.80941300  0.45874200  1
  H  306  1  0.10957400  0.86269900  0.57454400  1
  H  311  1  0.02818100  0.63311100  0.51081200  1
  H  312  1  0.13061600  0.87309800  0.49869100  1
  H  319  1  0.71489100  0.81444400  0.34687400  1
  H  324  1  0.73461000  0.86660500  0.28378000  1
  H  329  1  0.75868900  0.65258200  0.19225800  1
  H  330  1  0.77484200  0.71513900  0.13900100  1
  H  335  1  0.69427800  0.88108500  0.36894400  1
  H  336  1  0.79605200  0.62878100  0.12853600  1
  H  343  1  0.38160400  0.53626300  0.18757600  1
  H  348  1  0.40108800  0.42092100  0.13546600  1
  H  353  1  0.42639200  0.54358600  0.34933200  1
  H  354  1  0.44223500  0.42768600  0.28685800  1
  H  359  1  0.36059600  0.49162000  0.12101500  1
  H  360  1  0.46392100  0.50356200  0.37304100  1
  H  367  1  0.54894900  0.34893500  0.53440100  1
  H  372  1  0.56953900  0.28584400  0.41927300  1
  H  377  1  0.59262900  0.19441900  0.54197700  1
  H  378  1  0.60965400  0.14115100  0.42626800  1
  H  383  1  0.52865800  0.37097800  0.48980100  1
  H  384  1  0.63032400  0.13064000  0.50213100  1
  H  391  1  0.21502100  0.18910900  0.65327300  1
  H  396  1  0.23535400  0.13708100  0.71646700  1
  H  401  1  0.25908700  0.35106400  0.80765400  1
  H  402  1  0.27582600  0.28864700  0.86103800  1
  H  407  1  0.19451300  0.12252900  0.63135000  1
  H  408  1  0.29675100  0.37489500  0.87143800  1
  H  415  1  0.88131800  0.46806200  0.81279700  1
  H  420  1  0.90186200  0.58320300  0.86498800  1
  H  425  1  0.92662700  0.46040600  0.65111100  1
  H  426  1  0.94351500  0.57613200  0.71365900  1
  H  431  1  0.86057500  0.51274200  0.87929300  1
  H  432  1  0.96469500  0.50034600  0.62751600  1
  H  439  1  0.95676900  0.98995670  0.21740970  1
  H  448  1  0.04878000  0.96151770  0.26786870  1
  H  449  1  0.87079000  0.93072570  0.26373170  1
  H  450  1  0.13558700  0.01784400  0.21963400  1
  H  451  1  0.99461200  0.98624670  0.31158870  1
  H  452  1  0.00090800  0.04326000  0.24880100  1
  H  463  1  0.62276900  0.39017600  0.12324600  1
  H  472  1  0.71472000  0.46888500  0.15162000  1
  H  473  1  0.53676000  0.49590800  0.18265000  1
  H  474  1  0.80160100  0.36416400  0.09514800  1
  H  475  1  0.66049000  0.48801600  0.12699600  1
  H  476  1  0.66685000  0.36818400  0.06991800  1
  H  487  1  0.28891500  0.89595900  0.72307600  1
  H  496  1  0.38091500  0.84577600  0.64435300  1
  H  497  1  0.20284400  0.84945600  0.61734700  1
  H  498  1  0.46784700  0.89413900  0.74906700  1
  H  499  1  0.32689100  0.80192000  0.62523500  1
  H  500  1  0.33326200  0.86468000  0.74505700  1
  H  511  1  0.45686300  0.86078100  0.15843600  1
  H  520  1  0.54852300  0.88922400  0.10794400  1
  H  521  1  0.37038800  0.91995670  0.11215170  1
  H  522  1  0.63572900  0.83300900  0.15628600  1
  H  523  1  0.49425200  0.86447800  0.06422800  1
  H  524  1  0.50106700  0.80747800  0.12702600  1
  H  535  1  0.12290900  0.46045700  0.25264000  1
  H  544  1  0.21486100  0.38159400  0.22419900  1
  H  545  1  0.03686900  0.35488100  0.19344600  1
  H  546  1  0.30175300  0.48617800  0.28035000  1
  H  547  1  0.16078500  0.36261800  0.24901200  1
  H  548  1  0.16717900  0.48241900  0.30595100  1
  H  559  1  0.78893300  0.95490970  0.65233470  1
  H  568  1  0.88062100  0.00537100  0.73145000  1
  H  569  1  0.70268000  0.00104800  0.75770800  1
  H  570  1  0.96782500  0.95717770  0.62713870  1
  H  571  1  0.82639000  0.04911200  0.75031000  1
  H  572  1  0.83313400  0.98636270  0.63053270  1
  H  583  1  0.14481000  0.88530800  0.23673700  1
  H  588  1  0.19534500  0.99127167  0.29571567  1
  H  593  1  0.31888900  0.82014200  0.16476300  1
  H  594  1  0.35864300  0.93012670  0.22841270  1
  H  599  1  0.10822700  0.94828570  0.28644370  1
  H  600  1  0.39334400  0.84203300  0.17096300  1
  H  607  1  0.81063300  0.51397800  0.22763800  1
  H  612  1  0.86126500  0.46675900  0.12170900  1
  H  617  1  0.98476900  0.50735700  0.29309100  1
  H  618  1  0.02461800  0.46080700  0.18312400  1
  H  623  1  0.77410200  0.50060800  0.16454500  1
  H  624  1  0.05925600  0.49165900  0.27130500  1
  H  631  1  0.47669300  0.87687000  0.59925000  1
  H  636  1  0.52754600  0.81803900  0.64638000  1
  H  641  1  0.65076600  0.94837270  0.60538270  1
  H  642  1  0.69084100  0.88487000  0.65187200  1
  H  647  1  0.44029000  0.82721800  0.61263600  1
  H  648  1  0.72537400  0.94205270  0.62097070  1
  H  655  1  0.64446900  0.96557970  0.13922870  1
  H  660  1  0.69509300  0.85956900  0.08032900  1
  H  665  1  0.81862300  0.03064400  0.21114400  1
  H  666  1  0.85844300  0.92060770  0.14759770  1
  H  671  1  0.60786400  0.90269670  0.08964270  1
  H  672  1  0.89307800  0.00874800  0.20499500  1
  H  679  1  0.31072100  0.33660200  0.14782700  1
  H  684  1  0.36150000  0.38353500  0.25377100  1
  H  689  1  0.48464600  0.34347800  0.08263400  1
  H  690  1  0.52463500  0.38977400  0.19260700  1
  H  695  1  0.27428700  0.34981900  0.21078500  1
  H  696  1  0.55909500  0.35912700  0.10443800  1
  H  703  1  0.97662200  0.97392370  0.77658070  1
  H  708  1  0.02716300  0.03311000  0.72987300  1
  H  713  1  0.15078400  0.90180870  0.76969170  1
  H  714  1  0.19051200  0.96564970  0.72360170  1
  H  719  1  0.93996700  0.02364700  0.76339300  1
  H  720  1  0.22521600  0.90803170  0.75412470  1
  H  727  1  0.04875700  0.07850800  0.15388740  1
  H  732  1  0.06893000  0.14160300  0.26912000  1
  H  737  1  0.09299300  0.23287000  0.14644700  1
  H  738  1  0.10957400  0.28615600  0.26224900  1
  H  743  1  0.02818100  0.05656800  0.19851700  1
  H  744  1  0.13061600  0.29655500  0.18639600  1
  H  751  1  0.71489100  0.23790100  0.03457900  1
  H  756  1  0.73461000  0.29006200  0.97148500  1
  H  761  1  0.75868900  0.07603900  0.87996300  1
  H  762  1  0.77484200  0.13859600  0.82670600  1
  H  767  1  0.69427800  0.30454200  0.05664900  1
  H  768  1  0.79605200  0.05223800  0.81624100  1
  H  775  1  0.38160400  0.95971970  0.87528070  1
  H  780  1  0.40108800  0.84437800  0.82317100  1
  H  785  1  0.42639200  0.96704270  0.03703710  1
  H  786  1  0.44223500  0.85114300  0.97456300  1
  H  791  1  0.36059600  0.91507670  0.80871970  1
  H  792  1  0.46392100  0.92701870  0.06074570  1
  H  799  1  0.54894900  0.77239200  0.22210600  1
  H  804  1  0.56953900  0.70930100  0.10697800  1
  H  809  1  0.59262900  0.61787600  0.22968200  1
  H  810  1  0.60965400  0.56460800  0.11397300  1
  H  815  1  0.52865800  0.79443500  0.17750600  1
  H  816  1  0.63032400  0.55409700  0.18983600  1
  H  823  1  0.21502100  0.61256600  0.34097800  1
  H  828  1  0.23535400  0.56053800  0.40417200  1
  H  833  1  0.25908700  0.77452100  0.49535900  1
  H  834  1  0.27582600  0.71210400  0.54874300  1
  H  839  1  0.19451300  0.54598600  0.31905500  1
  H  840  1  0.29675100  0.79835200  0.55914300  1
  H  847  1  0.88131800  0.89151900  0.50050200  1
  H  852  1  0.90186200  0.00666000  0.55269300  1
  H  857  1  0.92662700  0.88386300  0.33881600  1
  H  858  1  0.94351500  0.99958867  0.40136367  1
  H  863  1  0.86057500  0.93619870  0.56699770  1
  H  864  1  0.96469500  0.92380270  0.31522070  1
  C  1  1  0.98164700  0.56632000  0.57598500  1
  C  2  1  0.95149800  0.56248000  0.55161500  1
  C  3  1  0.91429400  0.55225900  0.55626100  1
  C  4  1  0.90733700  0.54424300  0.58497000  1
  C  5  1  0.93712800  0.54750100  0.60935800  1
  C  6  1  0.97371900  0.55904200  0.60504700  1
  C  9  1  0.01900700  0.57726300  0.57147000  1
  C  10  1  0.02418600  0.60585200  0.56292300  1
  C  11  1  0.06100300  0.61634000  0.55768800  1
  C  12  1  0.09345300  0.59879100  0.56232100  1
  C  13  1  0.08910900  0.57061500  0.57157100  1
  C  14  1  0.05193200  0.55972100  0.57536700  1
  C  25  1  0.64758600  0.01313800  0.43573000  1
  C  26  1  0.61747000  0.99266800  0.43958600  1
  C  27  1  0.58026600  0.00761700  0.44985600  1
  C  28  1  0.57327700  0.04437100  0.45791800  1
  C  29  1  0.60303600  0.06544300  0.45464700  1
  C  30  1  0.63962200  0.04950500  0.44304600  1
  C  33  1  0.68494700  0.99759900  0.42474000  1
  C  34  1  0.69012900  0.96045900  0.39613900  1
  C  35  1  0.72695200  0.94466100  0.38560200  1
  C  36  1  0.75940300  0.96678100  0.40310900  1
  C  37  1  0.75505100  0.00421300  0.43128800  1
  C  38  1  0.71787200  0.01897200  0.44224400  1
  C  49  1  0.31386400  0.42630700  0.98894900  1
  C  50  1  0.28366700  0.45058800  0.00942500  1
  C  51  1  0.24644100  0.44584500  0.99448600  1
  C  52  1  0.23950300  0.41713600  0.95773700  1
  C  53  1  0.26934300  0.39283800  0.93665700  1
  C  54  1  0.30596000  0.39724100  0.95258700  1
  C  57  1  0.35125000  0.43092100  0.00448100  1
  C  58  1  0.35650100  0.43946000  0.04161700  1
  C  59  1  0.39334400  0.44477200  0.05740800  1
  C  60  1  0.42574800  0.44021700  0.03528200  1
  C  61  1  0.42133300  0.43097600  0.99785600  1
  C  62  1  0.38412700  0.42711400  0.98310700  1
  C  73  1  0.48152300  0.43748900  0.42442900  1
  C  74  1  0.45146900  0.44133100  0.44881700  1
  C  75  1  0.41419800  0.45153800  0.44418600  1
  C  76  1  0.40706800  0.45953900  0.41547300  1
  C  77  1  0.43676100  0.45628500  0.39106900  1
  C  78  1  0.47342700  0.44476100  0.39536800  1
  C  81  1  0.51894900  0.42655800  0.42893600  1
  C  82  1  0.52428000  0.39798200  0.43749700  1
  C  83  1  0.56115700  0.38752500  0.44276900  1
  C  84  1  0.59351600  0.40509000  0.43814800  1
  C  85  1  0.58902000  0.43325600  0.42888400  1
  C  86  1  0.55178600  0.44411600  0.42504900  1
  C  97  1  0.14779800  0.99057300  0.56481000  1
  C  98  1  0.11763600  0.01108100  0.56094600  1
  C  99  1  0.08042100  0.99619900  0.55072400  1
  C  100  1  0.07346000  0.95947700  0.54273000  1
  C  101  1  0.10326500  0.93837200  0.54601600  1
  C  102  1  0.13987400  0.95424100  0.55755700  1
  C  105  1  0.18518100  0.00603700  0.57571400  1
  C  106  1  0.19042100  0.04318100  0.60427700  1
  C  107  1  0.22725800  0.05891700  0.61471100  1
  C  108  1  0.25967100  0.03673700  0.59712900  1
  C  109  1  0.25526400  0.99930400  0.56897600  1
  C  110  1  0.21806400  0.98460000  0.55813900  1
  C  121  1  0.81361800  0.57775900  0.01113800  1
  C  122  1  0.78356100  0.55335600  0.99054500  1
  C  123  1  0.74632500  0.55794600  0.00535200  1
  C  124  1  0.73923800  0.58664000  0.04206900  1
  C  125  1  0.76893500  0.61106600  0.06325000  1
  C  126  1  0.80556000  0.60680600  0.04746300  1
  C  129  1  0.85103400  0.57325900  0.99578100  1
  C  130  1  0.85635200  0.56473000  0.95866600  1
  C  131  1  0.89323100  0.55950400  0.94304500  1
  C  132  1  0.92559600  0.56411700  0.96531300  1
  C  133  1  0.92110600  0.57333500  0.00271400  1
  C  134  1  0.88387500  0.57713400  0.01730400  1
  C  145  1  0.16409600  0.51717200  0.58092200  1
  C  146  1  0.19715800  0.53956600  0.59211600  1
  C  148  1  0.23711000  0.48697000  0.55640100  1
  C  149  1  0.20516300  0.46267200  0.54529300  1
  C  150  1  0.16859500  0.47840500  0.55823000  1
  C  152  1  0.27351800  0.47332000  0.54121900  1
  C  153  1  0.33809200  0.48678700  0.53371300  1
  C  154  1  0.34465300  0.44958500  0.50614700  1
  C  155  1  0.31487100  0.42363300  0.49758300  1
  C  158  1  0.27862800  0.43516100  0.51469400  1
  C  159  1  0.24711600  0.41074200  0.50501600  1
  C  160  1  0.21065700  0.42439300  0.52020100  1
  C  165  1  0.12822800  0.53276500  0.58726100  1
  C  166  1  0.37782100  0.43969100  0.48565600  1
  C  169  1  0.82997100  0.06696900  0.48462400  1
  C  170  1  0.86305400  0.05571200  0.46225900  1
  C  172  1  0.90297400  0.07271200  0.51492400  1
  C  173  1  0.87099700  0.08595100  0.53918500  1
  C  174  1  0.83443200  0.08312200  0.52340100  1
  C  176  1  0.93939500  0.07122500  0.52863400  1
  C  177  1  0.00403300  0.05026400  0.51527300  1
  C  178  1  0.01058500  0.05998900  0.55250700  1
  C  179  1  0.98075400  0.07741300  0.57841500  1
  C  182  1  0.94448700  0.08294600  0.56681800  1
  C  183  1  0.91293900  0.09772800  0.59119700  1
  C  184  1  0.87646800  0.09922200  0.57748600  1
  C  189  1  0.79412300  0.05771100  0.46900000  1
  C  190  1  0.04379800  0.04944900  0.56247500  1
  C  193  1  0.49614000  0.42162200  0.93508000  1
  C  194  1  0.52927300  0.41042600  0.94626800  1
  C  196  1  0.56910200  0.44593500  0.92913000  1
  C  197  1  0.53706600  0.45706000  0.91597300  1
  C  198  1  0.50052400  0.44422400  0.91890300  1
  C  200  1  0.60551600  0.46099100  0.93048700  1
  C  201  1  0.67024400  0.46832900  0.95120200  1
  C  202  1  0.67670800  0.49585200  0.94150000  1
  C  203  1  0.64680800  0.50443100  0.92415600  1
  C  206  1  0.61054000  0.48741900  0.91872700  1
  C  207  1  0.57892800  0.49712100  0.90403800  1
  C  208  1  0.54246600  0.48205000  0.90266300  1
  C  213  1  0.46032300  0.41529800  0.94435400  1
  C  214  1  0.70989300  0.51631500  0.95203100  1
  C  217  1  0.66379600  0.48678100  0.41968100  1
  C  218  1  0.69688100  0.46436000  0.40850300  1
  C  220  1  0.73681000  0.51693300  0.44418200  1
  C  221  1  0.70483400  0.54125600  0.45527000  1
  C  222  1  0.66826500  0.52554800  0.44234200  1
  C  224  1  0.77323700  0.53056200  0.45934100  1
  C  225  1  0.83789500  0.51706400  0.46680700  1
  C  226  1  0.84443500  0.55426500  0.49438000  1
  C  227  1  0.81460800  0.58023600  0.50292800  1
  C  230  1  0.77833700  0.56872700  0.48583100  1
  C  231  1  0.74679000  0.59316900  0.49549300  1
  C  232  1  0.71031300  0.57953800  0.48032700  1
  C  237  1  0.62794200  0.47121700  0.41333200  1
  C  238  1  0.87765000  0.56415100  0.51486000  1
  C  241  1  0.33013600  0.93654800  0.51543200  1
  C  242  1  0.36324700  0.94774300  0.53781800  1
  C  244  1  0.40307300  0.93090900  0.48521600  1
  C  245  1  0.37107200  0.91772400  0.46092600  1
  C  246  1  0.33454300  0.92050000  0.47666800  1
  C  248  1  0.43945000  0.93245500  0.47156200  1
  C  249  1  0.50405800  0.95340200  0.48501600  1
  C  250  1  0.51052700  0.94381000  0.44782100  1
  C  251  1  0.48068500  0.92643200  0.42187400  1
  C  254  1  0.44447100  0.92084000  0.43340400  1
  C  255  1  0.41290800  0.90610500  0.40899300  1
  C  256  1  0.37648000  0.90455800  0.42264900  1
  C  261  1  0.29430300  0.94577900  0.53104000  1
  C  262  1  0.54368400  0.95438400  0.43791600  1
  C  265  1  0.99590600  0.58246400  0.06558500  1
  C  266  1  0.02897300  0.59370000  0.05446200  1
  C  268  1  0.06893600  0.55786200  0.07123300  1
  C  269  1  0.03698400  0.54671700  0.08435500  1
  C  270  1  0.00040500  0.55969300  0.08157600  1
  C  272  1  0.10536100  0.54264900  0.06967700  1
  C  273  1  0.16997000  0.53518600  0.04877000  1
  C  274  1  0.17654200  0.50753500  0.05829800  1
  C  275  1  0.14674900  0.49892200  0.07562300  1
  C  278  1  0.11048300  0.51605400  0.08122600  1
  C  279  1  0.07896500  0.50633700  0.09590500  1
  C  280  1  0.04248900  0.52155200  0.09746000  1
  C  285  1  0.96004300  0.58883300  0.05631400  1
  C  286  1  0.20976200  0.48706200  0.04771500  1
  C  289  1  0.05768900  0.68098900  0.52409400  1
  C  290  1  0.06793500  0.71509500  0.55548000  1
  C  292  1  0.07551100  0.74406300  0.51884300  1
  C  293  1  0.06533000  0.71078200  0.48607100  1
  C  294  1  0.05623900  0.67941600  0.48935600  1
  C  296  1  0.08457900  0.77623600  0.51731000  1
  C  297  1  0.10263900  0.84002400  0.54963200  1
  C  298  1  0.10228700  0.84162500  0.51654500  1
  C  299  1  0.09325600  0.80888500  0.48308200  1
  C  302  1  0.08391600  0.77572200  0.48292800  1
  C  303  1  0.07394700  0.74248300  0.45027100  1
  C  304  1  0.06463200  0.71032400  0.45184500  1
  C  309  1  0.04837400  0.65037300  0.52723900  1
  C  310  1  0.11157900  0.87399100  0.51688900  1
  C  313  1  0.72361800  0.84643300  0.32094600  1
  C  314  1  0.73368100  0.84371200  0.28681200  1
  C  316  1  0.74122700  0.77807700  0.25775900  1
  C  317  1  0.73123100  0.77858500  0.29106700  1
  C  318  1  0.72224200  0.81325300  0.32249000  1
  C  320  1  0.75019100  0.74435900  0.22553300  1
  C  321  1  0.76800800  0.71289000  0.16168000  1
  C  322  1  0.76774500  0.67818700  0.16004700  1
  C  323  1  0.75887400  0.67745800  0.19280200  1
  C  326  1  0.74961300  0.71047300  0.22601400  1
  C  327  1  0.73982200  0.71105500  0.25927700  1
  C  328  1  0.73060600  0.74480000  0.29149100  1
  C  333  1  0.71438100  0.88020800  0.35161200  1
  C  334  1  0.77704100  0.64616300  0.12765400  1
  C  337  1  0.39017800  0.47829900  0.15562200  1
  C  338  1  0.40026500  0.44686500  0.15834400  1
  C  340  1  0.40816900  0.48349300  0.22393400  1
  C  341  1  0.39814800  0.51631000  0.22341900  1
  C  342  1  0.38896300  0.51305500  0.18877500  1
  C  344  1  0.41734600  0.48500200  0.25763100  1
  C  345  1  0.43540000  0.45262600  0.28909500  1
  C  346  1  0.43534000  0.48573300  0.32376600  1
  C  347  1  0.42644000  0.51922900  0.32448100  1
  C  350  1  0.41696300  0.51940300  0.29148500  1
  C  351  1  0.40713700  0.55210200  0.29089600  1
  C  352  1  0.39770800  0.55055400  0.25717400  1
  C  357  1  0.38080400  0.47518400  0.12186300  1
  C  358  1  0.44481500  0.48538300  0.35577400  1
  C  361  1  0.55810900  0.32301100  0.47653800  1
  C  362  1  0.56843800  0.28889400  0.44520000  1
  C  364  1  0.57574500  0.25988400  0.48185300  1
  C  365  1  0.56549300  0.29317700  0.51457900  1
  C  366  1  0.55650100  0.32456800  0.51126100  1
  C  368  1  0.58468200  0.22767700  0.48341300  1
  C  369  1  0.60266400  0.16383400  0.45115000  1
  C  370  1  0.60211200  0.16221000  0.48422000  1
  C  371  1  0.59303000  0.19496400  0.51764900  1
  C  374  1  0.58382100  0.22816500  0.51777700  1
  C  375  1  0.57379800  0.26142300  0.55039300  1
  C  376  1  0.56460900  0.29361500  0.54879100  1
  C  381  1  0.54879100  0.35363400  0.47335400  1
  C  382  1  0.61131000  0.12981000  0.48389700  1
  C  385  1  0.22403800  0.15718300  0.67925700  1
  C  386  1  0.23432200  0.15994900  0.71338900  1
  C  388  1  0.24181100  0.22556900  0.74233200  1
  C  389  1  0.23159900  0.22501200  0.70902300  1
  C  390  1  0.22253300  0.19033000  0.67765600  1
  C  392  1  0.25084000  0.25930500  0.77450900  1
  C  393  1  0.26887900  0.29085200  0.83833700  1
  C  394  1  0.26845000  0.32552900  0.83991600  1
  C  395  1  0.25940200  0.32620500  0.80714500  1
  C  398  1  0.25010800  0.29316200  0.77397100  1
  C  399  1  0.24011300  0.29253100  0.74070100  1
  C  400  1  0.23083500  0.25876700  0.70853800  1
  C  405  1  0.21471200  0.12339800  0.64865100  1
  C  406  1  0.27770200  0.35758100  0.87229200  1
  C  409  1  0.89038200  0.52593500  0.84479200  1
  C  410  1  0.90086600  0.55727200  0.84210400  1
  C  412  1  0.90870800  0.52059000  0.77652200  1
  C  413  1  0.89830200  0.48786900  0.77700400  1
  C  414  1  0.88896200  0.49120000  0.81162500  1
  C  416  1  0.91801000  0.51901000  0.74284100  1
  C  417  1  0.93646900  0.55125000  0.71141400  1
  C  418  1  0.93611900  0.51816300  0.67672700  1
  C  419  1  0.92690300  0.48474000  0.67598200  1
  C  422  1  0.91735700  0.48463100  0.70897100  1
  C  423  1  0.90717300  0.45202200  0.70953000  1
  C  424  1  0.89762700  0.45364300  0.74323700  1
  C  429  1  0.88083900  0.52912000  0.87852600  1
  C  430  1  0.94552400  0.51848600  0.64472300  1
  C  433  1  0.98164700  0.98977670  0.26368970  1
  C  434  1  0.95149800  0.98593670  0.23931970  1
  C  435  1  0.91429400  0.97571570  0.24396570  1
  C  436  1  0.90733700  0.96769970  0.27267470  1
  C  437  1  0.93712800  0.97095770  0.29706270  1
  C  438  1  0.97371900  0.98249870  0.29275170  1
  C  441  1  0.01900700  0.00072000  0.25917500  1
  C  442  1  0.02418600  0.02930900  0.25062800  1
  C  443  1  0.06100300  0.03979700  0.24539300  1
  C  444  1  0.09345300  0.02224800  0.25002600  1
  C  445  1  0.08910900  0.99407167  0.25927567  1
  C  446  1  0.05193200  0.98317770  0.26307170  1
  C  457  1  0.64758600  0.43659500  0.12343500  1
  C  458  1  0.61747000  0.41612500  0.12729100  1
  C  459  1  0.58026600  0.43107400  0.13756100  1
  C  460  1  0.57327700  0.46782800  0.14562300  1
  C  461  1  0.60303600  0.48890000  0.14235200  1
  C  462  1  0.63962200  0.47296200  0.13075100  1
  C  465  1  0.68494700  0.42105600  0.11244500  1
  C  466  1  0.69012900  0.38391600  0.08384400  1
  C  467  1  0.72695200  0.36811800  0.07330700  1
  C  468  1  0.75940300  0.39023800  0.09081400  1
  C  469  1  0.75505100  0.42767000  0.11899300  1
  C  470  1  0.71787200  0.44242900  0.12994900  1
  C  481  1  0.31386400  0.84976400  0.67665400  1
  C  482  1  0.28366700  0.87404500  0.69713000  1
  C  483  1  0.24644100  0.86930200  0.68219100  1
  C  484  1  0.23950300  0.84059300  0.64544200  1
  C  485  1  0.26934300  0.81629500  0.62436200  1
  C  486  1  0.30596000  0.82069800  0.64029200  1
  C  489  1  0.35125000  0.85437800  0.69218600  1
  C  490  1  0.35650100  0.86291700  0.72932200  1
  C  491  1  0.39334400  0.86822900  0.74511300  1
  C  492  1  0.42574800  0.86367400  0.72298700  1
  C  493  1  0.42133300  0.85443300  0.68556100  1
  C  494  1  0.38412700  0.85057100  0.67081200  1
  C  505  1  0.48152300  0.86094600  0.11213400  1
  C  506  1  0.45146900  0.86478800  0.13652200  1
  C  507  1  0.41419800  0.87499500  0.13189100  1
  C  508  1  0.40706800  0.88299600  0.10317800  1
  C  509  1  0.43676100  0.87974200  0.07877400  1
  C  510  1  0.47342700  0.86821800  0.08307300  1
  C  513  1  0.51894900  0.85001500  0.11664100  1
  C  514  1  0.52428000  0.82143900  0.12520200  1
  C  515  1  0.56115700  0.81098200  0.13047400  1
  C  516  1  0.59351600  0.82854700  0.12585300  1
  C  517  1  0.58902000  0.85671300  0.11658900  1
  C  518  1  0.55178600  0.86757300  0.11275400  1
  C  529  1  0.14779800  0.41403000  0.25251500  1
  C  530  1  0.11763600  0.43453800  0.24865100  1
  C  531  1  0.08042100  0.41965600  0.23842900  1
  C  532  1  0.07346000  0.38293400  0.23043500  1
  C  533  1  0.10326500  0.36182900  0.23372100  1
  C  534  1  0.13987400  0.37769800  0.24526200  1
  C  537  1  0.18518100  0.42949400  0.26341900  1
  C  538  1  0.19042100  0.46663800  0.29198200  1
  C  539  1  0.22725800  0.48237400  0.30241600  1
  C  540  1  0.25967100  0.46019400  0.28483400  1
  C  541  1  0.25526400  0.42276100  0.25668100  1
  C  542  1  0.21806400  0.40805700  0.24584400  1
  C  553  1  0.81361800  0.00121600  0.69884300  1
  C  554  1  0.78356100  0.97681270  0.67824970  1
  C  555  1  0.74632500  0.98140270  0.69305670  1
  C  556  1  0.73923800  0.01009700  0.72977400  1
  C  557  1  0.76893500  0.03452300  0.75095500  1
  C  558  1  0.80556000  0.03026300  0.73516800  1
  C  561  1  0.85103400  0.99671567  0.68348567  1
  C  562  1  0.85635200  0.98818670  0.64637070  1
  C  563  1  0.89323100  0.98296070  0.63074970  1
  C  564  1  0.92559600  0.98757370  0.65301770  1
  C  565  1  0.92110600  0.99679167  0.69041867  1
  C  566  1  0.88387500  0.00059100  0.70500900  1
  C  577  1  0.16409600  0.94062870  0.26862670  1
  C  578  1  0.19715800  0.96302270  0.27982070  1
  C  580  1  0.23711000  0.91042670  0.24410570  1
  C  581  1  0.20516300  0.88612900  0.23299800  1
  C  582  1  0.16859500  0.90186170  0.24593470  1
  C  584  1  0.27351800  0.89677700  0.22892400  1
  C  585  1  0.33809200  0.91024370  0.22141770  1
  C  586  1  0.34465300  0.87304200  0.19385200  1
  C  587  1  0.31487100  0.84709000  0.18528800  1
  C  590  1  0.27862800  0.85861800  0.20239900  1
  C  591  1  0.24711600  0.83419900  0.19272100  1
  C  592  1  0.21065700  0.84785000  0.20790600  1
  C  597  1  0.12822800  0.95622170  0.27496570  1
  C  598  1  0.37782100  0.86314800  0.17336100  1
  C  601  1  0.82997100  0.49042600  0.17232900  1
  C  602  1  0.86305400  0.47916900  0.14996400  1
  C  604  1  0.90297400  0.49616900  0.20262900  1
  C  605  1  0.87099700  0.50940800  0.22689000  1
  C  606  1  0.83443200  0.50657900  0.21110600  1
  C  608  1  0.93939500  0.49468200  0.21633900  1
  C  609  1  0.00403300  0.47372100  0.20297800  1
  C  610  1  0.01058500  0.48344600  0.24021200  1
  C  611  1  0.98075400  0.50087000  0.26612000  1
  C  614  1  0.94448700  0.50640300  0.25452300  1
  C  615  1  0.91293900  0.52118500  0.27890200  1
  C  616  1  0.87646800  0.52267900  0.26519100  1
  C  621  1  0.79412300  0.48116800  0.15670500  1
  C  622  1  0.04379800  0.47290600  0.25018000  1
  C  625  1  0.49614000  0.84507900  0.62278500  1
  C  626  1  0.52927300  0.83388300  0.63397300  1
  C  628  1  0.56910200  0.86939200  0.61683500  1
  C  629  1  0.53706600  0.88051700  0.60367800  1
  C  630  1  0.50052400  0.86768100  0.60660800  1
  C  632  1  0.60551600  0.88444800  0.61819200  1
  C  633  1  0.67024400  0.89178600  0.63890700  1
  C  634  1  0.67670800  0.91930870  0.62920470  1
  C  635  1  0.64680800  0.92788770  0.61186070  1
  C  638  1  0.61054000  0.91087570  0.60643170  1
  C  639  1  0.57892800  0.92057770  0.59174270  1
  C  640  1  0.54246600  0.90550670  0.59036770  1
  C  645  1  0.46032300  0.83875500  0.63205900  1
  C  646  1  0.70989300  0.93977170  0.63973570  1
  C  649  1  0.66379600  0.91023770  0.10738570  1
  C  650  1  0.69688100  0.88781700  0.09620800  1
  C  652  1  0.73681000  0.94038970  0.13188670  1
  C  653  1  0.70483400  0.96471270  0.14297470  1
  C  654  1  0.66826500  0.94900470  0.13004670  1
  C  656  1  0.77323700  0.95401870  0.14704570  1
  C  657  1  0.83789500  0.94052070  0.15451170  1
  C  658  1  0.84443500  0.97772170  0.18208470  1
  C  659  1  0.81460800  0.00369300  0.19063300  1
  C  662  1  0.77833700  0.99218367  0.17353567  1
  C  663  1  0.74679000  0.01662600  0.18319800  1
  C  664  1  0.71031300  0.00299500  0.16803200  1
  C  669  1  0.62794200  0.89467400  0.10103700  1
  C  670  1  0.87765000  0.98760770  0.20256470  1
  C  673  1  0.33013600  0.36000500  0.20313700  1
  C  674  1  0.36324700  0.37120000  0.22552300  1
  C  676  1  0.40307300  0.35436600  0.17292100  1
  C  677  1  0.37107200  0.34118100  0.14863100  1
  C  678  1  0.33454300  0.34395700  0.16437300  1
  C  680  1  0.43945000  0.35591200  0.15926700  1
  C  681  1  0.50405800  0.37685900  0.17272100  1
  C  682  1  0.51052700  0.36726700  0.13552600  1
  C  683  1  0.48068500  0.34988900  0.10957900  1
  C  686  1  0.44447100  0.34429700  0.12110900  1
  C  687  1  0.41290800  0.32956200  0.09669800  1
  C  688  1  0.37648000  0.32801500  0.11035400  1
  C  693  1  0.29430300  0.36923600  0.21874500  1
  C  694  1  0.54368400  0.37784100  0.12562100  1
  C  697  1  0.99590600  0.00592100  0.75329000  1
  C  698  1  0.02897300  0.01715700  0.74216700  1
  C  700  1  0.06893600  0.98131870  0.75893770  1
  C  701  1  0.03698400  0.97017370  0.77205970  1
  C  702  1  0.00040500  0.98314970  0.76928070  1
  C  704  1  0.10536100  0.96610570  0.75738170  1
  C  705  1  0.16997000  0.95864270  0.73647470  1
  C  706  1  0.17654200  0.93099170  0.74600270  1
  C  707  1  0.14674900  0.92237870  0.76332770  1
  C  710  1  0.11048300  0.93951070  0.76893070  1
  C  711  1  0.07896500  0.92979370  0.78360970  1
  C  712  1  0.04248900  0.94500870  0.78516470  1
  C  717  1  0.96004300  0.01229000  0.74401900  1
  C  718  1  0.20976200  0.91051870  0.73541970  1
  C  721  1  0.05768900  0.10444600  0.21179900  1
  C  722  1  0.06793500  0.13855200  0.24318500  1
  C  724  1  0.07551100  0.16752000  0.20654840  1
  C  725  1  0.06533000  0.13423900  0.17377640  1
  C  726  1  0.05623900  0.10287300  0.17706140  1
  C  728  1  0.08457900  0.19969300  0.20501539  1
  C  729  1  0.10263900  0.26348100  0.23733700  1
  C  730  1  0.10228700  0.26508200  0.20425000  1
  C  731  1  0.09325600  0.23234200  0.17078700  1
  C  734  1  0.08391600  0.19917900  0.17063300  1
  C  735  1  0.07394700  0.16594000  0.13797600  1
  C  736  1  0.06463200  0.13378100  0.13955039  1
  C  741  1  0.04837400  0.07383000  0.21494400  1
  C  742  1  0.11157900  0.29744800  0.20459400  1
  C  745  1  0.72361800  0.26989000  0.00865100  1
  C  746  1  0.73368100  0.26716900  0.97451700  1
  C  748  1  0.74122700  0.20153400  0.94546400  1
  C  749  1  0.73123100  0.20204200  0.97877200  1
  C  750  1  0.72224200  0.23671000  0.01019500  1
  C  752  1  0.75019100  0.16781600  0.91323800  1
  C  753  1  0.76800800  0.13634700  0.84938500  1
  C  754  1  0.76774500  0.10164400  0.84775200  1
  C  755  1  0.75887400  0.10091500  0.88050700  1
  C  758  1  0.74961300  0.13393000  0.91371900  1
  C  759  1  0.73982200  0.13451200  0.94698200  1
  C  760  1  0.73060600  0.16825700  0.97919600  1
  C  765  1  0.71438100  0.30366500  0.03931700  1
  C  766  1  0.77704100  0.06962000  0.81535900  1
  C  769  1  0.39017800  0.90175570  0.84332670  1
  C  770  1  0.40026500  0.87032200  0.84604900  1
  C  772  1  0.40816900  0.90694970  0.91163909  1
  C  773  1  0.39814800  0.93976670  0.91112370  1
  C  774  1  0.38896300  0.93651170  0.87647970  1
  C  776  1  0.41734600  0.90845870  0.94533610  1
  C  777  1  0.43540000  0.87608300  0.97680000  1
  C  778  1  0.43534000  0.90918970  0.01147070  1
  C  779  1  0.42644000  0.94268570  0.01218610  1
  C  782  1  0.41696300  0.94285970  0.97919010  1
  C  783  1  0.40713700  0.97555870  0.97860109  1
  C  784  1  0.39770800  0.97401070  0.94487870  1
  C  789  1  0.38080400  0.89864100  0.80956800  1
  C  790  1  0.44481500  0.90883970  0.04347870  1
  C  793  1  0.55810900  0.74646800  0.16424300  1
  C  794  1  0.56843800  0.71235100  0.13290500  1
  C  796  1  0.57574500  0.68334100  0.16955800  1
  C  797  1  0.56549300  0.71663400  0.20228400  1
  C  798  1  0.55650100  0.74802500  0.19896600  1
  C  800  1  0.58468200  0.65113400  0.17111800  1
  C  801  1  0.60266400  0.58729100  0.13885500  1
  C  802  1  0.60211200  0.58566700  0.17192500  1
  C  803  1  0.59303000  0.61842100  0.20535400  1
  C  806  1  0.58382100  0.65162200  0.20548200  1
  C  807  1  0.57379800  0.68488000  0.23809800  1
  C  808  1  0.56460900  0.71707200  0.23649600  1
  C  813  1  0.54879100  0.77709100  0.16105900  1
  C  814  1  0.61131000  0.55326700  0.17160200  1
  C  817  1  0.22403800  0.58064000  0.36696200  1
  C  818  1  0.23432200  0.58340600  0.40109400  1
  C  820  1  0.24181100  0.64902600  0.43003700  1
  C  821  1  0.23159900  0.64846900  0.39672800  1
  C  822  1  0.22253300  0.61378700  0.36536100  1
  C  824  1  0.25084000  0.68276200  0.46221400  1
  C  825  1  0.26887900  0.71430900  0.52604200  1
  C  826  1  0.26845000  0.74898600  0.52762100  1
  C  827  1  0.25940200  0.74966200  0.49485000  1
  C  830  1  0.25010800  0.71661900  0.46167600  1
  C  831  1  0.24011300  0.71598800  0.42840600  1
  C  832  1  0.23083500  0.68222400  0.39624300  1
  C  837  1  0.21471200  0.54685500  0.33635600  1
  C  838  1  0.27770200  0.78103800  0.55999700  1
  C  841  1  0.89038200  0.94939170  0.53249670  1
  C  842  1  0.90086600  0.98072870  0.52980870  1
  C  844  1  0.90870800  0.94404670  0.46422670  1
  C  845  1  0.89830200  0.91132570  0.46470870  1
  C  846  1  0.88896200  0.91465670  0.49932970  1
  C  848  1  0.91801000  0.94246670  0.43054570  1
  C  849  1  0.93646900  0.97470670  0.39911870  1
  C  850  1  0.93611900  0.94161970  0.36443170  1
  C  851  1  0.92690300  0.90819670  0.36368670  1
  C  854  1  0.91735700  0.90808770  0.39667570  1
  C  855  1  0.90717300  0.87547900  0.39723500  1
  C  856  1  0.89762700  0.87710000  0.43094200  1
  C  861  1  0.88083900  0.95257670  0.56623070  1
  C  862  1  0.94552400  0.94194270  0.33242770  1
  N  21  1  0.12045000  0.55379700  0.57372500  1
  N  22  1  0.06601900  0.64363300  0.55036600  1
  N  23  1  0.93008500  0.54235800  0.63771000  1
  N  24  1  0.88577700  0.54799400  0.53344400  1
  N  45  1  0.78638800  0.02313700  0.44807100  1
  N  46  1  0.73195600  0.91004300  0.35828900  1
  N  47  1  0.59601000  0.09897200  0.45982800  1
  N  48  1  0.55178600  0.98911000  0.45412700  1
  N  69  1  0.45263000  0.42885900  0.97892400  1
  N  70  1  0.39842000  0.45206700  0.09201800  1
  N  71  1  0.26234800  0.36447700  0.90313500  1
  N  72  1  0.21788900  0.46859300  0.01299400  1
  N  93  1  0.62028700  0.45009300  0.42675900  1
  N  94  1  0.56629100  0.36025400  0.45012600  1
  N  95  1  0.42957200  0.46143200  0.36272200  1
  N  96  1  0.38577100  0.45580800  0.46702600  1
  N  117  1  0.28656200  0.98033900  0.55212200  1
  N  118  1  0.23232500  0.09354100  0.64197900  1
  N  119  1  0.09624700  0.90486800  0.54086500  1
  N  120  1  0.05190300  0.01471400  0.54639800  1
  N  141  1  0.95237700  0.57545000  0.02175000  1
  N  142  1  0.89840400  0.55217900  0.90844500  1
  N  143  1  0.76181900  0.63938600  0.09675800  1
  N  144  1  0.71789700  0.53507700  0.98677900  1
  N  147  1  0.23184500  0.52397500  0.57932300  1
  N  157  1  0.30323400  0.49722800  0.54969200  1
  N  171  1  0.89773800  0.05854800  0.47790200  1
  N  181  1  0.96915000  0.05575500  0.50476500  1
  N  195  1  0.56393700  0.42311200  0.94332900  1
  N  205  1  0.63534100  0.45249300  0.94586400  1
  N  219  1  0.73156900  0.47992800  0.42128700  1
  N  229  1  0.80299300  0.50663600  0.45088000  1
  N  243  1  0.39789700  0.94496600  0.52221800  1
  N  253  1  0.46921700  0.94787700  0.49546200  1
  N  267  1  0.06366800  0.58086300  0.05723700  1
  N  277  1  0.13508300  0.55116700  0.05430600  1
  N  291  1  0.07629200  0.74482300  0.55183400  1
  N  301  1  0.09393100  0.80801000  0.54886700  1
  N  315  1  0.74193900  0.81032200  0.25702900  1
  N  325  1  0.75938300  0.74414800  0.19374100  1
  N  339  1  0.40871200  0.45048700  0.19171400  1
  N  349  1  0.42656900  0.45340700  0.25785200  1
  N  363  1  0.57669500  0.25914200  0.44887800  1
  N  373  1  0.59408500  0.19588700  0.45189200  1
  N  387  1  0.24264900  0.19335200  0.74311800  1
  N  397  1  0.26021100  0.25956700  0.80631300  1
  N  411  1  0.90945900  0.55358000  0.80875300  1
  N  421  1  0.92755700  0.55052600  0.74264600  1
  N  453  1  0.12045000  0.97725370  0.26142970  1
  N  454  1  0.06601900  0.06709000  0.23807100  1
  N  455  1  0.93008500  0.96581470  0.32541470  1
  N  456  1  0.88577700  0.97145070  0.22114870  1
  N  477  1  0.78638800  0.44659400  0.13577600  1
  N  478  1  0.73195600  0.33350000  0.04599400  1
  N  479  1  0.59601000  0.52242900  0.14753300  1
  N  480  1  0.55178600  0.41256700  0.14183200  1
  N  501  1  0.45263000  0.85231600  0.66662900  1
  N  502  1  0.39842000  0.87552400  0.77972300  1
  N  503  1  0.26234800  0.78793400  0.59084000  1
  N  504  1  0.21788900  0.89205000  0.70069900  1
  N  525  1  0.62028700  0.87355000  0.11446400  1
  N  526  1  0.56629100  0.78371100  0.13783100  1
  N  527  1  0.42957200  0.88488900  0.05042700  1
  N  528  1  0.38577100  0.87926500  0.15473100  1
  N  549  1  0.28656200  0.40379600  0.23982700  1
  N  550  1  0.23232500  0.51699800  0.32968400  1
  N  551  1  0.09624700  0.32832500  0.22857000  1
  N  552  1  0.05190300  0.43817100  0.23410300  1
  N  573  1  0.95237700  0.99890667  0.70945467  1
  N  574  1  0.89840400  0.97563570  0.59614970  1
  N  575  1  0.76181900  0.06284300  0.78446300  1
  N  576  1  0.71789700  0.95853370  0.67448370  1
  N  579  1  0.23184500  0.94743170  0.26702770  1
  N  589  1  0.30323400  0.92068470  0.23739670  1
  N  603  1  0.89773800  0.48200500  0.16560700  1
  N  613  1  0.96915000  0.47921200  0.19247000  1
  N  627  1  0.56393700  0.84656900  0.63103400  1
  N  637  1  0.63534100  0.87595000  0.63356900  1
  N  651  1  0.73156900  0.90338470  0.10899170  1
  N  661  1  0.80299300  0.93009270  0.13858470  1
  N  675  1  0.39789700  0.36842300  0.20992300  1
  N  685  1  0.46921700  0.37133400  0.18316700  1
  N  699  1  0.06366800  0.00432000  0.74494200  1
  N  709  1  0.13508300  0.97462370  0.74201070  1
  N  723  1  0.07629200  0.16828000  0.23953940  1
  N  733  1  0.09393100  0.23146700  0.23657239  1
  N  747  1  0.74193900  0.23377900  0.94473400  1
  N  757  1  0.75938300  0.16760500  0.88144600  1
  N  771  1  0.40871200  0.87394400  0.87941939  1
  N  781  1  0.42656900  0.87686400  0.94555740  1
  N  795  1  0.57669500  0.68259900  0.13658300  1
  N  805  1  0.59408500  0.61934400  0.13959700  1
  N  819  1  0.24264900  0.61680900  0.43082300  1
  N  829  1  0.26021100  0.68302400  0.49401800  1
  N  843  1  0.90945900  0.97703670  0.49645770  1
  N  853  1  0.92755700  0.97398270  0.43035070  1
  O  8  1  0.87155200  0.53451700  0.58996400  1
  O  15  1  0.12916900  0.60952000  0.55837600  1
  O  32  1  0.53749500  0.05917800  0.46769600  1
  O  39  1  0.79512000  0.95203800  0.39232400  1
  O  56  1  0.20370200  0.41205400  0.94294300  1
  O  63  1  0.46149000  0.44422100  0.05001600  1
  O  80  1  0.37121800  0.46925200  0.41049300  1
  O  87  1  0.62928600  0.39439200  0.44213500  1
  O  104  1  0.03767000  0.94473500  0.53298900  1
  O  111  1  0.29540700  0.05142800  0.60780700  1
  O  128  1  0.70342700  0.59157900  0.05674200  1
  O  135  1  0.96136800  0.56016900  0.95073600  1
  O  163  1  0.25088000  0.37421700  0.47975000  1
  O  164  1  0.18080900  0.40045800  0.50890000  1
  O  187  1  0.91668500  0.10907200  0.62774600  1
  O  188  1  0.84659400  0.11190300  0.60138700  1
  O  211  1  0.58260900  0.52230100  0.89266700  1
  O  212  1  0.51253500  0.49336500  0.89006100  1
  O  235  1  0.75054500  0.62970200  0.52072700  1
  O  236  1  0.68044300  0.60349800  0.49160700  1
  O  259  1  0.41658800  0.89486500  0.37247000  1
  O  260  1  0.34658300  0.89192800  0.39872300  1
  O  283  1  0.08274300  0.48100500  0.10708400  1
  O  284  1  0.01264100  0.51021600  0.11003200  1
  O  307  1  0.07294600  0.74092900  0.41698100  1
  O  308  1  0.05504300  0.67910500  0.41999800  1
  O  331  1  0.73890700  0.67930600  0.26080500  1
  O  332  1  0.72119400  0.74417300  0.32273300  1
  O  355  1  0.40640200  0.58541100  0.32261700  1
  O  356  1  0.38827900  0.58244200  0.25779500  1
  O  379  1  0.57261100  0.26295500  0.58366400  1
  O  380  1  0.55494600  0.32484700  0.58059500  1
  O  403  1  0.23904600  0.32425300  0.73912400  1
  O  404  1  0.22121500  0.25934900  0.67728900  1
  O  427  1  0.90617500  0.41873600  0.67779200  1
  O  428  1  0.88782700  0.42184200  0.74258400  1
  O  440  1  0.87155200  0.95797370  0.27766870  1
  O  447  1  0.12916900  0.03297700  0.24608100  1
  O  464  1  0.53749500  0.48263500  0.15540100  1
  O  471  1  0.79512000  0.37549500  0.08002900  1
  O  488  1  0.20370200  0.83551100  0.63064800  1
  O  495  1  0.46149000  0.86767800  0.73772100  1
  O  512  1  0.37121800  0.89270900  0.09819800  1
  O  519  1  0.62928600  0.81784900  0.12984000  1
  O  536  1  0.03767000  0.36819200  0.22069400  1
  O  543  1  0.29540700  0.47488500  0.29551200  1
  O  560  1  0.70342700  0.01503600  0.74444700  1
  O  567  1  0.96136800  0.98362570  0.63844070  1
  O  595  1  0.25088000  0.79767400  0.16745500  1
  O  596  1  0.18080900  0.82391500  0.19660500  1
  O  619  1  0.91668500  0.53252900  0.31545100  1
  O  620  1  0.84659400  0.53536000  0.28909200  1
  O  643  1  0.58260900  0.94575770  0.58037170  1
  O  644  1  0.51253500  0.91682170  0.57776570  1
  O  667  1  0.75054500  0.05315900  0.20843200  1
  O  668  1  0.68044300  0.02695500  0.17931200  1
  O  691  1  0.41658800  0.31832200  0.06017500  1
  O  692  1  0.34658300  0.31538500  0.08642800  1
  O  715  1  0.08274300  0.90446170  0.79478870  1
  O  716  1  0.01264100  0.93367270  0.79773670  1
  O  739  1  0.07294600  0.16438600  0.10468600  1
  O  740  1  0.05504300  0.10256200  0.10770339  1
  O  763  1  0.73890700  0.10276300  0.94851000  1
  O  764  1  0.72119400  0.16763000  0.01043800  1
  O  787  1  0.40640200  0.00886800  0.01032239  1
  O  788  1  0.38827900  0.00589900  0.94550000  1
  O  811  1  0.57261100  0.68641200  0.27136900  1
  O  812  1  0.55494600  0.74830400  0.26830000  1
  O  835  1  0.23904600  0.74771000  0.42682900  1
  O  836  1  0.22121500  0.68280600  0.36499400  1
  O  859  1  0.90617500  0.84219300  0.36549700  1
  O  860  1  0.88782700  0.84529900  0.43028900  1
