# generated using pymatgen
data_H19(C16N3)2
_symmetry_space_group_name_H-M   'P 1'
_cell_length_a   25.72200000
_cell_length_b   25.72200000
_cell_length_c   102.88800000
_cell_angle_alpha   90.00000000
_cell_angle_beta   90.00000000
_cell_angle_gamma   90.00000000
_symmetry_Int_Tables_number   1
_chemical_formula_structural   H19(C16N3)2
_chemical_formula_sum   'H304 C512 N96'
_cell_volume   68072.89066819
_cell_formula_units_Z   16
loop_
 _symmetry_equiv_pos_site_id
 _symmetry_equiv_pos_as_xyz
  1  'x, y, z'
loop_
 _atom_site_type_symbol
 _atom_site_label
 _atom_site_symmetry_multiplicity
 _atom_site_fract_x
 _atom_site_fract_y
 _atom_site_fract_z
 _atom_site_occupancy
  H  49  1  0.92115600  0.04286400  0.20914800  1
  H  50  1  0.92104300  0.03996300  0.18582100  1
  H  51  1  0.07419400  0.98416800  0.20956900  1
  H  52  1  0.07461900  0.98222800  0.18625400  1
  H  53  1  0.99034600  0.90599400  0.17903200  1
  H  54  1  0.99087100  0.83636100  0.16168900  1
  H  55  1  0.00221900  0.97735300  0.14369200  1
  H  56  1  0.00174500  0.04133800  0.12745100  1
  H  57  1  0.00582300  0.11555300  0.17924900  1
  H  58  1  0.00647600  0.18480500  0.16170300  1
  H  59  1  0.92128400  0.21128900  0.13266200  1
  H  60  1  0.92262600  0.30434800  0.13250500  1
  H  61  1  0.08386600  0.20896300  0.13817500  1
  H  62  1  0.08519000  0.30225400  0.13813100  1
  H  63  1  0.99908100  0.18263100  0.10937900  1
  H  64  1  0.99760400  0.11289200  0.09202500  1
  H  65  1  0.00086600  0.83383400  0.10936800  1
  H  66  1  0.00244000  0.90326100  0.09183000  1
  H  67  1  0.08113500  0.02515800  0.08567800  1
  H  68  1  0.08361600  0.02437400  0.06247700  1
  H  69  1  0.92070100  0.99118200  0.08472700  1
  H  70  1  0.92314700  0.99024100  0.06140400  1
  H  71  1  0.91623800  0.80842400  0.13870700  1
  H  72  1  0.91661900  0.71508800  0.13899500  1
  H  73  1  0.07897600  0.71583400  0.13298400  1
  H  74  1  0.07855700  0.80871900  0.13273800  1
  H  127  1  0.97761300  0.92126900  0.70917600  1
  H  128  1  0.98040900  0.92113700  0.68585100  1
  H  129  1  0.03626800  0.07432300  0.70957600  1
  H  130  1  0.03809800  0.07473200  0.68625700  1
  H  131  1  0.11437700  0.99075000  0.67902700  1
  H  132  1  0.18392100  0.99103000  0.66166300  1
  H  133  1  0.04282900  0.00178300  0.64369400  1
  H  134  1  0.97876800  0.00041100  0.62747400  1
  H  135  1  0.90481200  0.00605600  0.67928900  1
  H  136  1  0.83547100  0.00644500  0.66176400  1
  H  137  1  0.80870000  0.92082600  0.63275900  1
  H  138  1  0.71565500  0.92233400  0.63259700  1
  H  139  1  0.81132000  0.08343500  0.63821000  1
  H  140  1  0.71803100  0.08492700  0.63816400  1
  H  141  1  0.83737600  0.99780600  0.60944800  1
  H  142  1  0.90701600  0.99534500  0.59208000  1
  H  143  1  0.18617500  0.99907400  0.60932500  1
  H  144  1  0.11664700  0.99964900  0.59180500  1
  H  145  1  0.99502300  0.07759800  0.58528300  1
  H  146  1  0.99559000  0.07811400  0.56206800  1
  H  147  1  0.02840100  0.91699200  0.58515600  1
  H  148  1  0.02912300  0.91746700  0.56182700  1
  H  149  1  0.21186700  0.91586500  0.63878900  1
  H  150  1  0.30520400  0.91642100  0.63906300  1
  H  151  1  0.30414000  0.07862600  0.63279400  1
  H  152  1  0.21125800  0.07802700  0.63256400  1
  H  205  1  0.10109500  0.01828700  0.81130900  1
  H  206  1  0.10180600  0.01939500  0.83464000  1
  H  207  1  0.93852200  0.99612300  0.81176400  1
  H  208  1  0.93924200  0.99760800  0.83499900  1
  H  209  1  0.01968600  0.90457100  0.84174600  1
  H  210  1  0.01968800  0.83513200  0.85917000  1
  H  211  1  0.02261800  0.97670400  0.87710600  1
  H  212  1  0.01940000  0.04086800  0.89322200  1
  H  213  1  0.02085600  0.11412700  0.84130100  1
  H  214  1  0.02008000  0.18391800  0.85877800  1
  H  215  1  0.09864600  0.21070400  0.88865000  1
  H  216  1  0.09731200  0.30378400  0.88878400  1
  H  217  1  0.93705300  0.20845300  0.88154300  1
  H  218  1  0.93575100  0.30173000  0.88157600  1
  H  219  1  0.01739500  0.18244800  0.91115600  1
  H  220  1  0.01815600  0.11300000  0.92858400  1
  H  221  1  0.02230500  0.83363200  0.91154700  1
  H  222  1  0.02031500  0.90335800  0.92901300  1
  H  223  1  0.93809100  0.02235800  0.93540900  1
  H  224  1  0.93765500  0.02273200  0.95867800  1
  H  225  1  0.09984500  0.99498400  0.93560000  1
  H  226  1  0.09936700  0.99490600  0.95892100  1
  H  227  1  0.10239400  0.80800400  0.88121800  1
  H  228  1  0.10218100  0.71467900  0.88087400  1
  H  229  1  0.94108400  0.71500200  0.88874500  1
  H  230  1  0.94134900  0.80786000  0.88905900  1
  H  283  1  0.01832400  0.91923900  0.31124800  1
  H  284  1  0.01966400  0.91837600  0.33457600  1
  H  285  1  0.99641100  0.08184100  0.31178000  1
  H  286  1  0.99812100  0.08097000  0.33501600  1
  H  287  1  0.90503800  0.00066400  0.34181600  1
  H  288  1  0.83584800  0.00041500  0.35930000  1
  H  289  1  0.97766400  0.99704000  0.37710900  1
  H  290  1  0.04205000  0.99966100  0.39316600  1
  H  291  1  0.11458300  0.99916700  0.34118300  1
  H  292  1  0.18462200  0.99967600  0.35859800  1
  H  293  1  0.21196200  0.92122200  0.38859700  1
  H  294  1  0.30502300  0.92278900  0.38874900  1
  H  295  1  0.20933600  0.08263700  0.38124700  1
  H  296  1  0.30261000  0.08416900  0.38129400  1
  H  297  1  0.18386800  0.00269300  0.41097700  1
  H  298  1  0.11468100  0.00190400  0.42846400  1
  H  299  1  0.83507400  0.99713000  0.41167600  1
  H  300  1  0.90505700  0.99908500  0.42908600  1
  H  301  1  0.02383300  0.08232200  0.43508900  1
  H  302  1  0.02445300  0.08397200  0.45840700  1
  H  303  1  0.99693200  0.92051500  0.43586100  1
  H  304  1  0.99712200  0.92219400  0.45912400  1
  H  305  1  0.80887900  0.91739700  0.38131600  1
  H  306  1  0.71555800  0.91784000  0.38098100  1
  H  307  1  0.71628500  0.07887600  0.38892900  1
  H  308  1  0.80913900  0.07838200  0.38923100  1
  H  323  1  0.90089700  0.87979500  0.27755500  1
  H  324  1  0.90448900  0.86158100  0.25413400  1
  H  325  1  0.05789200  0.06440200  0.24597800  1
  H  326  1  0.05463400  0.08230600  0.26867700  1
  H  328  1  0.03161900  0.95328400  0.23085500  1
  H  330  1  0.00421300  0.06929900  0.28938000  1
  H  341  1  0.14069100  0.90099000  0.77757400  1
  H  342  1  0.15893300  0.90459000  0.75415400  1
  H  343  1  0.95616100  0.05804800  0.74598900  1
  H  344  1  0.93823100  0.05478300  0.76868600  1
  H  346  1  0.06725100  0.03174100  0.73086500  1
  H  348  1  0.95116900  0.00439200  0.78938300  1
  H  359  1  0.17594100  0.00576800  0.99050300  1
  H  360  1  0.19404800  0.00720300  0.01396000  1
  H  361  1  0.94204500  0.01564800  0.02576500  1
  H  362  1  0.92428600  0.01316100  0.00323500  1
  H  364  1  0.06939000  0.03047000  0.04031700  1
  H  366  1  0.95147600  0.01377900  0.98116300  1
  H  377  1  0.01267000  0.16361800  0.48949700  1
  H  378  1  0.01153700  0.18399100  0.51284200  1
  H  379  1  0.00366900  0.93318900  0.52617400  1
  H  380  1  0.00591200  0.91325600  0.50375600  1
  H  382  1  0.98892300  0.06187900  0.53997600  1
  H  384  1  0.00358700  0.93842500  0.48153300  1
  H  395  1  0.16392100  0.42622600  0.13598000  1
  H  396  1  0.18415200  0.51963600  0.13567400  1
  H  397  1  0.93325100  0.57257200  0.13366700  1
  H  398  1  0.91343900  0.48289000  0.13424900  1
  H  400  1  0.06169700  0.62795600  0.12989500  1
  H  402  1  0.93864300  0.39404000  0.13407500  1
  H  413  1  0.59394200  0.16380100  0.63598800  1
  H  414  1  0.50053600  0.18405600  0.63566300  1
  H  415  1  0.44755000  0.93315700  0.63366900  1
  H  416  1  0.53722000  0.91333400  0.63426700  1
  H  418  1  0.39216200  0.06167800  0.62994300  1
  H  420  1  0.62605100  0.93850300  0.63410000  1
  H  431  1  0.85635900  0.42532000  0.88458500  1
  H  432  1  0.83595300  0.51869200  0.88491200  1
  H  433  1  0.08672300  0.57209700  0.88711600  1
  H  434  1  0.10673100  0.48244300  0.88649800  1
  H  436  1  0.95832600  0.62700000  0.89104100  1
  H  438  1  0.08160100  0.39352700  0.88689400  1
  H  449  1  0.42628100  0.16392400  0.38460900  1
  H  450  1  0.51964000  0.18438800  0.38494100  1
  H  451  1  0.57318200  0.93362800  0.38709300  1
  H  452  1  0.48355400  0.91358700  0.38647100  1
  H  454  1  0.62811100  0.06225500  0.39087600  1
  H  456  1  0.39466200  0.93870500  0.38701200  1
  H  505  1  0.23217400  0.35388200  0.24802500  1
  H  506  1  0.23206100  0.35098100  0.22469800  1
  H  507  1  0.38521200  0.29518600  0.24844600  1
  H  508  1  0.38563700  0.29324600  0.22513100  1
  H  509  1  0.30136400  0.21701200  0.21790900  1
  H  510  1  0.30188900  0.14737900  0.20056600  1
  H  511  1  0.31323700  0.28837100  0.18256900  1
  H  512  1  0.31276300  0.35235600  0.16632800  1
  H  513  1  0.31684100  0.42657100  0.21812600  1
  H  514  1  0.31749400  0.49582300  0.20058000  1
  H  515  1  0.23230200  0.52230700  0.17153900  1
  H  516  1  0.23364400  0.61536600  0.17138200  1
  H  517  1  0.39488400  0.51998100  0.17705200  1
  H  518  1  0.39620800  0.61327200  0.17700800  1
  H  519  1  0.31009900  0.49364900  0.14825600  1
  H  520  1  0.30862200  0.42391000  0.13090200  1
  H  521  1  0.31188400  0.14485200  0.14824500  1
  H  522  1  0.31345800  0.21427900  0.13070700  1
  H  523  1  0.39215300  0.33617600  0.12455500  1
  H  524  1  0.39463400  0.33539200  0.10135400  1
  H  525  1  0.23171900  0.30220000  0.12360400  1
  H  526  1  0.23416500  0.30125900  0.10028100  1
  H  527  1  0.22725600  0.11944200  0.17758400  1
  H  528  1  0.22763700  0.02610580  0.17787200  1
  H  529  1  0.38999400  0.02685180  0.17186100  1
  H  530  1  0.38957500  0.11973700  0.17161500  1
  H  583  1  0.28863100  0.23228700  0.74805300  1
  H  584  1  0.29142700  0.23215500  0.72472800  1
  H  585  1  0.34728600  0.38534100  0.74845300  1
  H  586  1  0.34911600  0.38575000  0.72513400  1
  H  587  1  0.42539500  0.30176800  0.71790400  1
  H  588  1  0.49493900  0.30204800  0.70054000  1
  H  589  1  0.35384700  0.31280100  0.68257100  1
  H  590  1  0.28978600  0.31142900  0.66635100  1
  H  591  1  0.21583000  0.31707400  0.71816600  1
  H  592  1  0.14648900  0.31746300  0.70064100  1
  H  593  1  0.11971800  0.23184400  0.67163600  1
  H  594  1  0.02667280  0.23335200  0.67147400  1
  H  595  1  0.12233800  0.39445300  0.67708700  1
  H  596  1  0.02904880  0.39594500  0.67704100  1
  H  597  1  0.14839400  0.30882400  0.64832500  1
  H  598  1  0.21803400  0.30636300  0.63095700  1
  H  599  1  0.49719300  0.31009200  0.64820200  1
  H  600  1  0.42766500  0.31066700  0.63068200  1
  H  601  1  0.30604100  0.38861600  0.62416000  1
  H  602  1  0.30660800  0.38913200  0.60094500  1
  H  603  1  0.33941900  0.22801000  0.62403300  1
  H  604  1  0.34014100  0.22848500  0.60070400  1
  H  605  1  0.52288500  0.22688300  0.67766600  1
  H  606  1  0.61622200  0.22743900  0.67794000  1
  H  607  1  0.61515800  0.38964400  0.67167100  1
  H  608  1  0.52227600  0.38904500  0.67144100  1
  H  661  1  0.41211300  0.32930500  0.85018600  1
  H  662  1  0.41282400  0.33041300  0.87351700  1
  H  663  1  0.24954000  0.30714100  0.85064100  1
  H  664  1  0.25026000  0.30862600  0.87387600  1
  H  665  1  0.33070400  0.21558900  0.88062300  1
  H  666  1  0.33070600  0.14615000  0.89804700  1
  H  667  1  0.33363600  0.28772200  0.91598300  1
  H  668  1  0.33041800  0.35188600  0.93209900  1
  H  669  1  0.33187400  0.42514500  0.88017800  1
  H  670  1  0.33109800  0.49493600  0.89765500  1
  H  671  1  0.40966400  0.52172200  0.92752700  1
  H  672  1  0.40833000  0.61480200  0.92766100  1
  H  673  1  0.24807100  0.51947100  0.92042000  1
  H  674  1  0.24676900  0.61274800  0.92045300  1
  H  675  1  0.32841300  0.49346600  0.95003300  1
  H  676  1  0.32917400  0.42401800  0.96746100  1
  H  677  1  0.33333333  0.14465000  0.95042400  1
  H  678  1  0.33133300  0.21437600  0.96789000  1
  H  679  1  0.24910900  0.33337600  0.97428600  1
  H  680  1  0.24867300  0.33375000  0.99755500  1
  H  681  1  0.41086300  0.30600200  0.97447700  1
  H  682  1  0.41038500  0.30592400  0.99779800  1
  H  683  1  0.41341200  0.11902200  0.92009500  1
  H  684  1  0.41319900  0.02569680  0.91975100  1
  H  685  1  0.25210200  0.02601980  0.92762200  1
  H  686  1  0.25236700  0.11887800  0.92793600  1
  H  739  1  0.32934200  0.23025700  0.35012500  1
  H  740  1  0.33068200  0.22939400  0.37345300  1
  H  741  1  0.30742900  0.39285900  0.35065700  1
  H  742  1  0.30913900  0.39198800  0.37389300  1
  H  743  1  0.21605600  0.31168200  0.38069300  1
  H  744  1  0.14686600  0.31143300  0.39817700  1
  H  745  1  0.28868200  0.30805800  0.41598600  1
  H  746  1  0.35306800  0.31067900  0.43204300  1
  H  747  1  0.42560100  0.31018500  0.38006000  1
  H  748  1  0.49564000  0.31069400  0.39747500  1
  H  749  1  0.52298000  0.23224000  0.42747400  1
  H  750  1  0.61604100  0.23380700  0.42762600  1
  H  751  1  0.52035400  0.39365500  0.42012400  1
  H  752  1  0.61362800  0.39518700  0.42017100  1
  H  753  1  0.49488600  0.31371100  0.44985400  1
  H  754  1  0.42569900  0.31292200  0.46734100  1
  H  755  1  0.14609200  0.30814800  0.45055300  1
  H  756  1  0.21607500  0.31010300  0.46796300  1
  H  757  1  0.33485100  0.39334000  0.47396600  1
  H  758  1  0.33547100  0.39499000  0.49728400  1
  H  759  1  0.30795000  0.23153300  0.47473800  1
  H  760  1  0.30814000  0.23321200  0.49800100  1
  H  761  1  0.11989700  0.22841500  0.42019300  1
  H  762  1  0.02657580  0.22885800  0.41985800  1
  H  763  1  0.02730280  0.38989400  0.42780600  1
  H  764  1  0.12015700  0.38940000  0.42810800  1
  H  779  1  0.21191500  0.19081300  0.31643200  1
  H  780  1  0.21550700  0.17259900  0.29301100  1
  H  781  1  0.36891000  0.37542000  0.28485500  1
  H  782  1  0.36565200  0.39332400  0.30755400  1
  H  784  1  0.34263700  0.26430200  0.26973200  1
  H  786  1  0.31523100  0.38031700  0.32825700  1
  H  797  1  0.45170900  0.21200800  0.81645100  1
  H  798  1  0.46995100  0.21560800  0.79303100  1
  H  799  1  0.26717900  0.36906600  0.78486600  1
  H  800  1  0.24924900  0.36580100  0.80756300  1
  H  802  1  0.37826900  0.34275900  0.76974200  1
  H  804  1  0.26218700  0.31541000  0.82826000  1
  H  815  1  0.48695900  0.31678600  0.02938020  1
  H  816  1  0.50506600  0.31822100  0.05283720  1
  H  817  1  0.25306300  0.32666600  0.06464220  1
  H  818  1  0.23530400  0.32417900  0.04211220  1
  H  820  1  0.38040800  0.34148800  0.07919420  1
  H  822  1  0.26249400  0.32479700  0.02004020  1
  H  833  1  0.32368800  0.47463600  0.52837400  1
  H  834  1  0.32255500  0.49500900  0.55171900  1
  H  835  1  0.31468700  0.24420700  0.56505100  1
  H  836  1  0.31693000  0.22427400  0.54263300  1
  H  838  1  0.29994100  0.37289700  0.57885300  1
  H  840  1  0.31460500  0.24944300  0.52041000  1
  H  851  1  0.47493900  0.73724400  0.17485700  1
  H  852  1  0.49517000  0.83065400  0.17455100  1
  H  853  1  0.24426900  0.88359000  0.17254400  1
  H  854  1  0.22445700  0.79390800  0.17312600  1
  H  856  1  0.37271500  0.93897400  0.16877200  1
  H  858  1  0.24966100  0.70505800  0.17295200  1
  H  869  1  0.90496000  0.47481900  0.67486500  1
  H  870  1  0.81155400  0.49507400  0.67454000  1
  H  871  1  0.75856800  0.24417500  0.67254600  1
  H  872  1  0.84823800  0.22435200  0.67314400  1
  H  874  1  0.70318000  0.37269600  0.66882000  1
  H  876  1  0.93706900  0.24952100  0.67297700  1
  H  887  1  0.16737700  0.73633800  0.92346200  1
  H  888  1  0.14697100  0.82971000  0.92378900  1
  H  889  1  0.39774100  0.88311500  0.92599300  1
  H  890  1  0.41774900  0.79346100  0.92537500  1
  H  892  1  0.26934400  0.93801800  0.92991800  1
  H  894  1  0.39261900  0.70454500  0.92577100  1
  H  905  1  0.73729900  0.47494200  0.42348600  1
  H  906  1  0.83065800  0.49540600  0.42381800  1
  H  907  1  0.88420000  0.24464600  0.42597000  1
  H  908  1  0.79457200  0.22460500  0.42534800  1
  H  910  1  0.93912900  0.37327300  0.42975300  1
  H  912  1  0.70568000  0.24972300  0.42588900  1
  C  1  1  0.99285700  0.91335300  0.16929300  1
  C  2  1  0.99305500  0.87532400  0.15982200  1
  C  3  1  0.99627800  0.89949000  0.14768300  1
  C  5  1  0.99676400  0.96181000  0.16322500  1
  C  6  1  0.99838200  0.01050600  0.16984400  1
  C  7  1  0.00050000  0.05954400  0.16345700  1
  C  9  1  0.00196600  0.12088100  0.14790900  1
  C  10  1  0.00435700  0.14574500  0.15996300  1
  C  11  1  0.00390200  0.10804700  0.16950800  1
  C  12  1  0.00154600  0.14582300  0.13557300  1
  C  13  1  0.00008800  0.11936900  0.12341100  1
  C  15  1  0.99937300  0.05705600  0.10789700  1
  C  16  1  0.99835800  0.10557000  0.10178600  1
  C  17  1  0.99909700  0.14361200  0.11125500  1
  C  18  1  0.99964900  0.00829900  0.10131900  1
  C  19  1  0.99972300  0.95919700  0.10766900  1
  C  21  1  0.99899200  0.89781000  0.12318800  1
  C  22  1  0.00043400  0.87294100  0.11112200  1
  C  23  1  0.00118500  0.91068300  0.10158300  1
  C  24  1  0.99745600  0.87293300  0.13552600  1
  C  25  1  0.99735900  0.81732300  0.13567500  1
  C  26  1  0.04416100  0.78935100  0.13401900  1
  C  27  1  0.04427300  0.73460400  0.13411000  1
  C  28  1  0.99762000  0.70619200  0.13589000  1
  C  29  1  0.95101000  0.73438200  0.13763800  1
  C  30  1  0.95071400  0.78917600  0.13746500  1
  C  31  1  0.00064800  0.00850100  0.08740600  1
  C  32  1  0.04751800  0.01804800  0.08065500  1
  C  33  1  0.04885500  0.01765100  0.06696800  1
  C  34  1  0.00340100  0.00758400  0.05960200  1
  C  35  1  0.95670100  0.99784900  0.06640800  1
  C  36  1  0.95519300  0.99842400  0.08010500  1
  C  37  1  0.00244000  0.20140700  0.13542700  1
  C  38  1  0.95604100  0.23012300  0.13381700  1
  C  39  1  0.95688400  0.28489600  0.13375400  1
  C  40  1  0.00412000  0.31241700  0.13537300  1
  C  41  1  0.05037200  0.28352000  0.13696200  1
  C  42  1  0.04967200  0.22876100  0.13698100  1
  C  43  1  0.99766600  0.01037400  0.18379200  1
  C  44  1  0.95340500  0.02764600  0.19072600  1
  C  45  1  0.04172800  0.99429600  0.19097300  1
  C  46  1  0.04139300  0.99517400  0.20467100  1
  C  47  1  0.99713800  0.01258000  0.21158800  1
  C  48  1  0.95347900  0.02940500  0.20441900  1
  C  79  1  0.10696700  0.99308300  0.66928700  1
  C  80  1  0.14495200  0.99319900  0.65980600  1
  C  81  1  0.12071900  0.99608800  0.64767100  1
  C  83  1  0.05847400  0.99678400  0.66322900  1
  C  84  1  0.00980400  0.99842800  0.66986100  1
  C  85  1  0.96073700  0.00045400  0.66348500  1
  C  87  1  0.89932300  0.00167500  0.64795400  1
  C  88  1  0.87451900  0.00428700  0.66001300  1
  C  89  1  0.91226500  0.00397600  0.66954800  1
  C  90  1  0.87431700  0.00098600  0.63562700  1
  C  91  1  0.90070700  0.99908500  0.62346000  1
  C  93  1  0.96294100  0.99753400  0.60792900  1
  C  94  1  0.91439500  0.99650400  0.60183600  1
  C  95  1  0.87640400  0.99777900  0.61131400  1
  C  96  1  0.01167100  0.99729700  0.60133700  1
  C  97  1  0.06080400  0.99771700  0.60767100  1
  C  99  1  0.12227000  0.99781800  0.62316900  1
  C  100  1  0.14707800  0.99870000  0.61109100  1
  C  101  1  0.10928600  0.99887500  0.60156400  1
  C  102  1  0.14721200  0.99688900  0.63550200  1
  C  103  1  0.20281700  0.99688900  0.63563300  1
  C  104  1  0.23069300  0.04370200  0.63389600  1
  C  105  1  0.28544300  0.04392100  0.63398600  1
  C  106  1  0.31394000  0.99736700  0.63583800  1
  C  107  1  0.28584100  0.95074200  0.63765300  1
  C  108  1  0.23105300  0.95034100  0.63748900  1
  C  109  1  0.01140500  0.99721500  0.58742300  1
  C  110  1  0.00197000  0.04354500  0.58043300  1
  C  111  1  0.00222300  0.04372100  0.56674100  1
  C  112  1  0.01205400  0.99761200  0.55961300  1
  C  113  1  0.02169800  0.95146500  0.56665700  1
  C  114  1  0.02125200  0.95111900  0.58035900  1
  C  115  1  0.81873000  0.00197800  0.63549500  1
  C  116  1  0.78993000  0.95562100  0.63390400  1
  C  117  1  0.73516000  0.95656500  0.63383600  1
  C  118  1  0.70772000  0.00385900  0.63543800  1
  C  119  1  0.73670300  0.05006700  0.63701200  1
  C  120  1  0.79146200  0.04926800  0.63703200  1
  C  121  1  0.00998600  0.99776400  0.68380900  1
  C  122  1  0.99276800  0.95349800  0.69074900  1
  C  123  1  0.02606900  0.04183900  0.69098200  1
  C  124  1  0.02525800  0.04151300  0.70468000  1
  C  125  1  0.00793800  0.99724300  0.71160500  1
  C  126  1  0.99106100  0.95358700  0.70444300  1
  C  157  1  0.02021700  0.91205500  0.85150100  1
  C  158  1  0.02032000  0.87417300  0.86101000  1
  C  159  1  0.02134800  0.89859200  0.87314500  1
  C  161  1  0.02077700  0.96066300  0.85756600  1
  C  162  1  0.02085900  0.00929800  0.85093100  1
  C  163  1  0.02062000  0.05851900  0.85721900  1
  C  165  1  0.01943800  0.12018600  0.87267000  1
  C  166  1  0.02004100  0.14483800  0.86057000  1
  C  167  1  0.02054200  0.10692300  0.85106900  1
  C  168  1  0.01875400  0.14527500  0.88498800  1
  C  169  1  0.01863600  0.11898400  0.89718200  1
  C  171  1  0.01873200  0.05690100  0.91276500  1
  C  172  1  0.01824700  0.10551700  0.91882900  1
  C  173  1  0.01790000  0.14340200  0.90931900  1
  C  174  1  0.01922200  0.00824100  0.91939200  1
  C  175  1  0.02011900  0.95902200  0.91310100  1
  C  177  1  0.02128700  0.89735900  0.89765100  1
  C  178  1  0.02159800  0.87270300  0.90974900  1
  C  179  1  0.02056500  0.91060500  0.91924700  1
  C  180  1  0.02176700  0.87226400  0.88533500  1
  C  181  1  0.02192200  0.81667000  0.88522500  1
  C  182  1  0.97552200  0.78858500  0.88738300  1
  C  183  1  0.97550600  0.73384200  0.88723400  1
  C  184  1  0.02184600  0.70556300  0.88488800  1
  C  185  1  0.06803700  0.73387700  0.88264700  1
  C  186  1  0.06823300  0.78865900  0.88285300  1
  C  187  1  0.01899400  0.00864500  0.93330500  1
  C  188  1  0.97230700  0.01652700  0.94027800  1
  C  189  1  0.97208900  0.01657900  0.95397800  1
  C  190  1  0.01851900  0.00846600  0.96109200  1
  C  191  1  0.06507900  0.00072200  0.95407600  1
  C  192  1  0.06543100  0.00079600  0.94038200  1
  C  193  1  0.01799400  0.20085900  0.88507600  1
  C  194  1  0.06411800  0.22955500  0.88713900  1
  C  195  1  0.06328500  0.28433100  0.88718500  1
  C  196  1  0.01634700  0.31186000  0.88510100  1
  C  197  1  0.97036700  0.28298700  0.88306800  1
  C  198  1  0.97105500  0.22823200  0.88305300  1
  C  199  1  0.02055600  0.00877700  0.83701800  1
  C  200  1  0.06716200  0.01461700  0.82989100  1
  C  201  1  0.97358200  0.00211000  0.83009600  1
  C  202  1  0.97324400  0.00133200  0.81639900  1
  C  203  1  0.01982300  0.00743200  0.80920600  1
  C  204  1  0.06667600  0.01393000  0.81618900  1
  C  235  1  0.91265400  0.99996000  0.35156300  1
  C  236  1  0.87491200  0.99973500  0.36110600  1
  C  237  1  0.89949800  0.99848300  0.37321800  1
  C  239  1  0.96134700  0.99926800  0.35758500  1
  C  240  1  0.00988900  0.99922100  0.35090600  1
  C  241  1  0.05920000  0.99932600  0.35714900  1
  C  243  1  0.12108500  0.00027900  0.37254600  1
  C  244  1  0.14556700  0.99974600  0.36042600  1
  C  245  1  0.10751600  0.99939200  0.35095800  1
  C  246  1  0.14634600  0.00088500  0.38484100  1
  C  247  1  0.12021700  0.00094800  0.39705900  1
  C  249  1  0.05835800  0.00083100  0.41269400  1
  C  250  1  0.10705600  0.00158500  0.41871500  1
  C  251  1  0.14480400  0.00192700  0.40917200  1
  C  252  1  0.00980400  0.00034900  0.41936600  1
  C  253  1  0.96048800  0.99932600  0.41312400  1
  C  255  1  0.89860300  0.99819100  0.39772700  1
  C  256  1  0.87412200  0.99780200  0.40984700  1
  C  257  1  0.91216000  0.99884000  0.41931300  1
  C  258  1  0.87334100  0.99787200  0.38543100  1
  C  259  1  0.81774700  0.99781000  0.38536500  1
  C  260  1  0.78977800  0.04426300  0.38754700  1
  C  261  1  0.73503500  0.04441700  0.38739900  1
  C  262  1  0.70663900  0.99817200  0.38502700  1
  C  263  1  0.73483700  0.95192000  0.38277200  1
  C  264  1  0.78962300  0.95158500  0.38297600  1
  C  265  1  0.01047000  0.00122700  0.43327600  1
  C  266  1  0.01837200  0.04831400  0.44007400  1
  C  267  1  0.01873100  0.04921700  0.45376700  1
  C  268  1  0.01114300  0.00331100  0.46105800  1
  C  269  1  0.00311700  0.95620400  0.45422200  1
  C  270  1  0.00290300  0.95516200  0.44052400  1
  C  271  1  0.20192900  0.00175600  0.38489000  1
  C  272  1  0.23073100  0.95575300  0.38702900  1
  C  273  1  0.28550200  0.95672900  0.38708900  1
  C  274  1  0.31292700  0.00368500  0.38494500  1
  C  275  1  0.28394700  0.04953900  0.38282800  1
  C  276  1  0.22919500  0.04871000  0.38280200  1
  C  277  1  0.00917400  0.99962200  0.33699400  1
  C  278  1  0.01487300  0.95305500  0.32984500  1
  C  279  1  0.00250300  0.04665300  0.33009600  1
  C  280  1  0.00159300  0.04708000  0.31640000  1
  C  281  1  0.00754900  0.00053500  0.30918400  1
  C  282  1  0.01405100  0.95363000  0.31614300  1
  C  313  1  0.00924400  0.99776000  0.24645300  1
  C  314  1  0.98041700  0.96534800  0.25494000  1
  C  315  1  0.97857000  0.97588700  0.26855000  1
  C  316  1  0.00609500  0.01871600  0.27389400  1
  C  317  1  0.03431900  0.05092200  0.26524000  1
  C  318  1  0.03611100  0.04057300  0.25180800  1
  C  320  1  0.92224500  0.90260800  0.27143300  1
  C  321  1  0.92432500  0.89218500  0.25805400  1
  C  327  1  0.01431700  0.98641500  0.23333400  1
  C  329  1  0.00495200  0.03181300  0.28705600  1
  C  331  1  0.02278700  0.00938400  0.74646700  1
  C  332  1  0.05518500  0.98054500  0.75495600  1
  C  333  1  0.04463100  0.97869400  0.76856600  1
  C  334  1  0.00179900  0.00622300  0.77390700  1
  C  335  1  0.96961600  0.03446800  0.76525200  1
  C  336  1  0.97996600  0.03624500  0.75182100  1
  C  338  1  0.11789000  0.92234600  0.77145100  1
  C  339  1  0.12833000  0.92443300  0.75807300  1
  C  345  1  0.03413300  0.01441700  0.73334700  1
  C  347  1  0.98866600  0.00505700  0.78706800  1
  C  349  1  0.02442600  0.01304700  0.02430700  1
  C  350  1  0.06531800  0.01074800  0.01503100  1
  C  351  1  0.05471000  0.00962100  0.00140800  1
  C  352  1  0.00272400  0.01065200  0.99668500  1
  C  353  1  0.96244400  0.01220200  0.00608300  1
  C  354  1  0.97290500  0.01343800  0.01950400  1
  C  356  1  0.14649600  0.00704000  0.99715100  1
  C  357  1  0.15681300  0.00784000  0.01052200  1
  C  363  1  0.03474400  0.01731100  0.03763700  1
  C  365  1  0.98891900  0.01105700  0.98345700  1
  C  367  1  0.00614200  0.01541100  0.52421700  1
  C  368  1  0.00827200  0.05539800  0.51469500  1
  C  369  1  0.00924800  0.04347500  0.50114000  1
  C  370  1  0.00824900  0.99104600  0.49672900  1
  C  371  1  0.00688400  0.95168200  0.50637000  1
  C  372  1  0.00580300  0.96343500  0.51972700  1
  C  374  1  0.01155600  0.13482400  0.49632300  1
  C  375  1  0.01092600  0.14643200  0.50963000  1
  C  381  1  0.00204400  0.02699300  0.53748600  1
  C  383  1  0.00753300  0.97596900  0.48359400  1
  C  385  1  0.01549100  0.56482700  0.13428900  1
  C  386  1  0.05555100  0.52684000  0.13482600  1
  C  387  1  0.04370300  0.47261400  0.13508100  1
  C  388  1  0.99128700  0.45492100  0.13483700  1
  C  389  1  0.95185000  0.49340200  0.13448100  1
  C  390  1  0.96353200  0.54682700  0.13419500  1
  C  392  1  0.13509000  0.45349100  0.13568600  1
  C  393  1  0.14661500  0.50673300  0.13551400  1
  C  399  1  0.02697900  0.61788700  0.13327300  1
  C  401  1  0.97627600  0.40239100  0.13473400  1
  C  403  1  0.45529800  0.01540200  0.63429000  1
  C  404  1  0.49330100  0.05545500  0.63482800  1
  C  405  1  0.54752300  0.04359500  0.63509400  1
  C  406  1  0.56520400  0.99117400  0.63485700  1
  C  407  1  0.52671600  0.95174800  0.63449300  1
  C  408  1  0.47329500  0.96344300  0.63420400  1
  C  410  1  0.56667000  0.13497500  0.63569300  1
  C  411  1  0.51342800  0.14651500  0.63551000  1
  C  417  1  0.40224300  0.02689400  0.63327300  1
  C  419  1  0.61772700  0.97614400  0.63476600  1
  C  421  1  0.00451300  0.56415800  0.88642900  1
  C  422  1  0.96452700  0.52610900  0.88583800  1
  C  423  1  0.97648600  0.47191500  0.88556600  1
  C  424  1  0.02894100  0.45433400  0.88584700  1
  C  425  1  0.06830300  0.49288500  0.88623900  1
  C  426  1  0.05650800  0.54628300  0.88654300  1
  C  428  1  0.88513600  0.45263200  0.88490300  1
  C  429  1  0.87351200  0.50585400  0.88508500  1
  C  435  1  0.99288800  0.61713300  0.88753100  1
  C  437  1  0.04403600  0.40183800  0.88599300  1
  C  439  1  0.56522400  0.01584700  0.38642500  1
  C  440  1  0.52714700  0.05581100  0.38583800  1
  C  441  1  0.47296000  0.04382400  0.38556200  1
  C  442  1  0.45541100  0.99136000  0.38583000  1
  C  443  1  0.49397700  0.95202100  0.38621500  1
  C  444  1  0.54736400  0.96383900  0.38652400  1
  C  446  1  0.45361100  0.13516000  0.38492100  1
  C  447  1  0.50682600  0.14682000  0.38510600  1
  C  453  1  0.61821700  0.02748200  0.38750600  1
  C  455  1  0.40293100  0.97622900  0.38598600  1
  C  457  1  0.30387500  0.22437100  0.20817000  1
  C  458  1  0.30407300  0.18634200  0.19869900  1
  C  459  1  0.30729600  0.21050800  0.18656000  1
  C  461  1  0.30778200  0.27282800  0.20210200  1
  C  462  1  0.30940000  0.32152400  0.20872100  1
  C  463  1  0.31151800  0.37056200  0.20233400  1
  C  465  1  0.31298400  0.43189900  0.18678600  1
  C  466  1  0.31537500  0.45676300  0.19884000  1
  C  467  1  0.31492000  0.41906500  0.20838500  1
  C  468  1  0.31256400  0.45684100  0.17445000  1
  C  469  1  0.31110600  0.43038700  0.16228800  1
  C  471  1  0.31039100  0.36807400  0.14677400  1
  C  472  1  0.30937600  0.41658800  0.14066300  1
  C  473  1  0.31011500  0.45463000  0.15013200  1
  C  474  1  0.31066700  0.31931700  0.14019600  1
  C  475  1  0.31074100  0.27021500  0.14654600  1
  C  477  1  0.31001000  0.20882800  0.16206500  1
  C  478  1  0.31145200  0.18395900  0.14999900  1
  C  479  1  0.31220300  0.22170100  0.14046000  1
  C  480  1  0.30847400  0.18395100  0.17440300  1
  C  481  1  0.30837700  0.12834100  0.17455200  1
  C  482  1  0.35517900  0.10036900  0.17289600  1
  C  483  1  0.35529100  0.04562180  0.17298700  1
  C  484  1  0.30863800  0.01720980  0.17476700  1
  C  485  1  0.26202800  0.04539980  0.17651500  1
  C  486  1  0.26173200  0.10019400  0.17634200  1
  C  487  1  0.31166600  0.31951900  0.12628300  1
  C  488  1  0.35853600  0.32906600  0.11953200  1
  C  489  1  0.35987300  0.32866900  0.10584500  1
  C  490  1  0.31441900  0.31860200  0.09847920  1
  C  491  1  0.26771900  0.30886700  0.10528500  1
  C  492  1  0.26621100  0.30944200  0.11898200  1
  C  493  1  0.31345800  0.51242500  0.17430400  1
  C  494  1  0.26705900  0.54114100  0.17269400  1
  C  495  1  0.26790200  0.59591400  0.17263100  1
  C  496  1  0.31513800  0.62343500  0.17425000  1
  C  497  1  0.36139000  0.59453800  0.17583900  1
  C  498  1  0.36069000  0.53977900  0.17585800  1
  C  499  1  0.30868400  0.32139200  0.22266900  1
  C  500  1  0.26442300  0.33866400  0.22960300  1
  C  501  1  0.35274600  0.30531400  0.22985000  1
  C  502  1  0.35241100  0.30619200  0.24354800  1
  C  503  1  0.30815600  0.32359800  0.25046500  1
  C  504  1  0.26449700  0.34042300  0.24329600  1
  C  535  1  0.41798500  0.30410100  0.70816400  1
  C  536  1  0.45597000  0.30421700  0.69868300  1
  C  537  1  0.43173700  0.30710600  0.68654800  1
  C  539  1  0.36949200  0.30780200  0.70210600  1
  C  540  1  0.32082200  0.30944600  0.70873800  1
  C  541  1  0.27175500  0.31147200  0.70236200  1
  C  543  1  0.21034100  0.31269300  0.68683100  1
  C  544  1  0.18553700  0.31530500  0.69889000  1
  C  545  1  0.22328300  0.31499400  0.70842500  1
  C  546  1  0.18533500  0.31200400  0.67450400  1
  C  547  1  0.21172500  0.31010300  0.66233700  1
  C  549  1  0.27395900  0.30855200  0.64680600  1
  C  550  1  0.22541300  0.30752200  0.64071300  1
  C  551  1  0.18742200  0.30879700  0.65019100  1
  C  552  1  0.32268900  0.30831500  0.64021400  1
  C  553  1  0.37182200  0.30873500  0.64654800  1
  C  555  1  0.43328800  0.30883600  0.66204600  1
  C  556  1  0.45809600  0.30971800  0.64996800  1
  C  557  1  0.42030400  0.30989300  0.64044100  1
  C  558  1  0.45823000  0.30790700  0.67437900  1
  C  559  1  0.51383500  0.30790700  0.67451000  1
  C  560  1  0.54171100  0.35472000  0.67277300  1
  C  561  1  0.59646100  0.35493900  0.67286300  1
  C  562  1  0.62495800  0.30838500  0.67471500  1
  C  563  1  0.59685900  0.26176000  0.67653000  1
  C  564  1  0.54207100  0.26135900  0.67636600  1
  C  565  1  0.32242300  0.30823300  0.62630000  1
  C  566  1  0.31298800  0.35456300  0.61931000  1
  C  567  1  0.31324100  0.35473900  0.60561800  1
  C  568  1  0.32307200  0.30863000  0.59849000  1
  C  569  1  0.33271600  0.26248300  0.60553400  1
  C  570  1  0.33227000  0.26213700  0.61923600  1
  C  571  1  0.12974800  0.31299600  0.67437200  1
  C  572  1  0.10094800  0.26663900  0.67278100  1
  C  573  1  0.04617780  0.26758300  0.67271300  1
  C  574  1  0.01873780  0.31487700  0.67431500  1
  C  575  1  0.04772080  0.36108500  0.67588900  1
  C  576  1  0.10248000  0.36028600  0.67590900  1
  C  577  1  0.32100400  0.30878200  0.72268600  1
  C  578  1  0.30378600  0.26451600  0.72962600  1
  C  579  1  0.33708700  0.35285700  0.72985900  1
  C  580  1  0.33627600  0.35253100  0.74355700  1
  C  581  1  0.31895600  0.30826100  0.75048200  1
  C  582  1  0.30207900  0.26460500  0.74332000  1
  C  613  1  0.33123500  0.22307300  0.89037800  1
  C  614  1  0.33133800  0.18519100  0.89988700  1
  C  615  1  0.33236600  0.20961000  0.91202200  1
  C  617  1  0.33179500  0.27168100  0.89644300  1
  C  618  1  0.33187700  0.32031600  0.88980800  1
  C  619  1  0.33163800  0.36953700  0.89609600  1
  C  621  1  0.33045600  0.43120400  0.91154700  1
  C  622  1  0.33105900  0.45585600  0.89944700  1
  C  623  1  0.33156000  0.41794100  0.88994600  1
  C  624  1  0.32977200  0.45629300  0.92386500  1
  C  625  1  0.32965400  0.43000200  0.93605900  1
  C  627  1  0.32975000  0.36791900  0.95164200  1
  C  628  1  0.32926500  0.41653500  0.95770600  1
  C  629  1  0.32891800  0.45442000  0.94819600  1
  C  630  1  0.33024000  0.31925900  0.95826900  1
  C  631  1  0.33113700  0.27004000  0.95197800  1
  C  633  1  0.33230500  0.20837700  0.93652800  1
  C  634  1  0.33261600  0.18372100  0.94862600  1
  C  635  1  0.33158300  0.22162300  0.95812400  1
  C  636  1  0.33278500  0.18328200  0.92421200  1
  C  637  1  0.33294000  0.12768800  0.92410200  1
  C  638  1  0.28654000  0.09960280  0.92626000  1
  C  639  1  0.28652400  0.04485980  0.92611100  1
  C  640  1  0.33286400  0.01658080  0.92376500  1
  C  641  1  0.37905500  0.04489480  0.92152400  1
  C  642  1  0.37925100  0.09967680  0.92173000  1
  C  643  1  0.33001200  0.31966300  0.97218200  1
  C  644  1  0.28332500  0.32754500  0.97915500  1
  C  645  1  0.28310700  0.32759700  0.99285500  1
  C  646  1  0.32953700  0.31948400  0.99996900  1
  C  647  1  0.37609700  0.31174000  0.99295300  1
  C  648  1  0.37644900  0.31181400  0.97925900  1
  C  649  1  0.32901200  0.51187700  0.92395300  1
  C  650  1  0.37513600  0.54057300  0.92601600  1
  C  651  1  0.37430300  0.59534900  0.92606200  1
  C  652  1  0.32736500  0.62287800  0.92397800  1
  C  653  1  0.28138500  0.59400500  0.92194500  1
  C  654  1  0.28207300  0.53925000  0.92193000  1
  C  655  1  0.33157400  0.31979500  0.87589500  1
  C  656  1  0.37818000  0.32563500  0.86876800  1
  C  657  1  0.28460000  0.31312800  0.86897300  1
  C  658  1  0.28426200  0.31235000  0.85527600  1
  C  659  1  0.33084100  0.31845000  0.84808300  1
  C  660  1  0.37769400  0.32494800  0.85506600  1
  C  691  1  0.22367200  0.31097800  0.39044000  1
  C  692  1  0.18593000  0.31075300  0.39998300  1
  C  693  1  0.21051600  0.30950100  0.41209500  1
  C  695  1  0.27236500  0.31028600  0.39646200  1
  C  696  1  0.32090700  0.31023900  0.38978300  1
  C  697  1  0.37021800  0.31034400  0.39602600  1
  C  699  1  0.43210300  0.31129700  0.41142300  1
  C  700  1  0.45658500  0.31076400  0.39930300  1
  C  701  1  0.41853400  0.31041000  0.38983500  1
  C  702  1  0.45736400  0.31190300  0.42371800  1
  C  703  1  0.43123500  0.31196600  0.43593600  1
  C  705  1  0.36937600  0.31184900  0.45157100  1
  C  706  1  0.41807400  0.31260300  0.45759200  1
  C  707  1  0.45582200  0.31294500  0.44804900  1
  C  708  1  0.32082200  0.31136700  0.45824300  1
  C  709  1  0.27150600  0.31034400  0.45200100  1
  C  711  1  0.20962100  0.30920900  0.43660400  1
  C  712  1  0.18514000  0.30882000  0.44872400  1
  C  713  1  0.22317800  0.30985800  0.45819000  1
  C  714  1  0.18435900  0.30889000  0.42430800  1
  C  715  1  0.12876500  0.30882800  0.42424200  1
  C  716  1  0.10079600  0.35528100  0.42642400  1
  C  717  1  0.04605280  0.35543500  0.42627600  1
  C  718  1  0.01765680  0.30919000  0.42390400  1
  C  719  1  0.04585480  0.26293800  0.42164900  1
  C  720  1  0.10064100  0.26260300  0.42185300  1
  C  721  1  0.32148800  0.31224500  0.47215300  1
  C  722  1  0.32939000  0.35933200  0.47895100  1
  C  723  1  0.32974900  0.36023500  0.49264400  1
  C  724  1  0.32216100  0.31432900  0.49993500  1
  C  725  1  0.31413500  0.26722200  0.49309900  1
  C  726  1  0.31392100  0.26618000  0.47940100  1
  C  727  1  0.51294700  0.31277400  0.42376700  1
  C  728  1  0.54174900  0.26677100  0.42590600  1
  C  729  1  0.59652000  0.26774700  0.42596600  1
  C  730  1  0.62394500  0.31470300  0.42382200  1
  C  731  1  0.59496500  0.36055700  0.42170500  1
  C  732  1  0.54021300  0.35972800  0.42167900  1
  C  733  1  0.32019200  0.31064000  0.37587100  1
  C  734  1  0.32589100  0.26407300  0.36872200  1
  C  735  1  0.31352100  0.35767100  0.36897300  1
  C  736  1  0.31261100  0.35809800  0.35527700  1
  C  737  1  0.31856700  0.31155300  0.34806100  1
  C  738  1  0.32506900  0.26464800  0.35502000  1
  C  769  1  0.32026200  0.30877800  0.28533000  1
  C  770  1  0.29143500  0.27636600  0.29381700  1
  C  771  1  0.28958800  0.28690500  0.30742700  1
  C  772  1  0.31711300  0.32973400  0.31277100  1
  C  773  1  0.34533700  0.36194000  0.30411700  1
  C  774  1  0.34712900  0.35159100  0.29068500  1
  C  776  1  0.23326300  0.21362600  0.31031000  1
  C  777  1  0.23534300  0.20320300  0.29693100  1
  C  783  1  0.32533500  0.29743300  0.27221100  1
  C  785  1  0.31597000  0.34283100  0.32593300  1
  C  787  1  0.33380500  0.32040200  0.78534400  1
  C  788  1  0.36620300  0.29156300  0.79383300  1
  C  789  1  0.35564900  0.28971200  0.80744300  1
  C  790  1  0.31281700  0.31724100  0.81278400  1
  C  791  1  0.28063400  0.34548600  0.80412900  1
  C  792  1  0.29098400  0.34726300  0.79069800  1
  C  794  1  0.42890800  0.23336400  0.81032800  1
  C  795  1  0.43934800  0.23545100  0.79695000  1
  C  801  1  0.34515100  0.32543500  0.77222400  1
  C  803  1  0.29968400  0.31607500  0.82594500  1
  C  805  1  0.33544400  0.32406500  0.06318420  1
  C  806  1  0.37633600  0.32176600  0.05390820  1
  C  807  1  0.36572800  0.32063900  0.04028520  1
  C  808  1  0.31374200  0.32167000  0.03556220  1
  C  809  1  0.27346200  0.32322000  0.04496020  1
  C  810  1  0.28392300  0.32445600  0.05838120  1
  C  812  1  0.45751400  0.31805800  0.03602820  1
  C  813  1  0.46783100  0.31885800  0.04939920  1
  C  819  1  0.34576200  0.32832900  0.07651420  1
  C  821  1  0.29993700  0.32207500  0.02233420  1
  C  823  1  0.31716000  0.32642900  0.56309400  1
  C  824  1  0.31929000  0.36641600  0.55357200  1
  C  825  1  0.32026600  0.35449300  0.54001700  1
  C  826  1  0.31926700  0.30206400  0.53560600  1
  C  827  1  0.31790200  0.26270000  0.54524700  1
  C  828  1  0.31682100  0.27445300  0.55860400  1
  C  830  1  0.32257400  0.44584200  0.53520000  1
  C  831  1  0.32194400  0.45745000  0.54850700  1
  C  837  1  0.31306200  0.33801100  0.57636300  1
  C  839  1  0.31855100  0.28698700  0.52247100  1
  C  841  1  0.32650900  0.87584500  0.17316600  1
  C  842  1  0.36656900  0.83785800  0.17370300  1
  C  843  1  0.35472100  0.78363200  0.17395800  1
  C  844  1  0.30230500  0.76593900  0.17371400  1
  C  845  1  0.26286800  0.80442000  0.17335800  1
  C  846  1  0.27455000  0.85784500  0.17307200  1
  C  848  1  0.44610800  0.76450900  0.17456300  1
  C  849  1  0.45763300  0.81775100  0.17439100  1
  C  855  1  0.33799700  0.92890500  0.17215000  1
  C  857  1  0.28729400  0.71340900  0.17361100  1
  C  859  1  0.76631600  0.32642000  0.67316700  1
  C  860  1  0.80431900  0.36647300  0.67370500  1
  C  861  1  0.85854100  0.35461300  0.67397100  1
  C  862  1  0.87622200  0.30219200  0.67373400  1
  C  863  1  0.83773400  0.26276600  0.67337000  1
  C  864  1  0.78431300  0.27446100  0.67308100  1
  C  866  1  0.87768800  0.44599300  0.67457000  1
  C  867  1  0.82444600  0.45753300  0.67438700  1
  C  873  1  0.71326100  0.33791200  0.67215000  1
  C  875  1  0.92874500  0.28716200  0.67364300  1
  C  877  1  0.31553100  0.87517600  0.92530600  1
  C  878  1  0.27554500  0.83712700  0.92471500  1
  C  879  1  0.28750400  0.78293300  0.92444300  1
  C  880  1  0.33995900  0.76535200  0.92472400  1
  C  881  1  0.37932100  0.80390300  0.92511600  1
  C  882  1  0.36752600  0.85730100  0.92542000  1
  C  884  1  0.19615400  0.76365000  0.92378000  1
  C  885  1  0.18453000  0.81687200  0.92396200  1
  C  891  1  0.30390600  0.92815100  0.92640800  1
  C  893  1  0.35505400  0.71285600  0.92487000  1
  C  895  1  0.87624200  0.32686500  0.42530200  1
  C  896  1  0.83816500  0.36682900  0.42471500  1
  C  897  1  0.78397800  0.35484200  0.42443900  1
  C  898  1  0.76642900  0.30237800  0.42470700  1
  C  899  1  0.80499500  0.26303900  0.42509200  1
  C  900  1  0.85838200  0.27485700  0.42540100  1
  C  902  1  0.76462900  0.44617800  0.42379800  1
  C  903  1  0.81784400  0.45783800  0.42398300  1
  C  909  1  0.92923500  0.33850000  0.42638300  1
  C  911  1  0.71394900  0.28724700  0.42486300  1
  N  4  1  0.99850200  0.95118500  0.15029600  1
  N  8  1  0.99963000  0.06937500  0.15053200  1
  N  14  1  0.00011900  0.06762800  0.12082600  1
  N  20  1  0.99845600  0.94936900  0.12058900  1
  N  75  1  0.00158900  0.00602100  0.04660000  1
  N  76  1  0.00843900  0.36412400  0.13538500  1
  N  77  1  0.99585500  0.01675600  0.22452100  1
  N  78  1  0.99463000  0.65429100  0.13621800  1
  N  82  1  0.06903600  0.99828400  0.65029600  1
  N  86  1  0.95083900  0.99936900  0.65056400  1
  N  92  1  0.95243700  0.99889900  0.62085900  1
  N  98  1  0.07070000  0.99714500  0.62059000  1
  N  153  1  0.01343800  0.99466500  0.54662600  1
  N  154  1  0.65601800  0.00827200  0.63543600  1
  N  155  1  0.00377000  0.99597100  0.72453800  1
  N  156  1  0.36584600  0.99446700  0.63617000  1
  N  160  1  0.02150300  0.95029100  0.87050600  1
  N  164  1  0.01988600  0.06858200  0.87012900  1
  N  170  1  0.01899300  0.06728400  0.89982500  1
  N  176  1  0.02045900  0.94896100  0.90019100  1
  N  231  1  0.02184600  0.00835400  0.97404800  1
  N  232  1  0.01199600  0.36355500  0.88509400  1
  N  233  1  0.02281200  0.00707800  0.79621700  1
  N  234  1  0.02493700  0.65367700  0.88449800  1
  N  238  1  0.95115800  0.99835400  0.37053400  1
  N  242  1  0.06944500  0.99993700  0.37005200  1
  N  248  1  0.06855700  0.00035700  0.39974500  1
  N  254  1  0.95024000  0.99901500  0.40022200  1
  N  309  1  0.01131700  0.00787500  0.47399300  1
  N  310  1  0.36461500  0.00816700  0.38495300  1
  N  311  1  0.00711700  0.99763100  0.29619500  1
  N  312  1  0.65475000  0.99520200  0.38462500  1
  N  319  1  0.94924500  0.94380200  0.27612200  1
  N  322  1  0.95310900  0.92381500  0.25035600  1
  N  337  1  0.07669800  0.94935400  0.77613800  1
  N  340  1  0.09671600  0.95323000  0.75037400  1
  N  355  1  0.09627200  0.00794500  0.99319500  1
  N  358  1  0.11608700  0.00971000  0.01885300  1
  N  373  1  0.01069700  0.08423000  0.49267800  1
  N  376  1  0.00925200  0.10652300  0.51820800  1
  N  391  1  0.08451800  0.43884200  0.13546800  1
  N  394  1  0.10665200  0.54098000  0.13508000  1
  N  409  1  0.58130700  0.08440000  0.63548200  1
  N  412  1  0.47917300  0.10656000  0.63507400  1
  N  427  1  0.93573500  0.43807200  0.88514800  1
  N  430  1  0.91340800  0.54017100  0.88556000  1
  N  445  1  0.43908700  0.08455300  0.38515400  1
  N  448  1  0.54116700  0.10694500  0.38557200  1
  N  460  1  0.30952000  0.26220300  0.18917300  1
  N  464  1  0.31064800  0.38039300  0.18940900  1
  N  470  1  0.31113700  0.37864600  0.15970300  1
  N  476  1  0.30947400  0.26038700  0.15946600  1
  N  531  1  0.31260700  0.31703900  0.08547720  1
  N  532  1  0.31945700  0.67514200  0.17426200  1
  N  533  1  0.30687300  0.32777400  0.26339800  1
  N  534  1  0.30564800  0.96530900  0.17509500  1
  N  538  1  0.38005400  0.30930200  0.68917300  1
  N  542  1  0.26185700  0.31038700  0.68944100  1
  N  548  1  0.26345500  0.30991700  0.65973600  1
  N  554  1  0.38171800  0.30816300  0.65946700  1
  N  609  1  0.32445600  0.30568300  0.58550300  1
  N  610  1  0.96703600  0.31929000  0.67431300  1
  N  611  1  0.31478800  0.30698900  0.76341500  1
  N  612  1  0.67686400  0.30548500  0.67504700  1
  N  616  1  0.33252100  0.26130900  0.90938300  1
  N  620  1  0.33090400  0.37960000  0.90900600  1
  N  626  1  0.33001100  0.37830200  0.93870200  1
  N  632  1  0.33147700  0.25997900  0.93906800  1
  N  687  1  0.33286400  0.31937200  0.01292520  1
  N  688  1  0.32301400  0.67457300  0.92397100  1
  N  689  1  0.33383000  0.31809600  0.83509400  1
  N  690  1  0.33595500  0.96469500  0.92337500  1
  N  694  1  0.26217600  0.30937200  0.40941100  1
  N  698  1  0.38046300  0.31095500  0.40892900  1
  N  704  1  0.37957500  0.31137500  0.43862200  1
  N  710  1  0.26125800  0.31003300  0.43909900  1
  N  765  1  0.32233500  0.31889300  0.51287000  1
  N  766  1  0.67563300  0.31918500  0.42383000  1
  N  767  1  0.31813500  0.30864900  0.33507200  1
  N  768  1  0.96576800  0.30622000  0.42350200  1
  N  775  1  0.26026300  0.25482000  0.31499900  1
  N  778  1  0.26412700  0.23483300  0.28923300  1
  N  793  1  0.38771600  0.26037200  0.81501500  1
  N  796  1  0.40773400  0.26424800  0.78925100  1
  N  811  1  0.40729000  0.31896300  0.03207220  1
  N  814  1  0.42710500  0.32072800  0.05773020  1
  N  829  1  0.32171500  0.39524800  0.53155500  1
  N  832  1  0.32027000  0.41754100  0.55708500  1
  N  847  1  0.39553600  0.74986000  0.17434500  1
  N  850  1  0.41767000  0.85199800  0.17395700  1
  N  865  1  0.89232500  0.39541800  0.67435900  1
  N  868  1  0.79019100  0.41757800  0.67395100  1
  N  883  1  0.24675300  0.74909000  0.92402500  1
  N  886  1  0.22442600  0.85118900  0.92443700  1
  N  901  1  0.75010500  0.39557100  0.42403100  1
  N  904  1  0.85218500  0.41796300  0.42444900  1
