# generated using pymatgen
data_H36C57N4
_symmetry_space_group_name_H-M   'P 1'
_cell_length_a   37.82510000
_cell_length_b   55.77990000
_cell_length_c   55.77990000
_cell_angle_alpha   90.00000000
_cell_angle_beta   89.99660000
_cell_angle_gamma   90.00000000
_symmetry_Int_Tables_number   1
_chemical_formula_structural   H36C57N4
_chemical_formula_sum   'H288 C456 N32'
_cell_volume   117688.91168719
_cell_formula_units_Z   8
loop_
 _symmetry_equiv_pos_site_id
 _symmetry_equiv_pos_as_xyz
  1  'x, y, z'
loop_
 _atom_site_type_symbol
 _atom_site_label
 _atom_site_symmetry_multiplicity
 _atom_site_fract_x
 _atom_site_fract_y
 _atom_site_fract_z
 _atom_site_occupancy
  H  25  1  0.01300700  0.15555000  0.03662100  1
  H  26  1  0.01337300  0.12762600  0.06937100  1
  H  27  1  0.01811600  0.10568000  0.10863800  1
  H  28  1  0.01878300  0.09153000  0.14898400  1
  H  29  1  0.99520900  0.16150800  0.17388400  1
  H  30  1  0.99973500  0.21301900  0.08552200  1
  H  31  1  0.07549700  0.17854500  0.13282400  1
  H  32  1  0.08674900  0.24722200  0.16481800  1
  H  33  1  0.02503600  0.25386900  0.16111800  1
  H  34  1  0.92325900  0.17522700  0.12693600  1
  H  35  1  0.96171800  0.25351800  0.15620700  1
  H  36  1  0.90014000  0.24474400  0.15376400  1
  H  42  1  0.01913900  0.21877400  0.04124200  1
  H  43  1  0.00494500  0.12936700  0.20198100  1
  H  44  1  0.85661000  0.20110100  0.12677700  1
  H  45  1  0.13153300  0.19157300  0.15678400  1
  H  70  1  0.01298800  0.84568800  0.85564500  1
  H  71  1  0.01330400  0.87363200  0.82291500  1
  H  72  1  0.01802300  0.89560800  0.78366200  1
  H  73  1  0.01866600  0.90978500  0.74333200  1
  H  74  1  0.99515900  0.83981700  0.71838200  1
  H  75  1  0.99978800  0.78824100  0.80670800  1
  H  76  1  0.07546600  0.82278400  0.75939800  1
  H  77  1  0.08676600  0.75412500  0.72736100  1
  H  78  1  0.02504800  0.74745000  0.73107500  1
  H  79  1  0.92324100  0.82603200  0.76540400  1
  H  80  1  0.96169900  0.74783200  0.73589500  1
  H  81  1  0.90011300  0.75657200  0.73842900  1
  H  87  1  0.01909900  0.78244700  0.85099500  1
  H  88  1  0.00489100  0.87197500  0.69030600  1
  H  89  1  0.85647000  0.79991000  0.76557400  1
  H  90  1  0.13148300  0.80977900  0.73524400  1
  H  115  1  0.01285500  0.91020400  0.10097400  1
  H  116  1  0.01319000  0.87744300  0.07306000  1
  H  117  1  0.01782500  0.83817100  0.05111500  1
  H  118  1  0.01839000  0.79782900  0.03696700  1
  H  119  1  0.99494700  0.77294900  0.10697400  1
  H  120  1  0.99961600  0.86132300  0.15846400  1
  H  121  1  0.07531500  0.81382000  0.12401300  1
  H  122  1  0.08646800  0.78218900  0.19287100  1
  H  123  1  0.02477100  0.78604100  0.19950500  1
  H  124  1  0.92312200  0.81977900  0.12060300  1
  H  125  1  0.96145600  0.79092500  0.19907400  1
  H  126  1  0.89989400  0.79327100  0.19022800  1
  H  132  1  0.01893000  0.90557700  0.16423600  1
  H  133  1  0.00449100  0.74483800  0.07482100  1
  H  134  1  0.85636500  0.81996200  0.14645000  1
  H  135  1  0.13147300  0.79031300  0.13708700  1
  H  160  1  0.01283100  0.09112900  0.79115600  1
  H  161  1  0.01313600  0.12385100  0.81911200  1
  H  162  1  0.01801800  0.16310700  0.84107700  1
  H  163  1  0.01881600  0.20344800  0.85524700  1
  H  164  1  0.99516400  0.22840300  0.78530600  1
  H  165  1  0.99962600  0.14008500  0.73372700  1
  H  166  1  0.07535100  0.18724500  0.76823900  1
  H  167  1  0.08668500  0.21934400  0.69961500  1
  H  168  1  0.02495200  0.21575900  0.69297900  1
  H  169  1  0.92308700  0.18135600  0.77150300  1
  H  170  1  0.96160400  0.21092000  0.69333200  1
  H  171  1  0.90001000  0.20835100  0.70204500  1
  H  177  1  0.01903800  0.09580400  0.72794300  1
  H  178  1  0.00509400  0.25647100  0.81745100  1
  H  179  1  0.85634900  0.18114400  0.74526000  1
  H  180  1  0.13146900  0.21112300  0.75525100  1
  H  205  1  0.51007900  0.65612700  0.53649800  1
  H  206  1  0.51263300  0.62816700  0.56911300  1
  H  207  1  0.52041600  0.60610900  0.60801400  1
  H  208  1  0.52449000  0.59183000  0.64826000  1
  H  209  1  0.50362600  0.66181400  0.67421600  1
  H  210  1  0.50050300  0.71352400  0.58589000  1
  H  211  1  0.58049000  0.68006200  0.62823000  1
  H  212  1  0.59434300  0.75015200  0.65637600  1
  H  213  1  0.53177600  0.75549100  0.65791100  1
  H  214  1  0.42813100  0.67462100  0.63215400  1
  H  215  1  0.46863000  0.75226400  0.66163900  1
  H  216  1  0.40790100  0.74212200  0.66464100  1
  H  222  1  0.51686300  0.71967100  0.54161600  1
  H  223  1  0.51539800  0.62937400  0.70178100  1
  H  224  1  0.37133300  0.68550900  0.65964100  1
  H  225  1  0.64345100  0.71243200  0.62864200  1
  H  250  1  0.51002600  0.34531400  0.35595700  1
  H  251  1  0.51260100  0.37323300  0.32330000  1
  H  252  1  0.52034500  0.39523900  0.28436500  1
  H  253  1  0.52442100  0.40946300  0.24410100  1
  H  254  1  0.50366500  0.33942500  0.21824000  1
  H  255  1  0.50050900  0.28785500  0.30664300  1
  H  256  1  0.58053700  0.32132500  0.26403100  1
  H  257  1  0.59439300  0.25100100  0.23646800  1
  H  258  1  0.53183400  0.24558800  0.23513200  1
  H  259  1  0.42819200  0.32667900  0.26016100  1
  H  260  1  0.46865700  0.24866300  0.23164500  1
  H  261  1  0.40795100  0.25876900  0.22852100  1
  H  267  1  0.51693100  0.28179100  0.35091200  1
  H  268  1  0.51531600  0.37183800  0.19062500  1
  H  269  1  0.37115500  0.31584900  0.23350700  1
  H  270  1  0.64348200  0.28917900  0.26370600  1
  H  295  1  0.50991500  0.41034500  0.60151200  1
  H  296  1  0.51247900  0.37769700  0.57358600  1
  H  297  1  0.52030500  0.33877100  0.55157800  1
  H  298  1  0.52445000  0.29851400  0.53734900  1
  H  299  1  0.50375000  0.27262300  0.60738000  1
  H  300  1  0.50053000  0.36101400  0.65897200  1
  H  301  1  0.58054300  0.31851600  0.62541600  1
  H  302  1  0.59461800  0.29103300  0.69574900  1
  H  303  1  0.53207000  0.28959200  0.70121200  1
  H  304  1  0.42821000  0.31448100  0.62020300  1
  H  305  1  0.46888400  0.28590400  0.69814200  1
  H  306  1  0.40816500  0.28272700  0.68809000  1
  H  312  1  0.51690800  0.40529100  0.66503500  1
  H  313  1  0.51550900  0.24502900  0.57496300  1
  H  314  1  0.37119800  0.28784700  0.63106600  1
  H  315  1  0.64369400  0.31824700  0.65784600  1
  H  340  1  0.50991800  0.59086200  0.29085200  1
  H  341  1  0.51246100  0.62350400  0.31878400  1
  H  342  1  0.52027600  0.66242100  0.34081000  1
  H  343  1  0.52440500  0.70267600  0.35505500  1
  H  344  1  0.50390000  0.72858900  0.28500900  1
  H  345  1  0.50072800  0.64020900  0.23339000  1
  H  346  1  0.58073600  0.68265300  0.26701200  1
  H  347  1  0.59497200  0.71013000  0.19668900  1
  H  348  1  0.53244000  0.71161300  0.19118200  1
  H  349  1  0.42836600  0.68676900  0.27208100  1
  H  350  1  0.46929400  0.71536300  0.19420500  1
  H  351  1  0.40855900  0.71857800  0.20419300  1
  H  357  1  0.51693700  0.59594200  0.22729400  1
  H  358  1  0.51554900  0.75617400  0.31745200  1
  H  359  1  0.37140700  0.71330200  0.26119000  1
  H  360  1  0.64392600  0.68283400  0.23458400  1
  H  367  1  0.95699900  0.07591400  0.16735000  1
  H  374  1  0.04697800  0.98736100  0.18404800  1
  H  375  1  0.04542000  0.94760300  0.16928000  1
  H  376  1  0.94418200  0.95934700  0.14063800  1
  H  377  1  0.03947700  0.06165500  0.21569500  1
  H  380  1  0.91815200  0.00450900  0.17133000  1
  H  381  1  0.91877500  0.99896600  0.14013600  1
  H  382  1  0.92327200  0.04256200  0.15037900  1
  H  383  1  0.95940500  0.03226900  0.13306400  1
  H  386  1  0.03678000  0.02025400  0.20629300  1
  H  393  1  0.95697000  0.92546400  0.72491500  1
  H  400  1  0.04703800  0.01397100  0.70823100  1
  H  401  1  0.04544600  0.05375000  0.72294000  1
  H  402  1  0.94410300  0.04206700  0.75143800  1
  H  403  1  0.03955400  0.93964900  0.67662300  1
  H  406  1  0.91815200  0.99684500  0.72078100  1
  H  407  1  0.91868600  0.00245600  0.75196400  1
  H  408  1  0.92323800  0.95883800  0.74183300  1
  H  409  1  0.95933600  0.96918200  0.75914900  1
  H  412  1  0.03685800  0.98106300  0.68597400  1
  H  419  1  0.95669700  0.77945100  0.02128100  1
  H  426  1  0.04688200  0.76264900  0.93283900  1
  H  427  1  0.04543100  0.77739500  0.89307200  1
  H  428  1  0.94415300  0.80603800  0.90467900  1
  H  429  1  0.03923300  0.73110200  0.00717600  1
  H  432  1  0.91801700  0.77535300  0.94984500  1
  H  433  1  0.91862200  0.80654000  0.94425700  1
  H  434  1  0.92304000  0.79636900  0.98787200  1
  H  435  1  0.95919000  0.81367100  0.97758700  1
  H  438  1  0.03662900  0.74044400  0.96575800  1
  H  445  1  0.95713100  0.22181600  0.87091000  1
  H  452  1  0.04705800  0.23861800  0.95947000  1
  H  453  1  0.04551100  0.22386700  0.99923500  1
  H  454  1  0.94430900  0.19514400  0.98748900  1
  H  455  1  0.03957200  0.27020100  0.88515300  1
  H  458  1  0.91826500  0.22580500  0.94230700  1
  H  459  1  0.91891800  0.19461500  0.94786600  1
  H  460  1  0.92342600  0.20483200  0.90426600  1
  H  461  1  0.95957900  0.18754800  0.91457700  1
  H  464  1  0.03687500  0.26081800  0.92655700  1
  H  471  1  0.46388200  0.57692500  0.66737100  1
  H  478  1  0.54904800  0.48634900  0.68463700  1
  H  479  1  0.54560800  0.44664300  0.66994400  1
  H  480  1  0.44514100  0.46059100  0.64106100  1
  H  481  1  0.54580400  0.56093700  0.71560600  1
  H  484  1  0.42120400  0.50635300  0.67170200  1
  H  485  1  0.42162400  0.50075900  0.64051700  1
  H  486  1  0.42815200  0.54425500  0.65082900  1
  H  487  1  0.46367100  0.53319200  0.63340400  1
  H  490  1  0.54064600  0.51957400  0.70662200  1
  H  497  1  0.46380800  0.42432800  0.22497300  1
  H  504  1  0.54908500  0.51484300  0.20771400  1
  H  505  1  0.54569800  0.55454400  0.22241900  1
  H  506  1  0.44516700  0.54067100  0.25123900  1
  H  507  1  0.54578500  0.44025500  0.17675200  1
  H  510  1  0.42119100  0.49491500  0.22056400  1
  H  511  1  0.42157200  0.50053000  0.25174600  1
  H  512  1  0.42808100  0.45702700  0.24147500  1
  H  513  1  0.46359400  0.46808800  0.25890100  1
  H  516  1  0.54063800  0.48162900  0.18569900  1
  H  523  1  0.46384000  0.27931200  0.52251100  1
  H  530  1  0.54910300  0.26221300  0.43195500  1
  H  531  1  0.54568000  0.27695500  0.39227000  1
  H  532  1  0.44509800  0.30567600  0.40619300  1
  H  533  1  0.54594900  0.23121600  0.50652500  1
  H  536  1  0.42120100  0.27492300  0.45191500  1
  H  537  1  0.42150800  0.30611400  0.44634300  1
  H  538  1  0.42803800  0.29578200  0.48983300  1
  H  539  1  0.46350400  0.31327400  0.47879800  1
  H  542  1  0.54075400  0.24018700  0.46516100  1
  H  549  1  0.46395900  0.72180700  0.36994300  1
  H  556  1  0.54900000  0.73932900  0.46052400  1
  H  557  1  0.54561300  0.72465000  0.50023600  1
  H  558  1  0.44524400  0.69558800  0.48629400  1
  H  559  1  0.54581200  0.77012000  0.38587000  1
  H  562  1  0.42123100  0.72620800  0.44051100  1
  H  563  1  0.42170100  0.69503000  0.44613900  1
  H  564  1  0.42822100  0.70530100  0.40263400  1
  H  565  1  0.46376800  0.68791800  0.41371500  1
  H  568  1  0.54062200  0.76121500  0.42724700  1
  H  575  1  0.68871900  0.25687400  0.25178000  1
  H  582  1  0.74800000  0.24307700  0.15176100  1
  H  583  1  0.79912200  0.22468000  0.13549900  1
  H  584  1  0.83637500  0.20964900  0.20484500  1
  H  585  1  0.66970600  0.29285500  0.18690400  1
  H  588  1  0.79794600  0.24450700  0.23625900  1
  H  589  1  0.79517800  0.21294100  0.23901100  1
  H  590  1  0.74378100  0.23462000  0.25747000  1
  H  591  1  0.73136000  0.21317500  0.23565600  1
  H  594  1  0.71872100  0.27334000  0.16904700  1
  H  601  1  0.68878300  0.74442900  0.64049200  1
  H  608  1  0.74809000  0.75813200  0.74052600  1
  H  609  1  0.79918000  0.77652900  0.75679700  1
  H  610  1  0.83636500  0.79172400  0.68746900  1
  H  611  1  0.66979000  0.70840600  0.70535500  1
  H  614  1  0.79799900  0.75689500  0.65601500  1
  H  615  1  0.79514300  0.78846300  0.65331000  1
  H  616  1  0.74379900  0.76675800  0.63482500  1
  H  617  1  0.73132600  0.78813900  0.65668600  1
  H  620  1  0.71876300  0.72794000  0.72322100  1
  H  627  1  0.68902300  0.69471600  0.20249900  1
  H  634  1  0.74800000  0.79481500  0.18856300  1
  H  635  1  0.79907200  0.81113600  0.17017100  1
  H  636  1  0.83638800  0.74183200  0.15497500  1
  H  637  1  0.67003600  0.75958200  0.23851100  1
  H  640  1  0.79812800  0.71032400  0.18972800  1
  H  641  1  0.79508500  0.70764900  0.15816600  1
  H  642  1  0.74390200  0.68910700  0.18001200  1
  H  643  1  0.73127800  0.71095700  0.15865900  1
  H  646  1  0.71884500  0.77750400  0.21883500  1
  H  653  1  0.68854200  0.30624700  0.69004000  1
  H  660  1  0.74806600  0.20624300  0.70340300  1
  H  661  1  0.79912500  0.18993200  0.72183100  1
  H  662  1  0.83615300  0.25926200  0.73732200  1
  H  663  1  0.66992500  0.24154400  0.65362100  1
  H  666  1  0.79775300  0.29083400  0.70252400  1
  H  667  1  0.79486600  0.29338900  0.73410200  1
  H  668  1  0.74346300  0.31188500  0.71247100  1
  H  669  1  0.73105600  0.28990000  0.73374400  1
  H  672  1  0.71892400  0.22365000  0.67314800  1
  H  679  1  0.32263200  0.74396900  0.25004300  1
  H  686  1  0.23661400  0.74267100  0.15854500  1
  H  687  1  0.18593000  0.76332700  0.14430300  1
  H  688  1  0.17304100  0.79613100  0.21159300  1
  H  689  1  0.31435200  0.69344900  0.19444600  1
  H  692  1  0.21298300  0.76366600  0.24554200  1
  H  693  1  0.22155000  0.79450700  0.24082900  1
  H  694  1  0.27355900  0.77194500  0.25735100  1
  H  695  1  0.28272700  0.78708600  0.23016300  1
  H  698  1  0.26426100  0.71361600  0.17896300  1
  H  705  1  0.32255300  0.25718000  0.64214700  1
  H  712  1  0.23657600  0.25847300  0.73368400  1
  H  713  1  0.18598900  0.23776800  0.74797600  1
  H  714  1  0.17330700  0.20469900  0.68080000  1
  H  715  1  0.31405800  0.30777800  0.69766200  1
  H  718  1  0.21304300  0.23711100  0.64676300  1
  H  719  1  0.22186800  0.20631800  0.65157900  1
  H  720  1  0.27368100  0.22900500  0.63495300  1
  H  721  1  0.28298900  0.21400500  0.66219400  1
  H  724  1  0.26412900  0.28750000  0.71322400  1
  H  731  1  0.32256600  0.30475100  0.20282700  1
  H  738  1  0.23656800  0.21323600  0.20415600  1
  H  739  1  0.18599900  0.19891600  0.18344200  1
  H  740  1  0.17341300  0.26603800  0.15022700  1
  H  741  1  0.31385700  0.24934300  0.25352200  1
  H  744  1  0.21311100  0.30014000  0.18254700  1
  H  745  1  0.22208800  0.29521200  0.15179200  1
  H  746  1  0.27378900  0.31190400  0.17455900  1
  H  747  1  0.28316100  0.28462800  0.15963900  1
  H  750  1  0.26399600  0.23375400  0.23319900  1
  H  757  1  0.32283800  0.69678700  0.68970200  1
  H  764  1  0.23622300  0.78800300  0.68769000  1
  H  765  1  0.18570500  0.80238000  0.70843300  1
  H  766  1  0.17365400  0.73549800  0.74223600  1
  H  767  1  0.31347700  0.75163500  0.63843100  1
  H  770  1  0.21345100  0.70121900  0.71003300  1
  H  771  1  0.22239600  0.70640900  0.74074600  1
  H  772  1  0.27423000  0.68974000  0.71810800  1
  H  773  1  0.28338600  0.71718000  0.73278700  1
  H  776  1  0.26355200  0.76725500  0.65871600  1
  C  1  1  0.96765300  0.19724700  0.13399900  1
  C  2  1  0.97812500  0.21960100  0.14294300  1
  C  3  1  0.01447100  0.22039700  0.14450400  1
  C  4  1  0.02845400  0.19869000  0.13633000  1
  C  5  1  0.06532200  0.19465400  0.13824400  1
  C  6  1  0.08764300  0.21241900  0.14855700  1
  C  7  1  0.07204300  0.23423500  0.15652300  1
  C  8  1  0.03570700  0.23840500  0.15446600  1
  C  9  1  0.95373100  0.23722000  0.14981700  1
  C  10  1  0.91770200  0.23182900  0.14837700  1
  C  11  1  0.90587900  0.20885500  0.14081900  1
  C  12  1  0.93112700  0.19176600  0.13278900  1
  C  13  1  0.00234200  0.17853100  0.10104100  1
  C  14  1  0.00652500  0.15407400  0.09628600  1
  C  15  1  0.00636500  0.14167100  0.11784400  1
  C  16  1  0.00084300  0.15792000  0.13658200  1
  C  17  1  0.01243100  0.11724300  0.12232700  1
  C  18  1  0.01226200  0.10902600  0.14615500  1
  C  19  1  0.00431300  0.12458300  0.16556800  1
  C  20  1  0.99934900  0.14938800  0.16039100  1
  C  21  1  0.00228500  0.19512000  0.08186700  1
  C  22  1  0.00564200  0.18696900  0.05785300  1
  C  23  1  0.00972300  0.16200300  0.05366200  1
  C  24  1  0.01020500  0.14551300  0.07272800  1
  C  37  1  0.99947600  0.18292600  0.12728000  1
  C  38  1  0.00348200  0.11678800  0.18941800  1
  C  39  1  0.00699600  0.20312300  0.03891600  1
  C  40  1  0.86994800  0.20422600  0.14178900  1
  C  41  1  0.12330200  0.20808200  0.15310700  1
  C  46  1  0.96763200  0.80403700  0.75826700  1
  C  47  1  0.97810600  0.78169700  0.74928300  1
  C  48  1  0.01444700  0.78096100  0.74761200  1
  C  49  1  0.02842800  0.80263700  0.75586100  1
  C  50  1  0.06529400  0.80668500  0.75394300  1
  C  51  1  0.08761600  0.78894000  0.74360000  1
  C  52  1  0.07204000  0.76711700  0.73563400  1
  C  53  1  0.03569700  0.76295400  0.73765600  1
  C  54  1  0.95371000  0.76409800  0.74236800  1
  C  55  1  0.91767600  0.76946700  0.74386800  1
  C  56  1  0.90585300  0.79242500  0.75147100  1
  C  57  1  0.93110600  0.80950800  0.75950400  1
  C  58  1  0.00235500  0.82274100  0.79121000  1
  C  59  1  0.00650200  0.84719600  0.79598200  1
  C  60  1  0.00628500  0.85962200  0.77443700  1
  C  61  1  0.00076800  0.84338400  0.75568900  1
  C  62  1  0.01229200  0.88405900  0.76997100  1
  C  63  1  0.01212400  0.89229100  0.74614900  1
  C  64  1  0.00422100  0.87674100  0.72672300  1
  C  65  1  0.99925400  0.85193400  0.73188500  1
  C  66  1  0.00232700  0.80613800  0.81037500  1
  C  67  1  0.00567100  0.81427700  0.83439400  1
  C  68  1  0.00972600  0.83924100  0.83860000  1
  C  69  1  0.01018100  0.85574400  0.81954500  1
  C  82  1  0.99945200  0.81836800  0.76496900  1
  C  83  1  0.00342400  0.88455000  0.70287700  1
  C  84  1  0.00702300  0.79811900  0.85333100  1
  C  85  1  0.86993000  0.79706700  0.75055900  1
  C  86  1  0.12327300  0.79329800  0.73907200  1
  C  91  1  0.96747900  0.81288600  0.14271100  1
  C  92  1  0.97791600  0.80408000  0.16512800  1
  C  93  1  0.01425800  0.80246700  0.16593100  1
  C  94  1  0.02827000  0.81051200  0.14418500  1
  C  95  1  0.06513200  0.80851500  0.14015800  1
  C  96  1  0.08741000  0.79821900  0.15795900  1
  C  97  1  0.07179100  0.79042500  0.17983100  1
  C  98  1  0.03545900  0.79254900  0.18398300  1
  C  99  1  0.95349300  0.79723300  0.18274100  1
  C  100  1  0.91747500  0.79862600  0.17730900  1
  C  101  1  0.90568900  0.80605600  0.15428600  1
  C  102  1  0.93096000  0.81403200  0.13718500  1
  C  103  1  0.00223500  0.84579000  0.12398200  1
  C  104  1  0.00638300  0.85053600  0.09952200  1
  C  105  1  0.00619500  0.82897400  0.08712700  1
  C  106  1  0.00072100  0.81024000  0.10338700  1
  C  107  1  0.01219400  0.82448500  0.06269400  1
  C  108  1  0.01194100  0.80065900  0.05447400  1
  C  109  1  0.00398300  0.78125300  0.07003700  1
  C  110  1  0.99910600  0.78643600  0.09485100  1
  C  111  1  0.00216300  0.86497100  0.14056300  1
  C  112  1  0.00552000  0.88898200  0.13240300  1
  C  113  1  0.00958700  0.89316400  0.10743500  1
  C  114  1  0.01005500  0.87409300  0.09095100  1
  C  127  1  0.99932500  0.81955300  0.12839000  1
  C  128  1  0.00308700  0.75740500  0.06224000  1
  C  129  1  0.00688800  0.90792400  0.14855300  1
  C  130  1  0.86977600  0.80498900  0.14961400  1
  C  131  1  0.12305300  0.79359400  0.15363900  1
  C  136  1  0.96750200  0.18855000  0.74954000  1
  C  137  1  0.97798700  0.19756400  0.72721600  1
  C  138  1  0.01433000  0.19918300  0.72646400  1
  C  139  1  0.02830500  0.19088800  0.74812400  1
  C  140  1  0.06518300  0.19272900  0.75214900  1
  C  141  1  0.08753100  0.20304100  0.73439800  1
  C  142  1  0.07195600  0.21104600  0.71258800  1
  C  143  1  0.03560400  0.20908100  0.70843900  1
  C  144  1  0.95360400  0.20446800  0.70960300  1
  C  145  1  0.91756700  0.20295500  0.71496000  1
  C  146  1  0.90572600  0.19531600  0.73790200  1
  C  147  1  0.93096800  0.18727500  0.75498800  1
  C  148  1  0.00217500  0.15556900  0.76823100  1
  C  149  1  0.00632700  0.15079200  0.79268600  1
  C  150  1  0.00611200  0.17233400  0.80511700  1
  C  151  1  0.00066300  0.19109000  0.78887800  1
  C  152  1  0.01230600  0.17680500  0.82953200  1
  C  153  1  0.01221900  0.20063000  0.83776100  1
  C  154  1  0.00427800  0.22005600  0.82222100  1
  C  155  1  0.99924100  0.21489600  0.79742200  1
  C  156  1  0.00214900  0.13641200  0.75162300  1
  C  157  1  0.00550700  0.11239200  0.75975400  1
  C  158  1  0.00953900  0.10817400  0.78471800  1
  C  159  1  0.01000100  0.12722500  0.80122600  1
  C  172  1  0.99931200  0.18181300  0.76386300  1
  C  173  1  0.00355800  0.24390300  0.83002500  1
  C  174  1  0.00687100  0.09346700  0.74358400  1
  C  175  1  0.86979200  0.19618400  0.74251100  1
  C  176  1  0.12321000  0.20751400  0.73873300  1
  C  181  1  0.47246100  0.69738400  0.63607600  1
  C  182  1  0.48354900  0.71970000  0.64473700  1
  C  183  1  0.51991400  0.72098400  0.64393600  1
  C  184  1  0.53332300  0.69937900  0.63502500  1
  C  185  1  0.57043000  0.69596800  0.63429600  1
  C  186  1  0.59325900  0.71430000  0.64284400  1
  C  187  1  0.57852000  0.73640900  0.65056800  1
  C  188  1  0.54190400  0.73975900  0.65150200  1
  C  189  1  0.46002000  0.73636200  0.65464800  1
  C  190  1  0.42429500  0.73017700  0.65622200  1
  C  191  1  0.41161300  0.70766700  0.64783000  1
  C  192  1  0.43618900  0.69124900  0.63763400  1
  C  193  1  0.50377600  0.67899400  0.60122500  1
  C  194  1  0.50774700  0.65455700  0.59627700  1
  C  195  1  0.50982500  0.64212700  0.61777200  1
  C  196  1  0.50628000  0.65836300  0.63674000  1
  C  197  1  0.51618600  0.61767400  0.62194000  1
  C  198  1  0.51796000  0.60937200  0.64570900  1
  C  199  1  0.51168100  0.62489000  0.66542600  1
  C  200  1  0.50668400  0.64974800  0.66054200  1
  C  201  1  0.50239400  0.69561600  0.58209700  1
  C  202  1  0.50424400  0.68754900  0.55796600  1
  C  203  1  0.50778100  0.66256700  0.55361700  1
  C  204  1  0.50953700  0.64603400  0.57260700  1
  C  217  1  0.50365500  0.68337000  0.62755200  1
  C  218  1  0.51235000  0.61693200  0.68920900  1
  C  219  1  0.50540200  0.70381600  0.53907200  1
  C  220  1  0.37667000  0.70140300  0.65247700  1
  C  221  1  0.62960000  0.71185900  0.64375400  1
  C  226  1  0.47252500  0.30388900  0.25644800  1
  C  227  1  0.48361500  0.28148500  0.24802000  1
  C  228  1  0.51996900  0.28017800  0.24890000  1
  C  229  1  0.53337600  0.30188500  0.25756400  1
  C  230  1  0.57048300  0.30533200  0.25819400  1
  C  231  1  0.59329900  0.28695600  0.24972200  1
  C  232  1  0.57857000  0.26477100  0.24221700  1
  C  233  1  0.54195700  0.26136800  0.24142400  1
  C  234  1  0.46005900  0.26465400  0.23843500  1
  C  235  1  0.42435300  0.27084800  0.23673900  1
  C  236  1  0.41167100  0.29347800  0.24480500  1
  C  237  1  0.43624400  0.30999300  0.25485000  1
  C  238  1  0.50377400  0.32236300  0.29125700  1
  C  239  1  0.50771800  0.34680600  0.29617300  1
  C  240  1  0.50984100  0.35919600  0.27465600  1
  C  241  1  0.50635700  0.34292600  0.25571000  1
  C  242  1  0.51616500  0.38364700  0.27045500  1
  C  243  1  0.51794900  0.39191200  0.24667400  1
  C  244  1  0.51167800  0.37636700  0.22698100  1
  C  245  1  0.50673500  0.35150800  0.23189700  1
  C  246  1  0.50236400  0.30576800  0.31040900  1
  C  247  1  0.50419900  0.31386800  0.33452900  1
  C  248  1  0.50772600  0.33885500  0.33884700  1
  C  249  1  0.50948700  0.35536300  0.31983200  1
  C  262  1  0.50370000  0.31793500  0.26493900  1
  C  263  1  0.51230500  0.38429600  0.20318500  1
  C  264  1  0.50534900  0.29760900  0.35342800  1
  C  265  1  0.37676000  0.29971700  0.24003600  1
  C  266  1  0.62962600  0.28943800  0.24858200  1
  C  271  1  0.47258300  0.31081100  0.64296000  1
  C  272  1  0.48373400  0.30240600  0.66536100  1
  C  273  1  0.52009600  0.30324000  0.66659400  1
  C  274  1  0.53343600  0.31194800  0.64488500  1
  C  275  1  0.57053300  0.31261400  0.64140000  1
  C  276  1  0.59341200  0.30421200  0.65976800  1
  C  277  1  0.57875000  0.29672200  0.68198100  1
  C  278  1  0.54214500  0.29584700  0.68540500  1
  C  279  1  0.46023900  0.29269900  0.68216500  1
  C  280  1  0.42451100  0.29101700  0.67602500  1
  C  281  1  0.41178400  0.29908600  0.65340900  1
  C  282  1  0.43629500  0.30919400  0.63688800  1
  C  283  1  0.50375800  0.34563900  0.62445600  1
  C  284  1  0.50767300  0.35056200  0.60001200  1
  C  285  1  0.50978300  0.32904700  0.58761500  1
  C  286  1  0.50631200  0.31009700  0.60387900  1
  C  287  1  0.51610100  0.32485700  0.56316100  1
  C  288  1  0.51793600  0.30108000  0.55489300  1
  C  289  1  0.51172300  0.28137600  0.57043800  1
  C  290  1  0.50675800  0.28628400  0.59529700  1
  C  291  1  0.50235900  0.36478600  0.64105700  1
  C  292  1  0.50417000  0.38890700  0.63296100  1
  C  293  1  0.50764700  0.39323300  0.60797100  1
  C  294  1  0.50938100  0.37422300  0.59145800  1
  C  307  1  0.50371500  0.31931900  0.62887500  1
  C  308  1  0.51242400  0.25758400  0.56250900  1
  C  309  1  0.50532000  0.40780600  0.64921900  1
  C  310  1  0.37685300  0.29432800  0.64721000  1
  C  311  1  0.62973200  0.30318400  0.65725500  1
  C  316  1  0.47281800  0.69043000  0.24938500  1
  C  317  1  0.48402500  0.69881600  0.22699100  1
  C  318  1  0.52038700  0.69793100  0.22577600  1
  C  319  1  0.53367400  0.68924700  0.24750700  1
  C  320  1  0.57076600  0.68854200  0.25101400  1
  C  321  1  0.59368700  0.69693600  0.23266400  1
  C  322  1  0.57907500  0.70444400  0.21044500  1
  C  323  1  0.54247800  0.70533800  0.20699200  1
  C  324  1  0.46059600  0.70854900  0.21016300  1
  C  325  1  0.42487100  0.71030100  0.21628900  1
  C  326  1  0.41205100  0.70219600  0.23886700  1
  C  327  1  0.43651700  0.69208800  0.25542100  1
  C  328  1  0.50390800  0.65557700  0.26791200  1
  C  329  1  0.50777100  0.65064800  0.29235800  1
  C  330  1  0.50987500  0.67215800  0.30476000  1
  C  331  1  0.50648300  0.69111500  0.28849600  1
  C  332  1  0.51614100  0.67634000  0.32922200  1
  C  333  1  0.51795700  0.70011600  0.33750100  1
  C  334  1  0.51176000  0.71982400  0.32195900  1
  C  335  1  0.50688000  0.71492200  0.29709200  1
  C  336  1  0.50253100  0.63643400  0.25130500  1
  C  337  1  0.50428100  0.61230800  0.25939800  1
  C  338  1  0.50769700  0.60797700  0.28439200  1
  C  339  1  0.50944400  0.62698400  0.30090900  1
  C  352  1  0.50390800  0.68189800  0.26349400  1
  C  353  1  0.51245600  0.74361000  0.32990000  1
  C  354  1  0.50545000  0.59340700  0.24314300  1
  C  355  1  0.37708800  0.70696100  0.24499400  1
  C  356  1  0.63001000  0.69791600  0.23519000  1
  C  361  1  0.99951500  0.07264600  0.19153100  1
  C  362  1  0.02169600  0.05599800  0.20305500  1
  C  363  1  0.02025600  0.03150600  0.19719900  1
  C  364  1  0.99645900  0.02266100  0.17964500  1
  C  365  1  0.97248800  0.03938500  0.16909600  1
  C  366  1  0.97409100  0.06402800  0.17516900  1
  C  368  1  0.99539400  0.99772900  0.17249700  1
  C  369  1  0.02416300  0.98176200  0.17604300  1
  C  370  1  0.02347400  0.95813600  0.16724800  1
  C  371  1  0.99395600  0.94954100  0.15442900  1
  C  372  1  0.96538200  0.96523700  0.15043200  1
  C  373  1  0.96568900  0.98896900  0.15942400  1
  C  378  1  0.93480500  0.00498100  0.15530800  1
  C  379  1  0.94676200  0.03112300  0.15065900  1
  C  387  1  0.99954700  0.92869500  0.70077400  1
  C  388  1  0.02175200  0.94532400  0.68924300  1
  C  389  1  0.02032400  0.96982300  0.69507600  1
  C  390  1  0.99648800  0.97869500  0.71259500  1
  C  391  1  0.97248600  0.96198800  0.72314100  1
  C  392  1  0.97407700  0.93733900  0.71709100  1
  C  394  1  0.99539900  0.00364000  0.71969300  1
  C  395  1  0.02416800  0.01960400  0.71614100  1
  C  396  1  0.02345500  0.04324700  0.72489700  1
  C  397  1  0.99391600  0.05185100  0.73769200  1
  C  398  1  0.96532400  0.03616600  0.74166800  1
  C  399  1  0.96565200  0.01242300  0.73271000  1
  C  404  1  0.93476200  0.99641300  0.73682300  1
  C  405  1  0.94672300  0.97028300  0.74154100  1
  C  413  1  0.99924300  0.75528100  0.01809100  1
  C  414  1  0.02145200  0.74372700  0.00148100  1
  C  415  1  0.02008100  0.74955500  0.97698100  1
  C  416  1  0.99628700  0.76708600  0.96808400  1
  C  417  1  0.97226900  0.77765100  0.98477000  1
  C  418  1  0.97381800  0.77161500  0.00942200  1
  C  420  1  0.99527000  0.77420000  0.94313900  1
  C  421  1  0.02405600  0.77060700  0.92719600  1
  C  422  1  0.02342900  0.77938500  0.90355800  1
  C  423  1  0.99397200  0.79226600  0.89495500  1
  C  424  1  0.96533400  0.79624000  0.91059800  1
  C  425  1  0.96557800  0.78725500  0.93433300  1
  C  430  1  0.93465600  0.79138400  0.95030900  1
  C  431  1  0.94655300  0.79607400  0.97645600  1
  C  439  1  0.99960800  0.24603300  0.87417700  1
  C  440  1  0.02179100  0.25756200  0.89081700  1
  C  441  1  0.02035900  0.25171300  0.91531000  1
  C  442  1  0.99657000  0.23415400  0.92416300  1
  C  443  1  0.97261500  0.22358600  0.90744100  1
  C  444  1  0.97420700  0.22965400  0.88279600  1
  C  446  1  0.99550500  0.22701400  0.94909700  1
  C  447  1  0.02425400  0.23059900  0.96507100  1
  C  448  1  0.02356000  0.22183300  0.98871100  1
  C  449  1  0.99408300  0.20895500  0.99727900  1
  C  450  1  0.96550600  0.20494300  0.98159300  1
  C  451  1  0.96580800  0.21393200  0.95786300  1
  C  456  1  0.93493700  0.20979200  0.94184500  1
  C  457  1  0.94691000  0.20513500  0.91570800  1
  C  465  1  0.50638000  0.57278200  0.69143500  1
  C  466  1  0.52761000  0.55565000  0.70307500  1
  C  467  1  0.52471200  0.53116100  0.69746700  1
  C  468  1  0.50037900  0.52279200  0.68001800  1
  C  469  1  0.47729900  0.54003700  0.66939500  1
  C  470  1  0.48035800  0.56467800  0.67523900  1
  C  472  1  0.49804200  0.49786400  0.67298100  1
  C  473  1  0.52598400  0.48125800  0.67662100  1
  C  474  1  0.52417300  0.45764200  0.66787600  1
  C  475  1  0.49431200  0.44968000  0.65501100  1
  C  476  1  0.46655000  0.46601200  0.65091700  1
  C  477  1  0.46797700  0.48974600  0.65987200  1
  C  482  1  0.43790700  0.50643900  0.65569600  1
  C  483  1  0.45108900  0.53231200  0.65103400  1
  C  491  1  0.50634300  0.42843900  0.20092700  1
  C  492  1  0.52758300  0.44555700  0.18927300  1
  C  493  1  0.52469900  0.47004900  0.19486500  1
  C  494  1  0.50035300  0.47844100  0.21229700  1
  C  495  1  0.47724600  0.46121100  0.22292000  1
  C  496  1  0.48028700  0.43656400  0.21709100  1
  C  498  1  0.49802900  0.50337500  0.21931400  1
  C  499  1  0.52598600  0.51996900  0.21566200  1
  C  500  1  0.52420200  0.54358500  0.22441100  1
  C  501  1  0.49436400  0.55155400  0.23729900  1
  C  502  1  0.46656600  0.53524300  0.24137500  1
  C  503  1  0.46795900  0.51151200  0.23240900  1
  C  508  1  0.43787000  0.49483400  0.23658000  1
  C  509  1  0.45102800  0.46896100  0.24126600  1
  C  517  1  0.50643800  0.25532500  0.51836900  1
  C  518  1  0.52769200  0.24370400  0.50123700  1
  C  519  1  0.52478900  0.24931700  0.47675000  1
  C  520  1  0.50038700  0.26672300  0.46837800  1
  C  521  1  0.47725700  0.27729900  0.48562000  1
  C  522  1  0.48033400  0.27146300  0.51026300  1
  C  524  1  0.49804500  0.27377200  0.44345400  1
  C  525  1  0.52599700  0.27015800  0.42684600  1
  C  526  1  0.52419100  0.27893000  0.40323900  1
  C  527  1  0.49434600  0.29183100  0.39530900  1
  C  528  1  0.46652600  0.29583800  0.41161400  1
  C  529  1  0.46794300  0.28684500  0.43533400  1
  C  534  1  0.43784400  0.29095800  0.45201800  1
  C  535  1  0.45098900  0.29562300  0.47789800  1
  C  543  1  0.50640400  0.74592100  0.37405700  1
  C  544  1  0.52761500  0.75759700  0.39117600  1
  C  545  1  0.52470400  0.75203100  0.41567200  1
  C  546  1  0.50038400  0.73458500  0.42406800  1
  C  547  1  0.47733300  0.72391300  0.40683400  1
  C  548  1  0.48040000  0.72971800  0.38218100  1
  C  550  1  0.49805000  0.72757600  0.44900600  1
  C  551  1  0.52596500  0.73128500  0.46562200  1
  C  552  1  0.52416700  0.72256500  0.48924900  1
  C  553  1  0.49438300  0.70960700  0.49718700  1
  C  554  1  0.46662100  0.70547500  0.48086800  1
  C  555  1  0.46801700  0.71443500  0.45713500  1
  C  560  1  0.43796000  0.71021600  0.44044400  1
  C  561  1  0.45115800  0.70553900  0.41457800  1
  C  569  1  0.67609800  0.27773400  0.22140400  1
  C  570  1  0.68496500  0.28176600  0.19725500  1
  C  571  1  0.71342500  0.26957700  0.18658500  1
  C  572  1  0.73317900  0.25213900  0.19938700  1
  C  573  1  0.72507400  0.24886600  0.22413800  1
  C  574  1  0.69637300  0.26119400  0.23471100  1
  C  576  1  0.76143800  0.23840500  0.18865200  1
  C  577  1  0.76573700  0.23583800  0.16349000  1
  C  578  1  0.79540200  0.22423700  0.15366400  1
  C  579  1  0.82150200  0.21437800  0.16873800  1
  C  580  1  0.81672400  0.21571200  0.19373400  1
  C  581  1  0.78656700  0.22680400  0.20376100  1
  C  586  1  0.78347400  0.22861800  0.23029200  1
  C  587  1  0.74440200  0.23047700  0.23830300  1
  C  595  1  0.67624100  0.72351700  0.67084000  1
  C  596  1  0.68509000  0.71946200  0.69499200  1
  C  597  1  0.71351500  0.73167600  0.70567200  1
  C  598  1  0.73324500  0.74914100  0.69288700  1
  C  599  1  0.72514800  0.75241600  0.66813300  1
  C  600  1  0.69651100  0.74004600  0.65752800  1
  C  602  1  0.76147000  0.76289700  0.70363700  1
  C  603  1  0.76577100  0.76544400  0.72880200  1
  C  604  1  0.79539700  0.77707700  0.73864300  1
  C  605  1  0.82151200  0.78693000  0.72357200  1
  C  606  1  0.81672200  0.78563400  0.69857600  1
  C  607  1  0.78657500  0.77454100  0.68854100  1
  C  612  1  0.78348400  0.77275900  0.66200700  1
  C  613  1  0.74441500  0.77086000  0.65400000  1
  C  621  1  0.67651100  0.72506200  0.22341500  1
  C  622  1  0.68530400  0.74923200  0.22742400  1
  C  623  1  0.71362900  0.75994400  0.21512400  1
  C  624  1  0.73331400  0.74716900  0.19762800  1
  C  625  1  0.72526900  0.72240400  0.19439400  1
  C  626  1  0.69670900  0.71177600  0.20682400  1
  C  628  1  0.76145700  0.75793800  0.18380800  1
  C  629  1  0.76570000  0.78310800  0.18125000  1
  C  630  1  0.79531000  0.79297900  0.16961700  1
  C  631  1  0.82148000  0.77790400  0.15983700  1
  C  632  1  0.81672200  0.75291100  0.16107500  1
  C  633  1  0.78656400  0.74285900  0.17214000  1
  C  638  1  0.78350800  0.71632300  0.17391200  1
  C  639  1  0.74446300  0.70828200  0.17590600  1
  C  647  1  0.67615900  0.27594900  0.66899900  1
  C  648  1  0.68511300  0.25184900  0.66479900  1
  C  649  1  0.71354900  0.24115900  0.67699700  1
  C  650  1  0.73317100  0.25388900  0.69455600  1
  C  651  1  0.72495700  0.27860800  0.69796700  1
  C  652  1  0.69631000  0.28922600  0.68562500  1
  C  654  1  0.76140100  0.24312200  0.70829000  1
  C  655  1  0.76575000  0.21794900  0.71074000  1
  C  656  1  0.79535000  0.20808800  0.72238700  1
  C  657  1  0.82137200  0.22317000  0.73231700  1
  C  658  1  0.81658900  0.24816500  0.73110400  1
  C  659  1  0.78644500  0.25820800  0.72001500  1
  C  664  1  0.78325200  0.28474200  0.71835700  1
  C  665  1  0.74415100  0.29269100  0.71648300  1
  C  673  1  0.32181300  0.71617200  0.22440900  1
  C  674  1  0.30464100  0.70794000  0.20361700  1
  C  675  1  0.27561000  0.72041000  0.19410600  1
  C  676  1  0.26341800  0.74204000  0.20460100  1
  C  677  1  0.27960000  0.74956900  0.22644300  1
  C  678  1  0.30902200  0.73700400  0.23579000  1
  C  680  1  0.23508600  0.75606800  0.19441000  1
  C  681  1  0.22404000  0.75395100  0.17015600  1
  C  682  1  0.19467500  0.76666200  0.16133600  1
  C  683  1  0.17581800  0.78229800  0.17645900  1
  C  684  1  0.18743300  0.78548000  0.20022600  1
  C  685  1  0.21731900  0.77316000  0.20908300  1
  C  690  1  0.22786000  0.77641400  0.23457900  1
  C  691  1  0.26797800  0.77220800  0.23810700  1
  C  699  1  0.32153000  0.28505400  0.66768500  1
  C  700  1  0.30440100  0.29326000  0.68850900  1
  C  701  1  0.27544700  0.28073200  0.69805600  1
  C  702  1  0.26337600  0.25904100  0.68761900  1
  C  703  1  0.27956300  0.25152400  0.66577000  1
  C  704  1  0.30884500  0.26417900  0.65633900  1
  C  706  1  0.23516100  0.24494100  0.69786600  1
  C  707  1  0.22411000  0.24709400  0.72211900  1
  C  708  1  0.19482800  0.23432800  0.73098700  1
  C  709  1  0.17600800  0.21863800  0.71589500  1
  C  710  1  0.18766000  0.21540000  0.69214400  1
  C  711  1  0.21749400  0.22775400  0.68325200  1
  C  716  1  0.22803500  0.22445700  0.65776100  1
  C  717  1  0.26811300  0.22879700  0.65419900  1
  C  725  1  0.32141100  0.27928000  0.23075500  1
  C  726  1  0.30420500  0.25850200  0.23900400  1
  C  727  1  0.27533300  0.24891000  0.22642200  1
  C  728  1  0.26334300  0.25930500  0.20469200  1
  C  729  1  0.27955800  0.28113500  0.19715900  1
  C  730  1  0.30883200  0.29056500  0.20982000  1
  C  732  1  0.23517900  0.24903400  0.19056500  1
  C  733  1  0.22411500  0.22478500  0.19275400  1
  C  734  1  0.19484500  0.21590000  0.17998700  1
  C  735  1  0.17601700  0.23100800  0.16431500  1
  C  736  1  0.18772600  0.25472600  0.16098400  1
  C  737  1  0.21757100  0.26361600  0.17332200  1
  C  742  1  0.22815900  0.28909200  0.16996700  1
  C  743  1  0.26821900  0.29265900  0.17438200  1
  C  751  1  0.32143700  0.72204100  0.66156100  1
  C  752  1  0.30400700  0.74263900  0.65310400  1
  C  753  1  0.27509800  0.75223900  0.66564300  1
  C  754  1  0.26329000  0.74202000  0.68750500  1
  C  755  1  0.27972400  0.72033500  0.69524000  1
  C  756  1  0.30900900  0.71087800  0.68261000  1
  C  758  1  0.23508700  0.75231900  0.70157900  1
  C  759  1  0.22386500  0.77651500  0.69920400  1
  C  760  1  0.19462400  0.78543400  0.71198000  1
  C  761  1  0.17602700  0.77043500  0.72787800  1
  C  762  1  0.18781800  0.74675100  0.73132500  1
  C  763  1  0.21763200  0.73782500  0.71897300  1
  C  768  1  0.22841500  0.71241600  0.72252600  1
  C  769  1  0.26849900  0.70896500  0.71812100  1
  N  384  1  0.99401600  0.92857500  0.14310500  1
  N  385  1  0.00188400  0.09545100  0.19819000  1
  N  410  1  0.99395800  0.07282300  0.74900600  1
  N  411  1  0.00188100  0.90588900  0.69411100  1
  N  436  1  0.99409300  0.80355700  0.87396700  1
  N  437  1  0.00152700  0.74862800  0.04090300  1
  N  462  1  0.99411700  0.19767000  0.01826900  1
  N  463  1  0.00200900  0.25267000  0.85136500  1
  N  488  1  0.49363000  0.42874600  0.64361800  1
  N  489  1  0.51036700  0.59556200  0.69785900  1
  N  514  1  0.49373500  0.57247000  0.24872800  1
  N  515  1  0.51030900  0.40565500  0.19451000  1
  N  540  1  0.49366700  0.30321700  0.37436800  1
  N  541  1  0.51044900  0.24890700  0.54114800  1
  N  566  1  0.49374600  0.69821600  0.51812400  1
  N  567  1  0.51044600  0.75228200  0.35126200  1
  N  592  1  0.85403800  0.21046300  0.16116100  1
  N  593  1  0.64399500  0.28386800  0.22845400  1
  N  618  1  0.85404100  0.79091200  0.73114700  1
  N  619  1  0.64411900  0.71731000  0.66387100  1
  N  644  1  0.85395900  0.78559700  0.15589800  1
  N  645  1  0.64443100  0.71805400  0.22968600  1
  N  670  1  0.85389300  0.21559600  0.73637100  1
  N  671  1  0.64409600  0.28302500  0.66274900  1
  N  696  1  0.14363100  0.78992300  0.17158100  1
  N  697  1  0.35421700  0.70825500  0.22801600  1
  N  722  1  0.14381700  0.21100600  0.72076900  1
  N  723  1  0.35392100  0.29304500  0.66415700  1
  N  748  1  0.14388800  0.22605300  0.15661400  1
  N  749  1  0.35379400  0.28279200  0.23876900  1
  N  774  1  0.14388700  0.77533000  0.73561600  1
  N  775  1  0.35374100  0.71837700  0.65342400  1
