# generated using pymatgen
data_H9C13(NO)4
_symmetry_space_group_name_H-M   'P 1'
_cell_length_a   22.38920000
_cell_length_b   60.86030000
_cell_length_c   60.86030000
_cell_angle_alpha   90.00000000
_cell_angle_beta   90.00000000
_cell_angle_gamma   90.00000000
_symmetry_Int_Tables_number   1
_chemical_formula_structural   H9C13(NO)4
_chemical_formula_sum   'H288 C416 N128 O128'
_cell_volume   82929.06205836
_cell_formula_units_Z   32
loop_
 _symmetry_equiv_pos_site_id
 _symmetry_equiv_pos_as_xyz
  1  'x, y, z'
loop_
 _atom_site_type_symbol
 _atom_site_label
 _atom_site_symmetry_multiplicity
 _atom_site_fract_x
 _atom_site_fract_y
 _atom_site_fract_z
 _atom_site_occupancy
  C  1  1  0.27946500  0.08468400  0.00344600  1
  C  2  1  0.32118100  0.06714500  0.00215900  1
  C  3  1  0.37628000  0.06871200  0.99073500  1
  C  4  1  0.38817300  0.08894500  0.98008400  1
  C  5  1  0.34846300  0.10689400  0.98101600  1
  C  6  1  0.29452600  0.10484500  0.99298900  1
  C  9  1  0.22577800  0.08220500  0.01581100  1
  C  10  1  0.18790400  0.06341800  0.01407400  1
  C  11  1  0.13562500  0.06109900  0.02733200  1
  C  12  1  0.12566400  0.07729800  0.04366500  1
  C  13  1  0.16152100  0.09622400  0.04572000  1
  C  14  1  0.21054700  0.09856300  0.03140500  1
  C  21  1  0.14782900  0.11213200  0.06215300  1
  C  22  1  0.09328600  0.04369600  0.02533500  1
  C  23  1  0.41844200  0.05119600  0.98927900  1
  C  24  1  0.36251000  0.12613800  0.96890600  1
  C  29  1  0.77948400  0.41526100  0.99653000  1
  C  30  1  0.82117200  0.43280600  0.99783300  1
  C  31  1  0.87623600  0.43124900  0.00928100  1
  C  32  1  0.88808000  0.41102800  0.01995700  1
  C  33  1  0.84839200  0.39307400  0.01902300  1
  C  34  1  0.79450400  0.39511000  0.00701500  1
  C  37  1  0.72585900  0.41773400  0.98412800  1
  C  38  1  0.68794400  0.43651000  0.98585500  1
  C  39  1  0.63569000  0.43881700  0.97257900  1
  C  40  1  0.62580200  0.42261600  0.95624300  1
  C  41  1  0.66167600  0.40369500  0.95420200  1
  C  42  1  0.71071400  0.40138000  0.96851700  1
  C  49  1  0.64805000  0.38778200  0.93776900  1
  C  50  1  0.59335400  0.45622200  0.97456400  1
  C  51  1  0.91839400  0.44876700  0.01073600  1
  C  52  1  0.86236200  0.37384500  0.03116400  1
  C  57  1  0.52862200  0.24676500  0.83730700  1
  C  58  1  0.57052000  0.24807600  0.81983900  1
  C  59  1  0.62547600  0.25957700  0.82147700  1
  C  60  1  0.63695900  0.27031900  0.84169000  1
  C  61  1  0.59704600  0.26935000  0.85957600  1
  C  62  1  0.54331200  0.25726300  0.85747900  1
  C  65  1  0.47519800  0.23428300  0.83472700  1
  C  66  1  0.43754600  0.23598300  0.81588000  1
  C  67  1  0.38577000  0.22250000  0.81337000  1
  C  68  1  0.37622600  0.20598000  0.82940200  1
  C  69  1  0.41188600  0.20395100  0.84837600  1
  C  70  1  0.46028400  0.21852000  0.85096200  1
  C  77  1  0.39867800  0.18726200  0.86406300  1
  C  78  1  0.34356400  0.22446500  0.79592600  1
  C  79  1  0.66780000  0.26102300  0.80402000  1
  C  80  1  0.61059800  0.28159900  0.87877200  1
  C  85  1  0.02859900  0.25314700  0.16266500  1
  C  86  1  0.07051600  0.25184900  0.18012900  1
  C  87  1  0.12544400  0.24033200  0.17849600  1
  C  88  1  0.13686000  0.22954700  0.15830200  1
  C  89  1  0.09692100  0.23049400  0.14042300  1
  C  90  1  0.04321800  0.24260500  0.14251000  1
  C  93  1  0.97522000  0.26565400  0.16524400  1
  C  94  1  0.93757800  0.26395900  0.18409200  1
  C  95  1  0.88581600  0.27744700  0.18660300  1
  C  96  1  0.87626200  0.29396500  0.17056800  1
  C  97  1  0.91188200  0.29597100  0.15158000  1
  C  98  1  0.96031200  0.28141300  0.14900900  1
  C  105  1  0.89864400  0.31264400  0.13588200  1
  C  106  1  0.84365600  0.27548400  0.20406100  1
  C  107  1  0.16779000  0.23890600  0.19594900  1
  C  108  1  0.11036200  0.21819200  0.12125300  1
  C  113  1  0.71981600  0.91189700  0.99697400  1
  C  114  1  0.67651400  0.92892300  0.99782300  1
  C  115  1  0.62100000  0.92673600  0.00888700  1
  C  116  1  0.61078600  0.90656200  0.01987100  1
  C  117  1  0.65228800  0.88914800  0.01942400  1
  C  118  1  0.70632200  0.89169500  0.00761900  1
  C  121  1  0.77332600  0.91479900  0.98462800  1
  C  122  1  0.81017600  0.93384400  0.98640500  1
  C  123  1  0.86227800  0.93654900  0.97312600  1
  C  124  1  0.87274200  0.92053700  0.95664900  1
  C  125  1  0.83769400  0.90141600  0.95448300  1
  C  126  1  0.78909000  0.89863200  0.96891600  1
  C  133  1  0.85167000  0.88580800  0.93779400  1
  C  134  1  0.90413700  0.95409200  0.97528300  1
  C  135  1  0.57673000  0.94358100  0.00961300  1
  C  136  1  0.63969700  0.86992400  0.03175900  1
  C  141  1  0.21987300  0.58802400  0.00289900  1
  C  142  1  0.17654600  0.57100600  0.00207600  1
  C  143  1  0.12102800  0.57319300  0.99101600  1
  C  144  1  0.11086700  0.59334900  0.97999400  1
  C  145  1  0.15240300  0.61075200  0.98040000  1
  C  146  1  0.20643400  0.60821000  0.99221400  1
  C  149  1  0.27336400  0.58512600  0.01525500  1
  C  150  1  0.31022500  0.56608500  0.01347400  1
  C  151  1  0.36235800  0.56339100  0.02674000  1
  C  152  1  0.37285900  0.57942100  0.04319700  1
  C  153  1  0.33782000  0.59854200  0.04536400  1
  C  154  1  0.28912900  0.60129700  0.03096400  1
  C  161  1  0.35180700  0.61415600  0.06205000  1
  C  162  1  0.40416000  0.54582700  0.02458600  1
  C  163  1  0.07671700  0.55636000  0.99032400  1
  C  164  1  0.13990500  0.62994800  0.96801200  1
  C  169  1  0.46953600  0.75301300  0.16559600  1
  C  170  1  0.42784400  0.75174500  0.18314100  1
  C  171  1  0.37267700  0.74037000  0.18157800  1
  C  172  1  0.36066900  0.72975200  0.16134000  1
  C  173  1  0.40033600  0.73066200  0.14338000  1
  C  174  1  0.45435400  0.74259100  0.14542800  1
  C  177  1  0.52326200  0.76535600  0.16808300  1
  C  178  1  0.56106600  0.76363800  0.18689400  1
  C  179  1  0.61327400  0.77693100  0.18924700  1
  C  180  1  0.62325600  0.79326600  0.17305700  1
  C  181  1  0.58753800  0.79526800  0.15410100  1
  C  182  1  0.53856400  0.78093500  0.15172000  1
  C  189  1  0.60133400  0.81164600  0.13816700  1
  C  190  1  0.65557000  0.77495400  0.20666200  1
  C  191  1  0.33059300  0.73892200  0.19911700  1
  C  192  1  0.38614100  0.71859400  0.12412000  1
  C  197  1  0.96966800  0.74692200  0.83430600  1
  C  198  1  0.92792000  0.74818300  0.81677900  1
  C  199  1  0.87278700  0.75957800  0.81835500  1
  C  200  1  0.86089800  0.77023700  0.83858000  1
  C  201  1  0.90063000  0.76934100  0.85652100  1
  C  202  1  0.95460800  0.75738600  0.85446600  1
  C  205  1  0.02333200  0.73455000  0.83180000  1
  C  206  1  0.06107900  0.73625700  0.81297500  1
  C  207  1  0.11325300  0.72294900  0.81060400  1
  C  208  1  0.12326500  0.70661700  0.82679200  1
  C  209  1  0.08763600  0.70464200  0.84577300  1
  C  210  1  0.03865200  0.71896800  0.84815800  1
  C  217  1  0.10149200  0.68828300  0.86171800  1
  C  218  1  0.15546400  0.72492500  0.79316100  1
  C  219  1  0.83064200  0.76100700  0.80083600  1
  C  220  1  0.88658800  0.78145100  0.87576500  1
  C  225  1  0.78000200  0.58439400  0.50349900  1
  C  226  1  0.82176200  0.56687400  0.50226900  1
  C  227  1  0.87699000  0.56846900  0.49094300  1
  C  228  1  0.88900200  0.58871100  0.48034100  1
  C  229  1  0.84924800  0.60664700  0.48121400  1
  C  230  1  0.79515600  0.60457000  0.49309200  1
  C  233  1  0.72626100  0.58186900  0.51581900  1
  C  234  1  0.68861400  0.56301900  0.51412000  1
  C  235  1  0.63649900  0.56061400  0.52744600  1
  C  236  1  0.62639600  0.57678800  0.54377800  1
  C  237  1  0.66188600  0.59580300  0.54571400  1
  C  238  1  0.71082500  0.59823300  0.53137600  1
  C  245  1  0.64783400  0.61179500  0.56199200  1
  C  246  1  0.59432200  0.54317200  0.52546100  1
  C  247  1  0.91907800  0.55093600  0.48951300  1
  C  248  1  0.86335400  0.62588900  0.46911100  1
  C  253  1  0.27995700  0.91555500  0.49649300  1
  C  254  1  0.32171800  0.93307300  0.49773700  1
  C  255  1  0.37690000  0.93147800  0.50909200  1
  C  256  1  0.38883500  0.91124800  0.51972800  1
  C  257  1  0.34907100  0.89331500  0.51884900  1
  C  258  1  0.29504000  0.89538700  0.50693000  1
  C  261  1  0.22630100  0.91808000  0.48412900  1
  C  262  1  0.18863100  0.93692500  0.48581800  1
  C  263  1  0.13655800  0.93932900  0.47246800  1
  C  264  1  0.12651700  0.92315700  0.45612500  1
  C  265  1  0.16201100  0.90414000  0.45420900  1
  C  266  1  0.21094200  0.90172600  0.46855200  1
  C  273  1  0.14801900  0.88814900  0.43792600  1
  C  274  1  0.09440800  0.95678000  0.47443900  1
  C  275  1  0.41901300  0.94900500  0.51051500  1
  C  276  1  0.36307200  0.87408400  0.53098200  1
  C  281  1  0.02940700  0.74667300  0.33832700  1
  C  282  1  0.07285700  0.74747600  0.32135400  1
  C  283  1  0.12837900  0.75852100  0.32359500  1
  C  284  1  0.13843200  0.76954100  0.34376000  1
  C  285  1  0.09675700  0.76914500  0.36111400  1
  C  286  1  0.04271200  0.75735800  0.35852100  1
  C  289  1  0.97593500  0.73431800  0.33539900  1
  C  290  1  0.93919000  0.73605300  0.31632600  1
  C  291  1  0.88709300  0.72277000  0.31362700  1
  C  292  1  0.87652100  0.70634300  0.32967800  1
  C  293  1  0.91147600  0.70422000  0.34882400  1
  C  294  1  0.96011000  0.71864300  0.35159100  1
  C  301  1  0.89739800  0.68759500  0.36448600  1
  C  302  1  0.84530500  0.72490000  0.29606200  1
  C  303  1  0.17278400  0.75920500  0.30680100  1
  C  304  1  0.10911100  0.78154300  0.38031200  1
  C  309  1  0.52943400  0.75324200  0.66164300  1
  C  310  1  0.57287000  0.75242400  0.67862000  1
  C  311  1  0.62834400  0.74134400  0.67638700  1
  C  312  1  0.63833000  0.73029100  0.65623800  1
  C  313  1  0.59665800  0.73069300  0.63888200  1
  C  314  1  0.54267600  0.74252500  0.64146000  1
  C  317  1  0.47603800  0.76563700  0.66457300  1
  C  318  1  0.43928700  0.76391200  0.68364300  1
  C  319  1  0.38724000  0.77722000  0.68634900  1
  C  320  1  0.37672300  0.79366200  0.67030900  1
  C  321  1  0.41164100  0.79575600  0.65115400  1
  C  322  1  0.46025800  0.78132600  0.64838700  1
  C  329  1  0.39757100  0.81236900  0.63548200  1
  C  330  1  0.34547500  0.77509000  0.70392200  1
  C  331  1  0.67274600  0.74065700  0.69318100  1
  C  332  1  0.60891000  0.71825700  0.61970200  1
  C  337  1  0.21998100  0.41183700  0.49706000  1
  C  338  1  0.17632200  0.42873300  0.49786800  1
  C  339  1  0.12079500  0.42638700  0.50888400  1
  C  340  1  0.11093400  0.40619800  0.51987400  1
  C  341  1  0.15282100  0.38891400  0.51947200  1
  C  342  1  0.20687700  0.39160500  0.50770900  1
  C  345  1  0.27333800  0.41488000  0.48467300  1
  C  346  1  0.30967700  0.43406500  0.48632100  1
  C  347  1  0.36144100  0.43692900  0.47289800  1
  C  348  1  0.37209400  0.42093800  0.45642800  1
  C  349  1  0.33768100  0.40165600  0.45447400  1
  C  350  1  0.28937200  0.39871300  0.46900400  1
  C  357  1  0.35209000  0.38594600  0.43796400  1
  C  358  1  0.40298000  0.45456400  0.47499000  1
  C  359  1  0.07625100  0.44312500  0.50956700  1
  C  360  1  0.14066200  0.36967600  0.53183000  1
  C  365  1  0.72000000  0.08807000  0.50281600  1
  C  366  1  0.67634400  0.07117400  0.50202200  1
  C  367  1  0.62082600  0.07351200  0.49099800  1
  C  368  1  0.61100400  0.09368100  0.47997000  1
  C  369  1  0.65290600  0.11096300  0.48034800  1
  C  370  1  0.70694000  0.10828500  0.49213100  1
  C  373  1  0.77332400  0.08503500  0.51522400  1
  C  374  1  0.80969400  0.06585900  0.51357300  1
  C  375  1  0.86146400  0.06300700  0.52699200  1
  C  376  1  0.87211200  0.07900500  0.54345800  1
  C  377  1  0.83768600  0.09828500  0.54540800  1
  C  378  1  0.78932200  0.10120000  0.53090000  1
  C  385  1  0.85206800  0.11399400  0.56192300  1
  C  386  1  0.90296600  0.04535900  0.52490400  1
  C  387  1  0.57626400  0.05677800  0.49034100  1
  C  388  1  0.64082200  0.13017300  0.46794200  1
  C  393  1  0.96885600  0.25320800  0.66470300  1
  C  394  1  0.92555800  0.25236800  0.68172900  1
  C  395  1  0.86989800  0.24141700  0.67950100  1
  C  396  1  0.85945700  0.23056100  0.65928100  1
  C  397  1  0.90092200  0.23099600  0.64186200  1
  C  398  1  0.95517000  0.24266700  0.64446200  1
  C  401  1  0.02247900  0.26548400  0.66763100  1
  C  402  1  0.05916200  0.26375800  0.68672400  1
  C  403  1  0.11132600  0.27700800  0.68942000  1
  C  404  1  0.12222400  0.29335600  0.67332400  1
  C  405  1  0.08756900  0.29535000  0.65410700  1
  C  406  1  0.03868000  0.28104500  0.65138100  1
  C  413  1  0.10235800  0.31162400  0.63819600  1
  C  414  1  0.15301900  0.27485900  0.70700000  1
  C  415  1  0.82570600  0.24068600  0.69636600  1
  C  416  1  0.88805800  0.21884700  0.62254200  1
  C  421  1  0.46892800  0.24673100  0.33520700  1
  C  422  1  0.42560700  0.24758400  0.31819300  1
  C  423  1  0.36999900  0.25856800  0.32042700  1
  C  424  1  0.35966900  0.26946200  0.34063400  1
  C  425  1  0.40117700  0.26902100  0.35804300  1
  C  426  1  0.45535400  0.25730600  0.35544000  1
  C  429  1  0.52247000  0.23441200  0.33226600  1
  C  430  1  0.55913200  0.23612600  0.31316700  1
  C  431  1  0.61125000  0.22285600  0.31045900  1
  C  432  1  0.62214000  0.20650300  0.32655100  1
  C  433  1  0.58753800  0.20453700  0.34578600  1
  C  434  1  0.53865800  0.21884200  0.34851000  1
  C  441  1  0.60235800  0.18827900  0.36170700  1
  C  442  1  0.65288600  0.22500200  0.29286100  1
  C  443  1  0.32576500  0.25929700  0.30357700  1
  C  444  1  0.38845600  0.28121000  0.37734800  1
  C  449  1  0.95684100  0.98157600  0.99755100  1
  C  451  1  0.02863400  0.00701800  0.98259800  1
  C  452  1  0.04101500  0.01576100  0.00360900  1
  C  454  1  0.96996100  0.99004200  0.01871400  1
  C  457  1  0.97721200  0.96690800  0.04929200  1
  C  465  1  0.45683200  0.51833300  0.00232600  1
  C  467  1  0.52854000  0.49287000  0.01729500  1
  C  468  1  0.54097000  0.48413400  0.99628700  1
  C  470  1  0.46998200  0.50986800  0.98116600  1
  C  473  1  0.47732800  0.53300800  0.95059600  1
  C  481  1  0.20609100  0.25245500  0.73423800  1
  C  483  1  0.27749100  0.26737800  0.75983200  1
  C  484  1  0.29058300  0.24630800  0.76827800  1
  C  486  1  0.21993700  0.23123600  0.74239600  1
  C  489  1  0.22814700  0.20113600  0.71868700  1
  C  497  1  0.70609500  0.24743700  0.26568900  1
  C  499  1  0.77738000  0.23252300  0.24004700  1
  C  500  1  0.79058600  0.25360600  0.23165700  1
  C  502  1  0.72006200  0.26866800  0.25758800  1
  C  505  1  0.72845800  0.29868900  0.28138400  1
  C  513  1  0.03604400  0.52091600  0.00254300  1
  C  515  1  0.95382600  0.50259400  0.98475700  1
  C  516  1  0.95587600  0.48506700  0.99995800  1
  C  518  1  0.03692000  0.50371500  0.01825100  1
  C  521  1  0.05199000  0.51227500  0.05526900  1
  C  529  1  0.53607600  0.97903900  0.99742900  1
  C  531  1  0.45384800  0.99735200  0.01522400  1
  C  532  1  0.45590800  0.01489100  0.00003600  1
  C  534  1  0.53696000  0.99625400  0.98173400  1
  C  537  1  0.55204800  0.98771700  0.94471200  1
  C  545  1  0.78535200  0.25283800  0.73186200  1
  C  547  1  0.70370600  0.23486900  0.75033000  1
  C  548  1  0.70553200  0.25015200  0.76778800  1
  C  550  1  0.78605400  0.26860500  0.74901100  1
  C  553  1  0.80022000  0.30561500  0.74020400  1
  C  561  1  0.28533000  0.24712200  0.26810100  1
  C  563  1  0.20376800  0.26511200  0.24960600  1
  C  564  1  0.20553600  0.24980500  0.23216800  1
  C  566  1  0.28596700  0.23133000  0.25097500  1
  C  569  1  0.29997900  0.19432400  0.25983100  1
  C  577  1  0.79253000  0.74716200  0.26860400  1
  C  579  1  0.72059800  0.73220300  0.24322300  1
  C  580  1  0.70809200  0.75321600  0.23451300  1
  C  582  1  0.77931800  0.76832700  0.26016500  1
  C  585  1  0.77219800  0.79888400  0.28333100  1
  C  593  1  0.29250700  0.75278500  0.73128800  1
  C  595  1  0.22070100  0.76773200  0.75672400  1
  C  596  1  0.20806000  0.74670400  0.76536600  1
  C  598  1  0.27914000  0.73160500  0.73965700  1
  C  601  1  0.27178200  0.70113400  0.71638700  1
  C  609  1  0.21352800  0.74697700  0.27138100  1
  C  611  1  0.29546400  0.76485500  0.25298400  1
  C  612  1  0.29342800  0.74964500  0.23546600  1
  C  614  1  0.21272700  0.73124400  0.25420000  1
  C  617  1  0.19810400  0.69422100  0.26284100  1
  C  625  1  0.71351400  0.75290500  0.72859200  1
  C  627  1  0.79534400  0.73499800  0.74701900  1
  C  628  1  0.79338200  0.75024000  0.76451200  1
  C  630  1  0.71277600  0.76866400  0.74574900  1
  C  633  1  0.69833200  0.80568200  0.73704700  1
  C  641  1  0.45648800  0.48168200  0.49740000  1
  C  643  1  0.52833000  0.50712700  0.48250400  1
  C  644  1  0.54140800  0.51556500  0.50357800  1
  C  646  1  0.47033800  0.48982700  0.51862200  1
  C  649  1  0.47805600  0.46620900  0.54881000  1
  C  657  1  0.95650200  0.01825200  0.50249400  1
  C  659  1  0.02822400  0.99277100  0.51740300  1
  C  660  1  0.04138200  0.98435500  0.49632900  1
  C  662  1  0.97041800  0.01012500  0.48127000  1
  C  665  1  0.97829400  0.03377000  0.45110900  1
  C  673  1  0.53550800  0.02136900  0.50257600  1
  C  675  1  0.45394600  0.00288200  0.48458200  1
  C  676  1  0.45597400  0.98537700  0.49980700  1
  C  678  1  0.53628100  0.00420600  0.51832500  1
  C  681  1  0.55051200  0.01287300  0.55536200  1
  C  689  1  0.03550400  0.47855200  0.49737700  1
  C  691  1  0.95390200  0.49701400  0.51537400  1
  C  692  1  0.95596800  0.51454300  0.50017700  1
  C  694  1  0.03630800  0.49573700  0.48165200  1
  C  697  1  0.05061300  0.48711900  0.44460900  1
  C  705  1  0.34780200  0.14591600  0.93471000  1
  C  707  1  0.40018400  0.17878200  0.92451900  1
  C  708  1  0.38534300  0.17569300  0.90217500  1
  C  710  1  0.33221500  0.14285700  0.91239000  1
  C  713  1  0.33408500  0.10742000  0.89753600  1
  C  721  1  0.84741800  0.35389400  0.06521900  1
  C  723  1  0.89988400  0.32105000  0.07541100  1
  C  724  1  0.88515400  0.32416600  0.09776300  1
  C  726  1  0.83192800  0.35697800  0.08754300  1
  C  729  1  0.83386200  0.39244700  0.10232000  1
  C  737  1  0.59687800  0.31639000  0.89763700  1
  C  739  1  0.64904000  0.32713000  0.93037900  1
  C  740  1  0.63485600  0.34946000  0.92677200  1
  C  742  1  0.58204400  0.33870000  0.89403500  1
  C  745  1  0.58499200  0.35270000  0.85826300  1
  C  753  1  0.09638600  0.18352400  0.10223800  1
  C  755  1  0.14850000  0.17279400  0.06948600  1
  C  756  1  0.13448800  0.15045500  0.07313000  1
  C  758  1  0.08171700  0.16120600  0.10587800  1
  C  761  1  0.08491700  0.14730100  0.14168400  1
  C  769  1  0.65364200  0.85141100  0.06670100  1
  C  771  1  0.60275000  0.81840900  0.07745700  1
  C  772  1  0.61573400  0.82234400  0.09982700  1
  C  774  1  0.66739800  0.85532200  0.08905200  1
  C  777  1  0.66204700  0.89117400  0.10275900  1
  C  785  1  0.15414300  0.64861700  0.93320000  1
  C  787  1  0.10325600  0.68161400  0.92243900  1
  C  788  1  0.11607400  0.67763800  0.90006300  1
  C  790  1  0.16774700  0.64466400  0.91084400  1
  C  793  1  0.16219900  0.60878100  0.89722700  1
  C  801  1  0.40130000  0.68458800  0.10402700  1
  C  803  1  0.34840900  0.67449800  0.07123800  1
  C  804  1  0.36429300  0.65220500  0.07398600  1
  C  806  1  0.41791700  0.66232200  0.10674200  1
  C  809  1  0.41777700  0.64702500  0.14199800  1
  C  817  1  0.90184600  0.81536900  0.89594600  1
  C  819  1  0.84908400  0.82543500  0.92876500  1
  C  820  1  0.86457400  0.84775500  0.92592900  1
  C  822  1  0.91808600  0.83766000  0.89314300  1
  C  825  1  0.91736600  0.85281700  0.85782700  1
  C  833  1  0.84801600  0.64587800  0.43506100  1
  C  835  1  0.90092600  0.67861800  0.42484500  1
  C  836  1  0.88490900  0.67580900  0.40257500  1
  C  838  1  0.83125800  0.64310400  0.41281800  1
  C  841  1  0.83120400  0.60781400  0.39759800  1
  C  849  1  0.34754300  0.85394600  0.56490100  1
  C  851  1  0.40043800  0.82120100  0.57509800  1
  C  852  1  0.38470900  0.82407300  0.59739000  1
  C  854  1  0.33104800  0.85677900  0.58716100  1
  C  857  1  0.33135900  0.89211200  0.60227800  1
  C  865  1  0.09490800  0.81653100  0.39865100  1
  C  867  1  0.14541800  0.82740700  0.43168200  1
  C  868  1  0.13291300  0.84977400  0.42753700  1
  C  870  1  0.08156700  0.83887900  0.39453800  1
  C  873  1  0.08780200  0.85235400  0.35861700  1
  C  881  1  0.59434000  0.68342100  0.60117900  1
  C  883  1  0.64481800  0.67254700  0.56814600  1
  C  884  1  0.63253800  0.65017100  0.57234200  1
  C  886  1  0.58121400  0.66106800  0.60534400  1
  C  889  1  0.58775200  0.64775400  0.64131800  1
  C  897  1  0.15525800  0.35122400  0.56672600  1
  C  899  1  0.10503800  0.31810200  0.57748700  1
  C  900  1  0.11759700  0.32217100  0.59986400  1
  C  902  1  0.16866700  0.35525800  0.58908200  1
  C  905  1  0.16222600  0.39114000  0.60265300  1
  C  913  1  0.65572200  0.14879700  0.43318700  1
  C  915  1  0.60550200  0.18191500  0.42242800  1
  C  916  1  0.61783800  0.17779400  0.40004300  1
  C  918  1  0.66892000  0.14471000  0.41082600  1
  C  921  1  0.66221200  0.10879200  0.39737100  1
  C  929  1  0.90395800  0.18468700  0.60291700  1
  C  931  1  0.85280000  0.17449000  0.56980900  1
  C  932  1  0.86688600  0.15211700  0.57314600  1
  C  934  1  0.91900200  0.16234700  0.60618400  1
  C  937  1  0.91529800  0.14761600  0.64165800  1
  C  945  1  0.40460600  0.31524300  0.39710100  1
  C  947  1  0.35359400  0.32542900  0.43023800  1
  C  948  1  0.36728400  0.34782100  0.42681000  1
  C  950  1  0.41926000  0.33760100  0.39374100  1
  C  953  1  0.41494600  0.35213800  0.35819600  1
  H  7  1  0.31128400  0.05301600  0.01033700  1
  H  8  1  0.42673200  0.09084000  0.97125800  1
  H  15  1  0.08859500  0.07625700  0.05344800  1
  H  16  1  0.23906600  0.11146800  0.03395000  1
  H  19  1  0.27018000  0.13379200  0.00079600  1
  H  20  1  0.21276300  0.03441600  0.00684300  1
  H  35  1  0.81131800  0.44692400  0.98962100  1
  H  36  1  0.92662600  0.40914700  0.02881400  1
  H  43  1  0.58870800  0.42364700  0.94645500  1
  H  44  1  0.73921400  0.38846700  0.96602300  1
  H  47  1  0.77022800  0.36615700  0.99920400  1
  H  48  1  0.71275400  0.46551400  0.99309800  1
  H  63  1  0.56083800  0.23987100  0.80570100  1
  H  64  1  0.67540200  0.27923000  0.84362100  1
  H  71  1  0.33953000  0.19600500  0.82819500  1
  H  72  1  0.48870400  0.21602800  0.86389500  1
  H  75  1  0.51869200  0.24939600  0.88636600  1
  H  76  1  0.46248600  0.24351200  0.78695700  1
  H  91  1  0.06089100  0.26009400  0.19424800  1
  H  92  1  0.17527300  0.22061500  0.15638300  1
  H  99  1  0.83954400  0.30392900  0.17177400  1
  H  100  1  0.98866800  0.28385300  0.13604600  1
  H  103  1  0.01858000  0.25043800  0.11361600  1
  H  104  1  0.96253600  0.25643700  0.21301700  1
  H  119  1  0.68557200  0.94309100  0.98957000  1
  H  120  1  0.57204400  0.90427800  0.02850100  1
  H  127  1  0.90964400  0.92187200  0.94681300  1
  H  128  1  0.76111800  0.88556500  0.96636900  1
  H  131  1  0.73351900  0.86302900  0.00009900  1
  H  132  1  0.78367800  0.96263300  0.99367000  1
  H  147  1  0.18556300  0.55685400  0.01036900  1
  H  148  1  0.07212000  0.59562300  0.97135000  1
  H  155  1  0.40982800  0.57809100  0.05301100  1
  H  156  1  0.26118900  0.61437300  0.03347000  1
  H  159  1  0.23367600  0.63688000  0.99969300  1
  H  160  1  0.28366800  0.53729500  0.00623900  1
  H  175  1  0.43780900  0.75990300  0.19727800  1
  H  176  1  0.32202500  0.72095500  0.15945300  1
  H  183  1  0.66030600  0.80307600  0.17411400  1
  H  184  1  0.51015600  0.78346500  0.13878700  1
  H  187  1  0.47862800  0.75040100  0.11647100  1
  H  188  1  0.53622800  0.75637900  0.21589300  1
  H  203  1  0.93779200  0.73998500  0.80265700  1
  H  204  1  0.82228500  0.77905700  0.84047000  1
  H  211  1  0.16033100  0.69681300  0.82572300  1
  H  212  1  0.01033900  0.71649400  0.86112800  1
  H  215  1  0.97896400  0.74960200  0.88341900  1
  H  216  1  0.03616400  0.74351500  0.78398300  1
  H  231  1  0.81179400  0.55273000  0.51041500  1
  H  232  1  0.92768800  0.59061200  0.47156500  1
  H  239  1  0.58935400  0.57569700  0.55359400  1
  H  240  1  0.73908000  0.61121300  0.53388400  1
  H  243  1  0.77070200  0.63352300  0.50084400  1
  H  244  1  0.71350000  0.53402300  0.50683600  1
  H  259  1  0.31181300  0.94720300  0.48955700  1
  H  260  1  0.42747900  0.90935500  0.52852900  1
  H  267  1  0.08948000  0.92424700  0.44630900  1
  H  268  1  0.23917500  0.88872900  0.46609700  1
  H  271  1  0.27061700  0.86643100  0.49917600  1
  H  272  1  0.21350000  0.96591800  0.49311800  1
  H  287  1  0.06389200  0.73920500  0.30718400  1
  H  288  1  0.17718800  0.77817100  0.34607300  1
  H  295  1  0.83957900  0.69651400  0.32834700  1
  H  296  1  0.98803000  0.71612600  0.36467000  1
  H  299  1  0.01519900  0.74992800  0.38717400  1
  H  300  1  0.96584600  0.74323500  0.28753600  1
  H  315  1  0.56396400  0.76072800  0.69277400  1
  H  316  1  0.67704000  0.72162500  0.65393900  1
  H  323  1  0.33978500  0.80349600  0.67164500  1
  H  324  1  0.48812000  0.78378600  0.63528100  1
  H  327  1  0.51522200  0.74995600  0.61280200  1
  H  328  1  0.46590400  0.75670200  0.71243400  1
  H  343  1  0.18513900  0.44292600  0.48962000  1
  H  344  1  0.07216900  0.40381700  0.52848400  1
  H  351  1  0.40884400  0.42237600  0.44651000  1
  H  352  1  0.26183900  0.38550800  0.46656500  1
  H  355  1  0.23471200  0.36299100  0.50029000  1
  H  356  1  0.28280700  0.46281100  0.49360400  1
  H  371  1  0.68513000  0.05699900  0.51030800  1
  H  372  1  0.57226200  0.09604600  0.47134200  1
  H  379  1  0.90889800  0.07757400  0.55335900  1
  H  380  1  0.76180000  0.11441700  0.53329700  1
  H  383  1  0.73476000  0.13690700  0.49952800  1
  H  384  1  0.78281600  0.03711100  0.50629600  1
  H  399  1  0.93471800  0.26054300  0.69593500  1
  H  400  1  0.82053800  0.22202500  0.65697400  1
  H  407  1  0.15932200  0.30311700  0.67462100  1
  H  408  1  0.01100000  0.28355300  0.63823100  1
  H  411  1  0.98233000  0.25015000  0.61576500  1
  H  412  1  0.03267300  0.25660700  0.71555100  1
  H  427  1  0.43467900  0.23937100  0.30400000  1
  H  428  1  0.32080600  0.27803200  0.34294000  1
  H  435  1  0.65923800  0.19674400  0.32524700  1
  H  436  1  0.51105000  0.21639100  0.36169100  1
  H  439  1  0.48253200  0.24982800  0.38413600  1
  H  440  1  0.53261400  0.24328700  0.28434500  1
  H  455  1  0.04933200  0.01287100  0.96883600  1
  H  458  1  0.01927300  0.97403400  0.05499600  1
  H  459  1  0.98649000  0.95232900  0.03936300  1
  H  460  1  0.95167800  0.96179000  0.06364700  1
  H  462  1  0.10021900  0.03778000  0.99306200  1
  H  464  1  0.89682600  0.95955000  0.00754500  1
  H  471  1  0.54920200  0.48701100  0.03106400  1
  H  474  1  0.51939400  0.52587700  0.94490200  1
  H  475  1  0.48659200  0.54758400  0.96053000  1
  H  476  1  0.45183000  0.53813100  0.93623300  1
  H  478  1  0.60015600  0.46211900  0.00684900  1
  H  480  1  0.39684200  0.54036600  0.99232200  1
  H  487  1  0.29775100  0.28115400  0.76586700  1
  H  490  1  0.27057300  0.19556300  0.72561600  1
  H  491  1  0.23672700  0.21138100  0.70426900  1
  H  492  1  0.20317300  0.18672000  0.71336500  1
  H  494  1  0.34940100  0.25684400  0.79044200  1
  H  496  1  0.14613400  0.24252600  0.71215100  1
  H  503  1  0.79755400  0.21874900  0.23397400  1
  H  506  1  0.77092600  0.30424300  0.27447600  1
  H  507  1  0.73695800  0.28839500  0.29577400  1
  H  508  1  0.70357600  0.31311200  0.28674700  1
  H  510  1  0.84935600  0.24308600  0.20947500  1
  H  512  1  0.64618600  0.25735300  0.28779900  1
  H  519  1  0.92385000  0.50274300  0.97210500  1
  H  522  1  0.01304700  0.50300600  0.06087100  1
  H  523  1  0.03975200  0.52955600  0.05313900  1
  H  524  1  0.08611500  0.51134000  0.06798500  1
  H  526  1  0.88812000  0.46856000  0.98679500  1
  H  528  1  0.10576600  0.53708800  0.01474400  1
  H  535  1  0.42387000  0.99719200  0.02787100  1
  H  538  1  0.51310000  0.99698500  0.93911500  1
  H  539  1  0.53981800  0.97043400  0.94683100  1
  H  540  1  0.58617200  0.98866100  0.93199700  1
  H  542  1  0.38812500  0.03138700  0.01319600  1
  H  544  1  0.60578400  0.96287400  0.98521400  1
  H  551  1  0.67399000  0.22213300  0.75025500  1
  H  554  1  0.76115800  0.31114600  0.74944300  1
  H  555  1  0.78801800  0.30333400  0.72293800  1
  H  556  1  0.83403600  0.31844600  0.74105200  1
  H  558  1  0.63809400  0.23687500  0.78436400  1
  H  560  1  0.85474800  0.26515200  0.71558300  1
  H  567  1  0.17410200  0.27786400  0.24966500  1
  H  570  1  0.26088900  0.18880300  0.25060200  1
  H  571  1  0.28778300  0.19663600  0.27709500  1
  H  572  1  0.33373700  0.18147100  0.25900100  1
  H  574  1  0.13816000  0.26309400  0.21557200  1
  H  576  1  0.35465900  0.23478400  0.28439400  1
  H  583  1  0.69988200  0.71843800  0.23738000  1
  H  586  1  0.73005300  0.80457600  0.27626200  1
  H  587  1  0.76309200  0.78894300  0.29791500  1
  H  588  1  0.79773800  0.81324800  0.28842500  1
  H  590  1  0.64880800  0.74266400  0.21252500  1
  H  592  1  0.85261200  0.75716400  0.29060000  1
  H  599  1  0.20009600  0.78150000  0.76261600  1
  H  602  1  0.22959900  0.69546000  0.72343900  1
  H  603  1  0.26274100  0.71113400  0.70183700  1
  H  604  1  0.29721500  0.68676300  0.71124200  1
  H  606  1  0.14886500  0.75724000  0.78738900  1
  H  608  1  0.35254600  0.74280000  0.70926700  1
  H  615  1  0.32530500  0.77755000  0.25309500  1
  H  618  1  0.23708400  0.68866400  0.25356900  1
  H  619  1  0.21036400  0.69640500  0.28011400  1
  H  620  1  0.16412400  0.68145100  0.26194400  1
  H  622  1  0.36098300  0.76286200  0.21889000  1
  H  624  1  0.14393500  0.73471900  0.28757800  1
  H  631  1  0.82512600  0.72228200  0.74693100  1
  H  634  1  0.73734000  0.81122900  0.74631100  1
  H  635  1  0.71058800  0.80346200  0.71977800  1
  H  636  1  0.66441600  0.81847700  0.73792300  1
  H  638  1  0.86088000  0.73700600  0.78110200  1
  H  640  1  0.64400800  0.76519100  0.71236600  1
  H  647  1  0.54874600  0.51311600  0.46873900  1
  H  650  1  0.52047800  0.47311300  0.55442400  1
  H  651  1  0.48664100  0.45175000  0.53862200  1
  H  652  1  0.45288800  0.46095800  0.56320500  1
  H  654  1  0.60062400  0.53761700  0.49310000  1
  H  656  1  0.39652200  0.45962000  0.50734700  1
  H  663  1  0.04857300  0.98676200  0.53117200  1
  H  666  1  0.02072500  0.02686200  0.44551100  1
  H  667  1  0.98686000  0.04821800  0.46131400  1
  H  668  1  0.95319200  0.03904000  0.43670500  1
  H  670  1  0.10053700  0.96229300  0.50681500  1
  H  672  1  0.89658000  0.04033000  0.49254000  1
  H  679  1  0.42424100  0.00294800  0.47184100  1
  H  682  1  0.51155000  0.00356500  0.56087700  1
  H  683  1  0.53814800  0.03013200  0.55315700  1
  H  684  1  0.58438400  0.01201300  0.56817400  1
  H  686  1  0.38868800  0.96872700  0.48651600  1
  H  688  1  0.60487600  0.03761800  0.51491600  1
  H  695  1  0.92416900  0.49693000  0.52810500  1
  H  698  1  0.01165300  0.49643100  0.43909800  1
  H  699  1  0.03825600  0.46985700  0.44678700  1
  H  700  1  0.08450600  0.48800000  0.43180600  1
  H  702  1  0.88863800  0.53117900  0.51346300  1
  H  704  1  0.10489800  0.46232100  0.48502900  1
  H  711  1  0.42530400  0.19187700  0.92950000  1
  H  714  1  0.30392800  0.09434600  0.89237900  1
  H  715  1  0.36298700  0.10093500  0.91048200  1
  H  716  1  0.36124700  0.11217200  0.88338100  1
  H  718  1  0.41697900  0.20462900  0.89132000  1
  H  720  1  0.29563800  0.12214900  0.94732700  1
  H  727  1  0.92499000  0.30795300  0.07043100  1
  H  730  1  0.80372600  0.40552400  0.10748500  1
  H  731  1  0.86264800  0.39891200  0.08933100  1
  H  732  1  0.86114800  0.38772800  0.11645700  1
  H  734  1  0.91686200  0.29524500  0.10863400  1
  H  736  1  0.79504400  0.37759300  0.05257000  1
  H  743  1  0.67379000  0.32234500  0.94364200  1
  H  746  1  0.55522800  0.35769300  0.84500400  1
  H  747  1  0.61353200  0.33946900  0.85214500  1
  H  748  1  0.61258600  0.36683400  0.86274000  1
  H  750  1  0.66715200  0.36079700  0.95542600  1
  H  752  1  0.54493200  0.30350200  0.87394500  1
  H  759  1  0.17315600  0.17758400  0.05620400  1
  H  762  1  0.05524600  0.14229500  0.15496500  1
  H  763  1  0.11332200  0.16059100  0.14775900  1
  H  764  1  0.11265800  0.13320000  0.13722900  1
  H  766  1  0.16683000  0.13911600  0.04448400  1
  H  768  1  0.04429800  0.19643900  0.12588500  1
  H  775  1  0.57886000  0.80494100  0.07266100  1
  H  778  1  0.69093000  0.90468700  0.10777300  1
  H  779  1  0.63361800  0.89697600  0.08935800  1
  H  780  1  0.63424800  0.88660500  0.11680800  1
  H  782  1  0.58378200  0.79367200  0.11125600  1
  H  784  1  0.70449600  0.87544300  0.05385200  1
  H  791  1  0.07943200  0.69509900  0.92723500  1
  H  794  1  0.19100700  0.59524900  0.89220800  1
  H  795  1  0.13387800  0.60301900  0.91067600  1
  H  796  1  0.13428500  0.61333000  0.88320200  1
  H  798  1  0.08408100  0.70629500  0.88861800  1
  H  800  1  0.20516700  0.62463900  0.94608200  1
  H  807  1  0.32267400  0.67949300  0.05831000  1
  H  810  1  0.44855200  0.64188000  0.15488100  1
  H  811  1  0.38854000  0.65972300  0.14876500  1
  H  812  1  0.39106400  0.63277600  0.13718400  1
  H  814  1  0.33215900  0.64153200  0.04506500  1
  H  816  1  0.45346000  0.69715900  0.12782300  1
  H  823  1  0.82355800  0.82042200  0.94174100  1
  H  826  1  0.94793400  0.85799200  0.84489100  1
  H  827  1  0.88831600  0.84001800  0.85114200  1
  H  828  1  0.89042000  0.86701600  0.86261700  1
  H  830  1  0.83248200  0.85843700  0.95485400  1
  H  832  1  0.95411600  0.80279000  0.87217700  1
  H  839  1  0.92672600  0.69155000  0.42978300  1
  H  842  1  0.80036200  0.59493000  0.39251400  1
  H  843  1  0.86052600  0.60106900  0.41027900  1
  H  844  1  0.85781600  0.61259000  0.38330800  1
  H  846  1  0.91701000  0.70468800  0.39180100  1
  H  848  1  0.79595600  0.62210900  0.44772200  1
  H  855  1  0.42612500  0.80824300  0.57014900  1
  H  858  1  0.30064400  0.90503100  0.60738300  1
  H  859  1  0.36053500  0.89880500  0.58952300  1
  H  860  1  0.35814700  0.88736200  0.61653000  1
  H  862  1  0.41681800  0.79520000  0.60817800  1
  H  864  1  0.29529800  0.87766100  0.55221900  1
  H  871  1  0.16902500  0.82265800  0.44523600  1
  H  874  1  0.05925200  0.85732100  0.34499000  1
  H  875  1  0.11622100  0.83888100  0.35298200  1
  H  876  1  0.11564100  0.86639800  0.36317600  1
  H  878  1  0.16477500  0.86134000  0.45615800  1
  H  880  1  0.04425000  0.80358000  0.37462500  1
  H  887  1  0.66832200  0.67729700  0.55456700  1
  H  890  1  0.55931800  0.64277200  0.65497100  1
  H  891  1  0.61594400  0.66131700  0.64689300  1
  H  892  1  0.61583000  0.63376000  0.63680500  1
  H  894  1  0.66447600  0.63859400  0.54373600  1
  H  896  1  0.54348000  0.69641200  0.62513500  1
  H  903  1  0.08147800  0.30455200  0.57269400  1
  H  906  1  0.19070000  0.40477100  0.60766400  1
  H  907  1  0.13380200  0.39679400  0.58918900  1
  H  908  1  0.13438600  0.38652100  0.61667700  1
  H  910  1  0.08564300  0.29352300  0.61129700  1
  H  912  1  0.20562600  0.37535800  0.55383300  1
  H  919  1  0.58203600  0.19548600  0.42722100  1
  H  922  1  0.69058400  0.09513500  0.39235100  1
  H  923  1  0.63393800  0.10318800  0.41089900  1
  H  924  1  0.63421200  0.11338100  0.38338100  1
  H  926  1  0.58585000  0.20642900  0.38859200  1
  H  928  1  0.70629600  0.12472800  0.44611500  1
  H  935  1  0.82825200  0.17946800  0.55656700  1
  H  938  1  0.94479000  0.14246200  0.65494000  1
  H  939  1  0.88624000  0.16062400  0.64791200  1
  H  940  1  0.88821400  0.13348000  0.63678700  1
  H  942  1  0.83540200  0.14119100  0.54423400  1
  H  944  1  0.95480000  0.19730300  0.62705800  1
  H  951  1  0.32926600  0.32043900  0.44352900  1
  H  954  1  0.44421000  0.35731900  0.34485900  1
  H  955  1  0.38614600  0.33900800  0.35203600  1
  H  956  1  0.38756300  0.36621100  0.36302700  1
  H  958  1  0.33580100  0.35876400  0.45571800  1
  H  960  1  0.45559000  0.30260000  0.37300400  1
  N  450  1  0.98765000  0.99074800  0.98055600  1
  N  453  1  0.01039000  0.00657900  0.02061600  1
  N  461  1  0.08137100  0.03240700  0.00638900  1
  N  463  1  0.91604000  0.96510700  0.99439800  1
  N  466  1  0.48758400  0.50914700  0.01932900  1
  N  469  1  0.51039800  0.49332300  0.97927100  1
  N  477  1  0.58134200  0.46749200  0.99351200  1
  N  479  1  0.41605900  0.53481000  0.00547300  1
  N  482  1  0.23638200  0.26946000  0.74361800  1
  N  485  1  0.26050600  0.22928600  0.75887900  1
  N  493  1  0.33103400  0.24349700  0.78488200  1
  N  495  1  0.16515600  0.25566600  0.71783600  1
  N  498  1  0.73627000  0.23043100  0.25625900  1
  N  501  1  0.76062600  0.27062800  0.24110300  1
  N  509  1  0.83104400  0.25643300  0.21505800  1
  N  511  1  0.66514600  0.24421500  0.28208200  1
  N  514  1  0.99363100  0.51928500  0.98656600  1
  N  517  1  0.99782000  0.48680400  0.01605700  1
  N  525  1  0.91747200  0.46764700  0.99848400  1
  N  527  1  0.07593400  0.53794900  0.00325400  1
  N  530  1  0.49365400  0.98066000  0.01340400  1
  N  533  1  0.49786000  0.01316400  0.98393900  1
  N  541  1  0.41750000  0.03230900  0.00152000  1
  N  543  1  0.57595600  0.96200700  0.99670100  1
  N  546  1  0.74332200  0.23673700  0.73359200  1
  N  549  1  0.74710600  0.26637100  0.76596100  1
  N  557  1  0.66719200  0.24865500  0.78521700  1
  N  559  1  0.82505000  0.25360600  0.71478000  1
  N  562  1  0.24337100  0.26324400  0.26635100  1
  N  565  1  0.24703400  0.23356500  0.23402100  1
  N  573  1  0.16720900  0.25129700  0.21473600  1
  N  575  1  0.32502800  0.24635100  0.28518300  1
  N  578  1  0.76168800  0.73016400  0.25945200  1
  N  581  1  0.73875600  0.77022500  0.24367300  1
  N  589  1  0.66762200  0.75599600  0.21790900  1
  N  591  1  0.83339300  0.74401200  0.28504800  1
  N  594  1  0.26180400  0.76978500  0.74050000  1
  N  597  1  0.23858400  0.72969100  0.75614700  1
  N  605  1  0.16759700  0.74390400  0.78196800  1
  N  607  1  0.33336867  0.75595000  0.71486000  1
  N  610  1  0.25576900  0.76301000  0.26970600  1
  N  613  1  0.25168300  0.73348300  0.23725300  1
  N  621  1  0.33166500  0.75115800  0.21800400  1
  N  623  1  0.17367700  0.74624200  0.28841800  1
  N  626  1  0.75566800  0.73684400  0.73029300  1
  N  629  1  0.75172000  0.76642600  0.76270000  1
  N  637  1  0.83162800  0.74873500  0.78197200  1
  N  639  1  0.67368200  0.75364300  0.71154800  1
  N  642  1  0.48699800  0.49099200  0.48040700  1
  N  645  1  0.51110000  0.50624000  0.52058300  1
  N  653  1  0.58201800  0.53210400  0.50642400  1
  N  655  1  0.41540700  0.46533200  0.49419400  1
  N  658  1  0.98691800  0.00891700  0.51949500  1
  N  661  1  0.01116500  0.99370400  0.47931400  1
  N  669  1  0.08199500  0.96781700  0.49348500  1
  N  671  1  0.91544200  0.03461000  0.50569400  1
  N  674  1  0.49348400  0.01964700  0.48647300  1
  N  677  1  0.49750400  0.98721600  0.51603600  1
  N  685  1  0.41789800  0.96787800  0.49825900  1
  N  687  1  0.57526800  0.03842600  0.50334200  1
  N  690  1  0.99343900  0.48024900  0.51346800  1
  N  693  1  0.99753000  0.51272500  0.48395800  1
  N  701  1  0.91790200  0.53204500  0.50173900  1
  N  703  1  0.07526800  0.46149600  0.49659300  1
  N  706  1  0.38132700  0.16393500  0.93965100  1
  N  709  1  0.35131300  0.15778800  0.89741500  1
  N  717  1  0.40284700  0.19035700  0.88623000  1
  N  719  1  0.33051200  0.13122300  0.95056300  1
  N  722  1  0.88093400  0.33587400  0.06027300  1
  N  725  1  0.85112400  0.34207000  0.10252500  1
  N  733  1  0.90274800  0.30952200  0.11371600  1
  N  735  1  0.82999800  0.36855600  0.04936000  1
  N  738  1  0.62997800  0.31173900  0.91583700  1
  N  741  1  0.60130800  0.35393700  0.90867300  1
  N  749  1  0.65257800  0.36565900  0.94113500  1
  N  751  1  0.57936000  0.30027800  0.88325400  1
  N  754  1  0.12937900  0.18818800  0.08401400  1
  N  757  1  0.10104000  0.14596700  0.09125200  1
  N  765  1  0.15226600  0.13425700  0.05877600  1
  N  767  1  0.07876700  0.19964100  0.11659400  1
  N  770  1  0.62170200  0.83293600  0.06203900  1
  N  773  1  0.64818800  0.84070800  0.10432300  1
  N  781  1  0.59782800  0.80805800  0.11605800  1
  N  783  1  0.67079600  0.86580600  0.05055300  1
  N  786  1  0.12228300  0.66711000  0.93786500  1
  N  789  1  0.14845700  0.65925600  0.89556800  1
  N  797  1  0.09808500  0.69190100  0.88382500  1
  N  799  1  0.17141700  0.63425500  0.94935700  1
  N  802  1  0.36705100  0.68955000  0.08619900  1
  N  805  1  0.39902900  0.64742100  0.09169900  1
  N  813  1  0.34692600  0.63634100  0.05921000  1
  N  815  1  0.41838400  0.70036200  0.11884200  1
  N  818  1  0.86784200  0.81037900  0.91382900  1
  N  821  1  0.89907800  0.85256400  0.90816200  1
  N  829  1  0.84709200  0.86362100  0.94068400  1
  N  831  1  0.91907200  0.79958700  0.88116800  1
  N  834  1  0.88233600  0.66370700  0.43995000  1
  N  837  1  0.85009800  0.65809800  0.39786100  1
  N  845  1  0.90224400  0.69052600  0.38665900  1
  N  847  1  0.83102200  0.63110800  0.45088400  1
  N  850  1  0.38172400  0.83608900  0.55998800  1
  N  853  1  0.35002200  0.84181200  0.60212000  1
  N  861  1  0.40217700  0.80938500  0.61331000  1
  N  863  1  0.33040500  0.86868300  0.54907300  1
  N  866  1  0.12645300  0.81192700  0.41723000  1
  N  869  1  0.10083000  0.85421400  0.40907300  1
  N  877  1  0.15098300  0.86606600  0.44171200  1
  N  879  1  0.07784700  0.80032000  0.38432500  1
  N  882  1  0.62576200  0.68803500  0.58257400  1
  N  885  1  0.60057000  0.64572800  0.59083200  1
  N  893  1  0.65069400  0.63387700  0.55818500  1
  N  895  1  0.57715400  0.69964200  0.61546900  1
  N  898  1  0.12383300  0.33263400  0.56205800  1
  N  901  1  0.14955400  0.34064800  0.60437000  1
  N  909  1  0.09953500  0.30793000  0.61609300  1
  N  911  1  0.17209600  0.36563100  0.55056100  1
  N  914  1  0.62440400  0.16740800  0.43786400  1
  N  917  1  0.64970200  0.15929600  0.39553200  1
  N  925  1  0.59967400  0.19200900  0.38380500  1
  N  927  1  0.67270400  0.13442700  0.44936200  1
  N  930  1  0.87134400  0.18963400  0.58467900  1
  N  933  1  0.90009000  0.14734100  0.59125300  1
  N  941  1  0.84913000  0.13614700  0.55857600  1
  N  943  1  0.92052400  0.20055400  0.61768500  1
  N  946  1  0.37225100  0.31027500  0.41539600  1
  N  949  1  0.40023900  0.35261400  0.40864400  1
  N  957  1  0.34941300  0.36379700  0.44135500  1
  N  959  1  0.42131000  0.29936300  0.38237300  1
  O  17  1  0.25367600  0.12152300  0.99219200  1
  O  18  1  0.20215600  0.04788000  0.99877800  1
  O  25  1  0.12794500  0.10421200  0.08163800  1
  O  26  1  0.05785300  0.03961300  0.04299200  1
  O  27  1  0.41731800  0.13495500  0.97224400  1
  O  28  1  0.46492000  0.05396000  0.97520100  1
  O  45  1  0.75365000  0.37843200  0.00777700  1
  O  46  1  0.70212400  0.45204900  0.00115900  1
  O  53  1  0.62816000  0.39569700  0.91828200  1
  O  54  1  0.55787600  0.46027100  0.95691000  1
  O  55  1  0.91738000  0.36513600  0.02797800  1
  O  56  1  0.96481400  0.44602200  0.02484300  1
  O  73  1  0.50225600  0.25799900  0.87408600  1
  O  74  1  0.45155200  0.25144000  0.80046800  1
  O  81  1  0.37980900  0.16775000  0.85587000  1
  O  82  1  0.30882300  0.20668200  0.79159700  1
  O  83  1  0.66494600  0.27812200  0.88791100  1
  O  84  1  0.71405000  0.27520600  0.80676300  1
  O  101  1  0.00211700  0.24187200  0.12591700  1
  O  102  1  0.95157800  0.24850500  0.19951100  1
  O  109  1  0.87979000  0.33216300  0.14406000  1
  O  110  1  0.80886400  0.29325900  0.20837600  1
  O  111  1  0.16489100  0.22152900  0.11219600  1
  O  112  1  0.21398700  0.22469500  0.19322600  1
  O  129  1  0.74862400  0.87553300  0.00870700  1
  O  130  1  0.79501200  0.94924300  0.00172200  1
  O  137  1  0.87124600  0.89409700  0.91841900  1
  O  138  1  0.93942200  0.95845500  0.95765300  1
  O  139  1  0.58611400  0.86024800  0.02812200  1
  O  140  1  0.52995200  0.94051000  0.02348600  1
  O  157  1  0.24878600  0.62435300  0.99112000  1
  O  158  1  0.29502700  0.55067300  0.99817200  1
  O  165  1  0.37159100  0.60587100  0.08140000  1
  O  166  1  0.43956300  0.54151300  0.04219600  1
  O  167  1  0.08611500  0.63953200  0.97150200  1
  O  168  1  0.02995100  0.55941900  0.97644300  1
  O  185  1  0.49515400  0.74179400  0.12873300  1
  O  186  1  0.54683000  0.74832900  0.20241900  1
  O  193  1  0.62060800  0.83122700  0.14605400  1
  O  194  1  0.69084600  0.79264500  0.21078400  1
  O  195  1  0.33119500  0.72188800  0.11540500  1
  O  196  1  0.28405200  0.72486900  0.19637300  1
  O  213  1  0.99549400  0.75817400  0.87113200  1
  O  214  1  0.04682700  0.75156600  0.79745000  1
  O  221  1  0.12073600  0.66869400  0.85384400  1
  O  222  1  0.19075700  0.70723600  0.78903900  1
  O  223  1  0.83153000  0.77826100  0.88443700  1
  O  224  1  0.78417800  0.77509700  0.80356700  1
  O  241  1  0.75426600  0.62123500  0.49225200  1
  O  242  1  0.70288800  0.54750500  0.49879800  1
  O  249  1  0.62879800  0.60399000  0.58163700  1
  O  250  1  0.55929600  0.53893000  0.54319000  1
  O  251  1  0.91829200  0.63463100  0.47236200  1
  O  252  1  0.96568900  0.55368800  0.47549100  1
  O  269  1  0.25411900  0.87873100  0.50773500  1
  O  270  1  0.20284300  0.95243700  0.50115000  1
  O  277  1  0.12899100  0.89595400  0.41827900  1
  O  278  1  0.05935400  0.96100000  0.45671000  1
  O  279  1  0.41818300  0.86543000  0.52786800  1
  O  280  1  0.46554200  0.94627400  0.52457700  1
  O  297  1  0.00023600  0.75850000  0.37461900  1
  O  298  1  0.95445200  0.75132600  0.30089600  1
  O  305  1  0.87758800  0.66822100  0.35626500  1
  O  306  1  0.81005600  0.70725900  0.29170600  1
  O  307  1  0.16263600  0.77798000  0.39005900  1
  O  308  1  0.21954300  0.77308600  0.30988200  1
  O  325  1  0.50018400  0.74142000  0.62536700  1
  O  326  1  0.45448200  0.74862300  0.69907000  1
  O  333  1  0.37793300  0.83176900  0.64369400  1
  O  334  1  0.31022900  0.79273200  0.70827500  1
  O  335  1  0.66268200  0.72164700  0.61006600  1
  O  336  1  0.71941400  0.72672900  0.69012800  1
  O  353  1  0.24955000  0.37557700  0.50884300  1
  O  354  1  0.29440600  0.44944400  0.50164600  1
  O  361  1  0.37045500  0.39410100  0.41837300  1
  O  362  1  0.43762700  0.45914200  0.45724600  1
  O  363  1  0.08720700  0.35987700  0.52826900  1
  O  364  1  0.02951800  0.44000500  0.52345200  1
  O  381  1  0.74963400  0.12430400  0.49100700  1
  O  382  1  0.79443200  0.05047300  0.49825100  1
  O  389  1  0.87057200  0.10583800  0.58149600  1
  O  390  1  0.93770600  0.04082100  0.54263500  1
  O  391  1  0.58713600  0.13987100  0.47134700  1
  O  392  1  0.52956800  0.05987500  0.47643700  1
  O  409  1  0.99744600  0.24156600  0.62828700  1
  O  410  1  0.04387800  0.24850700  0.70217600  1
  O  417  1  0.12164700  0.33119800  0.64609500  1
  O  418  1  0.18813600  0.29251300  0.71144100  1
  O  419  1  0.83387000  0.22221100  0.61322100  1
  O  420  1  0.77886200  0.22683900  0.69330500  1
  O  437  1  0.49769100  0.25837500  0.37159700  1
  O  438  1  0.54387000  0.25138400  0.29771600  1
  O  445  1  0.62157200  0.16869100  0.35382000  1
  O  446  1  0.68802400  0.20734900  0.28843000  1
  O  447  1  0.33410400  0.27799300  0.38659900  1
  O  448  1  0.27901800  0.27319100  0.30662200  1
  O  456  1  0.94218600  0.98269400  0.03732900  1
  O  472  1  0.44225800  0.51722400  0.96254400  1
  O  488  1  0.19285600  0.21259700  0.73476500  1
  O  504  1  0.69309800  0.28730700  0.26527200  1
  O  520  1  0.07637100  0.50314800  0.03539500  1
  O  536  1  0.57641600  0.99683400  0.96459300  1
  O  552  1  0.82509400  0.28587900  0.74945600  1
  O  568  1  0.32493400  0.21403300  0.25055300  1
  O  584  1  0.80711000  0.78694500  0.26749300  1
  O  600  1  0.30679100  0.71298400  0.73226300  1
  O  616  1  0.17346700  0.71404100  0.25368300  1
  O  632  1  0.67360200  0.78589500  0.74623700  1
  O  648  1  0.44300800  0.48228500  0.53724900  1
  O  664  1  0.94317400  0.01769100  0.46263700  1
  O  680  1  0.57539000  0.00373100  0.53557800  1
  O  696  1  0.07544800  0.49623700  0.46441100  1
  O  712  1  0.29854700  0.12549200  0.90533300  1
  O  728  1  0.79828600  0.37435100  0.09460000  1
  O  744  1  0.54889800  0.34550300  0.87643400  1
  O  760  1  0.04869400  0.15440000  0.12350900  1
  O  776  1  0.69934600  0.87321700  0.09586400  1
  O  792  1  0.19960000  0.62674400  0.90403800  1
  O  808  1  0.45241400  0.65524500  0.12387800  1
  O  824  1  0.95230800  0.84475800  0.87594100  1
  O  840  1  0.79667000  0.62596300  0.40581300  1
  O  856  1  0.29663000  0.87396100  0.59417900  1
  O  872  1  0.05006300  0.84562200  0.37651200  1
  O  888  1  0.54985900  0.65432700  0.62340700  1
  O  904  1  0.20006600  0.37329000  0.59588000  1
  O  920  1  0.70018600  0.12664600  0.40403000  1
  O  936  1  0.95175800  0.15529600  0.62378600  1
  O  952  1  0.45171800  0.34466300  0.37606800  1
