# generated using pymatgen
data_H9C19N4O3
_symmetry_space_group_name_H-M   'P 1'
_cell_length_a   33.29080000
_cell_length_b   66.88955000
_cell_length_c   66.88950000
_cell_angle_alpha   60.00007418
_cell_angle_beta   89.93330000
_cell_angle_gamma   89.86659991
_symmetry_Int_Tables_number   1
_chemical_formula_structural   H9C19N4O3
_chemical_formula_sum   'H432 C912 N192 O144'
_cell_volume   128994.21523217
_cell_formula_units_Z   48
loop_
 _symmetry_equiv_pos_site_id
 _symmetry_equiv_pos_as_xyz
  1  'x, y, z'
loop_
 _atom_site_type_symbol
 _atom_site_label
 _atom_site_symmetry_multiplicity
 _atom_site_fract_x
 _atom_site_fract_y
 _atom_site_fract_z
 _atom_site_occupancy
  H  9  1  0.05756100  0.91699700  0.57363700  1
  H  17  1  0.90400700  0.80640400  0.68834300  1
  H  19  1  0.88982900  0.85492000  0.60719800  1
  H  20  1  0.93171700  0.88183600  0.57714200  1
  H  21  1  0.03058600  0.84073000  0.68456500  1
  H  22  1  0.06727200  0.87192500  0.65533300  1
  H  35  1  0.05538600  0.57322600  0.42133300  1
  H  43  1  0.90217500  0.68809900  0.41766400  1
  H  45  1  0.88780500  0.60700100  0.45014400  1
  H  46  1  0.92962200  0.57688800  0.45318900  1
  H  47  1  0.02871200  0.68415000  0.38691800  1
  H  48  1  0.06527200  0.65489200  0.38481800  1
  H  61  1  0.05537100  0.42111300  0.91703100  1
  H  69  1  0.90150400  0.41722000  0.80643000  1
  H  71  1  0.88751900  0.44998100  0.85485900  1
  H  72  1  0.92954000  0.45310800  0.88173500  1
  H  73  1  0.02815000  0.38642400  0.84082100  1
  H  74  1  0.06488400  0.38438400  0.87203500  1
  H  87  1  0.55906100  0.02315500  0.36863200  1
  H  95  1  0.40597000  0.13408100  0.25360700  1
  H  97  1  0.39142500  0.08568600  0.33474000  1
  H  98  1  0.43325100  0.05873800  0.36489000  1
  H  99  1  0.53262400  0.09942700  0.25763300  1
  H  100  1  0.56913800  0.06810600  0.28694000  1
  H  113  1  0.55661200  0.36792400  0.52027000  1
  H  121  1  0.40412300  0.25303500  0.52422200  1
  H  123  1  0.38928700  0.33414800  0.49163200  1
  H  124  1  0.43094100  0.36426300  0.48849200  1
  H  125  1  0.53060500  0.25697700  0.55483700  1
  H  126  1  0.56696700  0.28624500  0.55688300  1
  H  139  1  0.55650100  0.51939500  0.02436700  1
  H  147  1  0.40297200  0.52349500  0.13515100  1
  H  149  1  0.38891400  0.49072200  0.08676900  1
  H  150  1  0.43083600  0.48756100  0.05982200  1
  H  151  1  0.52943400  0.55417300  0.10055700  1
  H  152  1  0.56605900  0.55616200  0.06929100  1
  H  165  1  0.44378500  0.51635900  0.36634100  1
  H  173  1  0.58936900  0.53060300  0.24446000  1
  H  175  1  0.61277500  0.49702800  0.32511600  1
  H  176  1  0.57354500  0.49118700  0.35698700  1
  H  177  1  0.46268500  0.55735200  0.25412300  1
  H  178  1  0.42778100  0.55657600  0.28511400  1
  H  191  1  0.44628100  0.02911400  0.51676400  1
  H  199  1  0.59139700  0.13658600  0.53115100  1
  H  201  1  0.61505800  0.08947600  0.49760100  1
  H  202  1  0.57599300  0.06345500  0.49176200  1
  H  203  1  0.46482100  0.10031900  0.55777600  1
  H  204  1  0.43002200  0.07017200  0.55693600  1
  H  217  1  0.44558200  0.36531300  0.02998900  1
  H  225  1  0.59200400  0.24360600  0.13728000  1
  H  227  1  0.61467700  0.32433000  0.09035300  1
  H  228  1  0.57524500  0.35614300  0.06438800  1
  H  229  1  0.46545200  0.25310900  0.10097900  1
  H  230  1  0.43032200  0.28407500  0.07087200  1
  H  243  1  0.94296500  0.42467100  0.57499600  1
  H  251  1  0.08797200  0.40999100  0.69707100  1
  H  253  1  0.11162100  0.44367100  0.61642400  1
  H  254  1  0.07255600  0.44959600  0.58450500  1
  H  255  1  0.96145700  0.38348800  0.68723200  1
  H  256  1  0.92670600  0.38438800  0.65617100  1
  H  269  1  0.94481900  0.91215400  0.42496400  1
  H  277  1  0.08970800  0.80426800  0.41061200  1
  H  279  1  0.11343200  0.85127700  0.44420000  1
  H  280  1  0.07436700  0.87736000  0.45008400  1
  H  281  1  0.96322100  0.84093400  0.38391900  1
  H  282  1  0.92851600  0.87121400  0.38471800  1
  H  295  1  0.94417100  0.57497900  0.91203700  1
  H  303  1  0.08994500  0.69682900  0.80490300  1
  H  305  1  0.11315300  0.61608800  0.85165300  1
  H  306  1  0.07386600  0.58423200  0.87754100  1
  H  307  1  0.96320700  0.68721800  0.84112800  1
  H  308  1  0.92826900  0.65621900  0.87122700  1
  H  321  1  0.97815700  0.02761400  0.36964400  1
  H  329  1  0.11036800  0.13766000  0.24346700  1
  H  331  1  0.11713300  0.10878500  0.32373400  1
  H  332  1  0.07752400  0.08331700  0.35603800  1
  H  333  1  0.99963500  0.08777400  0.25545300  1
  H  334  1  0.97122400  0.05563100  0.28861900  1
  H  347  1  0.97584900  0.36920800  0.51489800  1
  H  355  1  0.10843700  0.24302900  0.53075300  1
  H  357  1  0.11516500  0.32331600  0.47949000  1
  H  358  1  0.07543100  0.35562900  0.47270400  1
  H  359  1  0.99746200  0.25500100  0.56874400  1
  H  360  1  0.96888500  0.28814300  0.56776500  1
  H  373  1  0.97625300  0.51443200  0.02795700  1
  H  381  1  0.10730100  0.53039900  0.13838100  1
  H  383  1  0.11466700  0.47898200  0.10955400  1
  H  384  1  0.07524100  0.47214700  0.08403200  1
  H  385  1  0.99678400  0.56849300  0.08812800  1
  H  386  1  0.96875900  0.56752400  0.05588000  1
  H  399  1  0.47700500  0.91317500  0.57196200  1
  H  407  1  0.60854900  0.80270500  0.69834400  1
  H  409  1  0.61537100  0.83137200  0.61811000  1
  H  410  1  0.57581300  0.85691300  0.58576300  1
  H  411  1  0.49809800  0.85307700  0.68618500  1
  H  412  1  0.46999100  0.88535400  0.65295300  1
  H  425  1  0.47489300  0.57149300  0.42710100  1
  H  433  1  0.60672200  0.69769200  0.41094000  1
  H  435  1  0.61346900  0.61744900  0.46253900  1
  H  436  1  0.57390600  0.58515600  0.46937600  1
  H  437  1  0.49640300  0.68566400  0.37279000  1
  H  438  1  0.46814900  0.65246000  0.37383500  1
  H  451  1  0.47478200  0.42633800  0.91381900  1
  H  459  1  0.60613400  0.41058500  0.80316200  1
  H  461  1  0.61288600  0.46199800  0.83199400  1
  H  462  1  0.57341300  0.46874700  0.85762000  1
  H  463  1  0.49600100  0.37234300  0.85357900  1
  H  464  1  0.46789400  0.37327600  0.88586500  1
  H  477  1  0.51985100  0.43148000  0.57686500  1
  H  485  1  0.39244400  0.40212000  0.70928000  1
  H  487  1  0.37511100  0.45545500  0.62988900  1
  H  488  1  0.41256300  0.46581200  0.59604200  1
  H  489  1  0.50473000  0.36996600  0.69099700  1
  H  490  1  0.53187000  0.37429000  0.65607100  1
  H  503  1  0.52163900  0.90317300  0.43203800  1
  H  511  1  0.39424600  0.80028300  0.40270300  1
  H  513  1  0.37699500  0.82640200  0.45601500  1
  H  514  1  0.41438700  0.84987300  0.46633400  1
  H  515  1  0.50641500  0.85052600  0.37056900  1
  H  516  1  0.53358200  0.88107900  0.37490300  1
  H  529  1  0.52074400  0.57623400  0.90408300  1
  H  537  1  0.39445600  0.70894000  0.80054300  1
  H  539  1  0.37680600  0.62957700  0.82673500  1
  H  540  1  0.41390000  0.59563400  0.85041000  1
  H  541  1  0.50631300  0.69044300  0.85114500  1
  H  542  1  0.53315200  0.65545600  0.88187200  1
  H  555  1  0.02071000  0.50944600  0.36494100  1
  H  563  1  0.89372200  0.53845600  0.23261400  1
  H  565  1  0.87667900  0.48515200  0.31202300  1
  H  566  1  0.91402700  0.47491200  0.34585300  1
  H  567  1  0.00544400  0.57080300  0.25080100  1
  H  568  1  0.03246100  0.56655300  0.28570100  1
  H  581  1  0.02329300  0.03737200  0.50980500  1
  H  589  1  0.89561900  0.14062200  0.53892100  1
  H  591  1  0.87891300  0.11468700  0.48547500  1
  H  592  1  0.91648900  0.09116400  0.47517400  1
  H  593  1  0.00763700  0.09004400  0.57126800  1
  H  594  1  0.03478000  0.05938000  0.56701000  1
  H  607  1  0.02186000  0.36454700  0.03759300  1
  H  615  1  0.89646000  0.23192200  0.14142300  1
  H  617  1  0.87860300  0.31130500  0.11534400  1
  H  618  1  0.91555900  0.34521800  0.09162000  1
  H  619  1  0.00798200  0.25034600  0.09056900  1
  H  620  1  0.03447300  0.28532100  0.05974900  1
  H  635  1  0.03540700  0.79542600  0.73543900  1
  H  636  1  0.06192500  0.76333500  0.76924300  1
  H  638  1  0.94518700  0.71958600  0.80778300  1
  H  642  1  0.83347400  0.72540900  0.76249500  1
  H  644  1  0.93250700  0.80968000  0.72232600  1
  H  646  1  0.04939000  0.73033800  0.80846200  1
  H  657  1  0.03391800  0.73477500  0.38164200  1
  H  658  1  0.06091300  0.76843100  0.37993400  1
  H  660  1  0.94477700  0.80744600  0.38542900  1
  H  664  1  0.83277500  0.76236800  0.42509300  1
  H  666  1  0.93075700  0.72216100  0.38063300  1
  H  668  1  0.04891300  0.80770200  0.37369200  1
  H  679  1  0.03293200  0.38073000  0.79563600  1
  H  680  1  0.05958500  0.37896800  0.76359700  1
  H  682  1  0.94308800  0.38493900  0.71934300  1
  H  686  1  0.83144900  0.42475900  0.72494700  1
  H  688  1  0.92997300  0.38005300  0.80954700  1
  H  690  1  0.04711000  0.37282300  0.73054200  1
  H  701  1  0.53776300  0.14491900  0.20671400  1
  H  702  1  0.56426900  0.17700100  0.17294100  1
  H  704  1  0.44745300  0.22092000  0.13436500  1
  H  708  1  0.33558100  0.21518500  0.17961500  1
  H  710  1  0.43489400  0.13074000  0.21971200  1
  H  712  1  0.55175800  0.20999400  0.13374000  1
  H  723  1  0.53603000  0.20618200  0.56017600  1
  H  724  1  0.56291100  0.17245300  0.56184800  1
  H  726  1  0.44659100  0.13372100  0.55654800  1
  H  730  1  0.33445200  0.17878800  0.51714700  1
  H  732  1  0.43296200  0.21903800  0.56136200  1
  H  734  1  0.55079100  0.13321400  0.56809000  1
  H  745  1  0.53436000  0.55976900  0.14584300  1
  H  746  1  0.56099200  0.56148700  0.17787700  1
  H  748  1  0.44444900  0.55581800  0.22209600  1
  H  752  1  0.33301900  0.51603200  0.21635600  1
  H  754  1  0.43140300  0.56071700  0.13190400  1
  H  756  1  0.54855000  0.56766500  0.21091100  1
  H  767  1  0.97476400  0.13853800  0.20693500  1
  H  768  1  0.93690000  0.16733200  0.17591400  1
  H  770  1  0.03694500  0.21551600  0.12249000  1
  H  774  1  0.16144200  0.22024800  0.15277700  1
  H  776  1  0.08365200  0.13458400  0.21090000  1
  H  778  1  0.93362900  0.20049400  0.13668400  1
  H  789  1  0.97283900  0.20669000  0.56590600  1
  H  790  1  0.93523100  0.17557000  0.56833300  1
  H  792  1  0.03559400  0.12158500  0.57498000  1
  H  796  1  0.16071900  0.15162600  0.54033300  1
  H  798  1  0.08177800  0.21048000  0.56635100  1
  H  800  1  0.93223600  0.13612800  0.57496100  1
  H  811  1  0.97147500  0.56593900  0.13921500  1
  H  812  1  0.93365700  0.56821000  0.16800200  1
  H  814  1  0.03373400  0.57405400  0.21579200  1
  H  818  1  0.15867000  0.53925000  0.22047500  1
  H  820  1  0.08039900  0.56613100  0.13509500  1
  H  822  1  0.93047500  0.57454600  0.20101800  1
  H  833  1  0.47282600  0.80214600  0.73467400  1
  H  834  1  0.43491800  0.77347000  0.76568600  1
  H  836  1  0.53485600  0.72528000  0.81935600  1
  H  840  1  0.65954800  0.72034900  0.78896200  1
  H  842  1  0.58177300  0.80589200  0.73082800  1
  H  844  1  0.43159000  0.74044100  0.80496800  1
  H  855  1  0.47145100  0.73451000  0.37484000  1
  H  856  1  0.43396000  0.76568200  0.37259700  1
  H  858  1  0.53463900  0.81871000  0.36738300  1
  H  862  1  0.65900400  0.78792100  0.40251000  1
  H  864  1  0.58026500  0.73012200  0.37487300  1
  H  866  1  0.43117200  0.80494200  0.36653100  1
  H  877  1  0.47055200  0.37537600  0.80226400  1
  H  878  1  0.43268900  0.37293400  0.77363900  1
  H  880  1  0.53263000  0.36618200  0.72620500  1
  H  884  1  0.65772500  0.40086800  0.72134500  1
  H  886  1  0.57955900  0.37495400  0.80629400  1
  H  888  1  0.42939100  0.36626400  0.74085400  1
  H  899  1  0.80030100  0.84724500  0.65796700  1
  H  900  1  0.73035600  0.85411000  0.65396800  1
  H  902  1  0.67942700  0.79304500  0.64406200  1
  H  906  1  0.75554500  0.72486900  0.67289800  1
  H  908  1  0.84985700  0.79715700  0.66988200  1
  H  910  1  0.66744200  0.84767200  0.63783500  1
  H  921  1  0.79865700  0.65786400  0.40695000  1
  H  922  1  0.72883100  0.65358900  0.40409600  1
  H  924  1  0.67715000  0.64332600  0.47513600  1
  H  928  1  0.75249700  0.67251100  0.51439800  1
  H  930  1  0.84745800  0.66996700  0.44495300  1
  H  932  1  0.66596100  0.63711400  0.42673400  1
  H  943  1  0.79829000  0.40660300  0.84731400  1
  H  944  1  0.72840400  0.40354200  0.85432900  1
  H  946  1  0.67639000  0.47454300  0.79360300  1
  H  950  1  0.75173600  0.51435000  0.72529300  1
  H  952  1  0.84715500  0.44483000  0.79725100  1
  H  954  1  0.66517100  0.42594400  0.84813500  1
  H  965  1  0.30237100  0.09331000  0.28365200  1
  H  966  1  0.23248300  0.08635700  0.28767100  1
  H  968  1  0.18071500  0.14719000  0.29788300  1
  H  972  1  0.25609000  0.21543300  0.26925700  1
  H  974  1  0.35135100  0.14334000  0.27184400  1
  H  976  1  0.16943300  0.09261800  0.30395100  1
  H  987  1  0.30028000  0.28320500  0.53498100  1
  H  988  1  0.23036600  0.28722700  0.53794600  1
  H  990  1  0.17889800  0.29738900  0.46693900  1
  H  994  1  0.25461900  0.26865900  0.42737400  1
  H  996  1  0.34952200  0.27135200  0.49673400  1
  H  998  1  0.16723700  0.30339300  0.51549500  1
  H  1009  1  0.29967300  0.53429500  0.09440400  1
  H  1010  1  0.22980400  0.53742100  0.08733600  1
  H  1012  1  0.17797900  0.46638800  0.14791900  1
  H  1016  1  0.25366300  0.42663400  0.21627500  1
  H  1018  1  0.34855500  0.49603100  0.14439900  1
  H  1020  1  0.16672300  0.51504900  0.09341300  1
  H  1031  1  0.69671100  0.54451400  0.26741800  1
  H  1032  1  0.76684400  0.54817500  0.27039400  1
  H  1034  1  0.81820700  0.47433800  0.28864300  1
  H  1038  1  0.74173600  0.42835700  0.26811400  1
  H  1040  1  0.64660400  0.50369000  0.26119800  1
  H  1042  1  0.82922900  0.52487400  0.29006700  1
  H  1053  1  0.69904500  0.09977000  0.54500300  1
  H  1054  1  0.76923800  0.09317300  0.54860300  1
  H  1056  1  0.82000700  0.14875200  0.47471500  1
  H  1060  1  0.74249400  0.21522600  0.42892500  1
  H  1062  1  0.64847000  0.14679200  0.50405500  1
  H  1064  1  0.83149200  0.09679500  0.52522000  1
  H  1075  1  0.69929500  0.26644000  0.10067000  1
  H  1076  1  0.76947100  0.26935200  0.09410200  1
  H  1078  1  0.82015100  0.28801500  0.14942400  1
  H  1082  1  0.74315900  0.26793700  0.21575500  1
  H  1084  1  0.64875200  0.26061900  0.14755400  1
  H  1086  1  0.83155700  0.28921800  0.09759000  1
  H  1097  1  0.19557800  0.39606500  0.67441000  1
  H  1098  1  0.26578700  0.39234600  0.67158500  1
  H  1100  1  0.31654300  0.46623400  0.65316800  1
  H  1104  1  0.23887800  0.51223600  0.67353900  1
  H  1106  1  0.14498100  0.43696700  0.68039100  1
  H  1108  1  0.32805900  0.41564400  0.65186500  1
  H  1119  1  0.19732900  0.84111100  0.39660400  1
  H  1120  1  0.26745700  0.84778600  0.39299100  1
  H  1122  1  0.31852200  0.79220200  0.46685000  1
  H  1126  1  0.24204700  0.72564500  0.51277200  1
  H  1128  1  0.14710800  0.79406300  0.43735400  1
  H  1130  1  0.32969000  0.84415900  0.41634000  1
  H  1141  1  0.19711600  0.67444800  0.84123100  1
  H  1142  1  0.26730400  0.67175500  0.84775100  1
  H  1144  1  0.31871100  0.65268000  0.79278000  1
  H  1148  1  0.24139300  0.67228500  0.72658900  1
  H  1150  1  0.14683800  0.67985800  0.79456000  1
  H  1152  1  0.32968400  0.65180900  0.84445800  1
  H  1163  1  0.01946900  0.92977600  0.51153400  1
  H  1164  1  0.02250600  0.93482500  0.47366900  1
  H  1166  1  0.02695200  0.85743000  0.48759300  1
  H  1170  1  0.97150100  0.79824000  0.55620100  1
  H  1172  1  0.03964900  0.87771100  0.56232200  1
  H  1174  1  0.04939000  0.91274200  0.45187200  1
  H  1185  1  0.01755000  0.51125100  0.47072800  1
  H  1186  1  0.02076700  0.47336500  0.50350500  1
  H  1188  1  0.02460900  0.48716300  0.56705400  1
  H  1192  1  0.96816600  0.55579100  0.55754700  1
  H  1194  1  0.03710800  0.56203800  0.47210200  1
  H  1196  1  0.04778600  0.45162500  0.54740900  1
  H  1207  1  0.01795800  0.47058200  0.92959600  1
  H  1208  1  0.02162000  0.50334900  0.93469400  1
  H  1210  1  0.02551900  0.56687700  0.85733900  1
  H  1214  1  0.96858400  0.55783800  0.79824500  1
  H  1216  1  0.03714400  0.47190200  0.87740700  1
  H  1218  1  0.04878400  0.54712900  0.91255600  1
  H  1229  1  0.52094500  0.01081700  0.43061300  1
  H  1230  1  0.52400900  0.00591400  0.46842000  1
  H  1232  1  0.52858400  0.08339300  0.45420000  1
  H  1236  1  0.47329500  0.14261000  0.38545500  1
  H  1238  1  0.54115800  0.06274800  0.37970000  1
  H  1240  1  0.55112400  0.02819300  0.49000600  1
  H  1251  1  0.51831900  0.42996900  0.47076400  1
  H  1252  1  0.52129600  0.46779700  0.43789600  1
  H  1254  1  0.52636400  0.45368300  0.37456100  1
  H  1258  1  0.47144800  0.38498000  0.38402300  1
  H  1260  1  0.53895000  0.37911900  0.46967100  1
  H  1262  1  0.54834000  0.48951500  0.39408200  1
  H  1273  1  0.51915500  0.46983200  0.01201900  1
  H  1274  1  0.52279800  0.43699200  0.00702700  1
  H  1276  1  0.52688600  0.37359500  0.08445500  1
  H  1280  1  0.46988300  0.38319700  0.14337000  1
  H  1282  1  0.53833700  0.46864200  0.06414700  1
  H  1284  1  0.55011500  0.39317100  0.02926700  1
  H  1295  1  0.98277100  0.02968200  0.42093100  1
  H  1296  1  0.96686200  0.02616500  0.45723400  1
  H  1298  1  0.95846100  0.10443000  0.44017200  1
  H  1302  1  0.02877500  0.16123200  0.37599300  1
  H  1304  1  0.97160800  0.07845700  0.36844900  1
  H  1306  1  0.93353300  0.04880600  0.47605500  1
  H  1317  1  0.98064300  0.42062100  0.46153400  1
  H  1318  1  0.96465600  0.45693600  0.42878000  1
  H  1320  1  0.95599200  0.43986600  0.36760400  1
  H  1324  1  0.02669900  0.37551700  0.37509700  1
  H  1326  1  0.96932800  0.36815200  0.46524500  1
  H  1328  1  0.93119900  0.47579700  0.38747500  1
  H  1339  1  0.98123700  0.46103600  0.02998700  1
  H  1340  1  0.96577200  0.42824400  0.02644000  1
  H  1342  1  0.95669100  0.36712400  0.10469600  1
  H  1346  1  0.02563300  0.37454100  0.16184700  1
  H  1348  1  0.96896100  0.46489100  0.07856800  1
  H  1350  1  0.93238600  0.38686100  0.04896700  1
  H  1361  1  0.48130900  0.91100600  0.52077400  1
  H  1362  1  0.46531100  0.91462900  0.48445300  1
  H  1364  1  0.45600500  0.83642600  0.50147800  1
  H  1368  1  0.52627700  0.77935900  0.56581500  1
  H  1370  1  0.46967800  0.86234500  0.57321700  1
  H  1372  1  0.43168600  0.89219900  0.46556700  1
  H  1383  1  0.47972600  0.52020200  0.48037100  1
  H  1384  1  0.46383900  0.48387900  0.51309100  1
  H  1386  1  0.45377000  0.50097000  0.57421500  1
  H  1390  1  0.52293300  0.56530100  0.56714600  1
  H  1392  1  0.46756400  0.57266500  0.47654200  1
  H  1394  1  0.43011800  0.46496300  0.55438700  1
  H  1405  1  0.47956700  0.47975700  0.91191200  1
  H  1406  1  0.46420200  0.51259800  0.91546400  1
  H  1408  1  0.45492300  0.57372100  0.83720800  1
  H  1412  1  0.52357600  0.56611500  0.77999600  1
  H  1414  1  0.46713700  0.47591000  0.86333700  1
  H  1416  1  0.43079400  0.55406200  0.89293800  1
  H  1427  1  0.08374500  0.99562300  0.54969700  1
  H  1428  1  0.11489200  0.95865600  0.56964400  1
  H  1430  1  0.04208500  0.91964000  0.64021500  1
  H  1434  1  0.97405400  0.96420300  0.66581800  1
  H  1436  1  0.99071800  0.00813000  0.56060100  1
  H  1438  1  0.12570600  0.92408500  0.61551900  1
  H  1449  1  0.08125200  0.54922000  0.36664200  1
  H  1450  1  0.11251300  0.56910000  0.38362700  1
  H  1452  1  0.03993100  0.63983000  0.35215400  1
  H  1456  1  0.97212700  0.66537800  0.28187100  1
  H  1458  1  0.98825900  0.56033400  0.34329200  1
  H  1460  1  0.12349200  0.61496100  0.37228700  1
  H  1471  1  0.08251100  0.36608400  0.99587900  1
  H  1472  1  0.11330300  0.38305600  0.95884800  1
  H  1474  1  0.03920100  0.35213100  0.91974600  1
  H  1478  1  0.97050500  0.28236100  0.96419800  1
  H  1480  1  0.98922100  0.34302500  0.00851700  1
  H  1482  1  0.12340200  0.37191600  0.92421200  1
  H  1493  1  0.58314500  0.94435300  0.39259100  1
  H  1494  1  0.61506700  0.98103800  0.37282000  1
  H  1496  1  0.54384600  0.02061800  0.30173300  1
  H  1500  1  0.47586300  0.97654100  0.27571900  1
  H  1502  1  0.49011900  0.93265400  0.38105000  1
  H  1504  1  0.62690500  0.01549900  0.32689200  1
  H  1515  1  0.58113300  0.39191000  0.57497500  1
  H  1516  1  0.61291900  0.37208500  0.55800600  1
  H  1518  1  0.54154500  0.30112200  0.58963900  1
  H  1522  1  0.47364900  0.27522900  0.65982900  1
  H  1524  1  0.48820900  0.38056700  0.59835700  1
  H  1526  1  0.62467900  0.32614500  0.56946200  1
  H  1537  1  0.58188100  0.57445800  0.94547800  1
  H  1538  1  0.61325000  0.55736400  0.98235400  1
  H  1540  1  0.54071600  0.58867000  0.02177300  1
  H  1544  1  0.47266400  0.65899200  0.97720100  1
  H  1546  1  0.48877700  0.59782000  0.93331300  1
  H  1548  1  0.62430700  0.56856500  0.01696100  1
  H  1559  1  0.40677800  0.58250700  0.38354200  1
  H  1560  1  0.38102000  0.55954800  0.36878000  1
  H  1562  1  0.45067000  0.58652600  0.29786600  1
  H  1566  1  0.50810600  0.66017500  0.26285700  1
  H  1568  1  0.48494700  0.62663300  0.35741300  1
  H  1570  1  0.36914600  0.56407400  0.32660500  1
  H  1581  1  0.40898300  0.94592700  0.58269600  1
  H  1582  1  0.38345900  0.98375700  0.55960100  1
  H  1584  1  0.45263800  0.02740600  0.58697500  1
  H  1588  1  0.50876100  0.98817300  0.66117000  1
  H  1590  1  0.48550900  0.92738700  0.62770500  1
  H  1592  1  0.37136900  0.02138800  0.56422300  1
  H  1603  1  0.40689200  0.38236300  0.94663500  1
  H  1604  1  0.38182200  0.36751000  0.98454700  1
  H  1606  1  0.45357800  0.29720200  0.02809500  1
  H  1610  1  0.51191800  0.26252200  0.98922800  1
  H  1612  1  0.48475200  0.35657100  0.92802000  1
  H  1614  1  0.37114900  0.32546200  0.02226700  1
  H  1625  1  0.90705300  0.35854800  0.55772000  1
  H  1626  1  0.88120600  0.38180500  0.57220600  1
  H  1628  1  0.94897200  0.35422700  0.64374600  1
  H  1632  1  0.00442900  0.27978300  0.67921600  1
  H  1634  1  0.98247000  0.31298000  0.58499300  1
  H  1636  1  0.86826000  0.37715900  0.61446800  1
  H  1647  1  0.90921800  0.99562500  0.35870700  1
  H  1648  1  0.88307800  0.95800300  0.38180400  1
  H  1650  1  0.95127600  0.91374400  0.35461900  1
  H  1654  1  0.00801200  0.95212100  0.28070800  1
  H  1656  1  0.98624600  0.01342700  0.31396800  1
  H  1658  1  0.87030100  0.92039100  0.37719300  1
  H  1669  1  0.90754800  0.55784600  0.99550300  1
  H  1670  1  0.88183200  0.57253400  0.95774300  1
  H  1672  1  0.95104900  0.64351300  0.91382500  1
  H  1676  1  0.00805700  0.67868600  0.95242700  1
  H  1678  1  0.98416500  0.58438000  0.01380100  1
  H  1680  1  0.86967500  0.61475200  0.92010800  1
  C  1  1  0.99113600  0.87167200  0.62216300  1
  C  2  1  0.97881100  0.88161200  0.59868400  1
  C  3  1  0.00437200  0.89750600  0.58077400  1
  C  4  1  0.03879600  0.90581800  0.58654700  1
  C  5  1  0.04997300  0.89735200  0.60974700  1
  C  6  1  0.02773300  0.87894600  0.62758200  1
  C  7  1  0.94168500  0.87479700  0.59378800  1
  C  8  1  0.04098600  0.86735500  0.65078400  1
  C  10  1  0.96762900  0.85385600  0.64009900  1
  C  11  1  0.92933300  0.84806400  0.63489500  1
  C  12  1  0.90516300  0.83116800  0.65288200  1
  C  13  1  0.92112700  0.81886000  0.67539500  1
  C  14  1  0.95963600  0.82355900  0.68079900  1
  C  15  1  0.98242600  0.84180100  0.66321500  1
  C  16  1  0.91662200  0.85913200  0.61161800  1
  C  18  1  0.01946900  0.84869300  0.66809600  1
  C  27  1  0.98911100  0.62183000  0.41831700  1
  C  28  1  0.97674400  0.59837000  0.43184000  1
  C  29  1  0.00225400  0.58042900  0.43378600  1
  C  30  1  0.03665700  0.58616200  0.41964800  1
  C  31  1  0.04784300  0.60935000  0.40490100  1
  C  32  1  0.02568400  0.62720000  0.40556400  1
  C  33  1  0.93963100  0.59351900  0.44360500  1
  C  34  1  0.03898800  0.65037900  0.39397100  1
  C  36  1  0.96566400  0.63979100  0.41827000  1
  C  37  1  0.92737300  0.63463900  0.42931200  1
  C  38  1  0.90323300  0.65265900  0.42826200  1
  C  39  1  0.91925000  0.67514000  0.41809200  1
  C  40  1  0.95778300  0.68048200  0.40796300  1
  C  41  1  0.98051400  0.66287500  0.40723500  1
  C  42  1  0.91464800  0.61137900  0.44153200  1
  C  44  1  0.01754400  0.66770400  0.39540500  1
  C  53  1  0.98885100  0.41805700  0.87166400  1
  C  54  1  0.97659800  0.43166900  0.88155500  1
  C  55  1  0.00224800  0.43364700  0.89743700  1
  C  56  1  0.03661200  0.41944100  0.90581800  1
  C  57  1  0.04768700  0.40462700  0.89741500  1
  C  58  1  0.02542000  0.40525400  0.87898900  1
  C  59  1  0.93948700  0.44348300  0.87469800  1
  C  60  1  0.03861300  0.39357800  0.86743300  1
  C  62  1  0.96528700  0.41796500  0.85385200  1
  C  63  1  0.92697400  0.42903100  0.84804900  1
  C  64  1  0.90273400  0.42792700  0.83118300  1
  C  65  1  0.91865900  0.41768900  0.81888200  1
  C  66  1  0.95720700  0.40754900  0.82357400  1
  C  67  1  0.98003900  0.40685100  0.84182300  1
  C  68  1  0.91433500  0.44131000  0.85907400  1
  C  70  1  0.01708700  0.39499600  0.84874000  1
  C  79  1  0.49288600  0.06867300  0.31997400  1
  C  80  1  0.48046500  0.05881500  0.34343200  1
  C  81  1  0.50599200  0.04289000  0.36137800  1
  C  82  1  0.54041600  0.03443400  0.35568200  1
  C  83  1  0.55160800  0.04276900  0.33250300  1
  C  84  1  0.52948500  0.06125400  0.31462100  1
  C  85  1  0.44331400  0.06574900  0.34826200  1
  C  86  1  0.54284600  0.07277900  0.29143800  1
  C  88  1  0.46945000  0.08653600  0.30198800  1
  C  89  1  0.43109700  0.09242200  0.30711800  1
  C  90  1  0.40695500  0.10932600  0.28907400  1
  C  91  1  0.42304100  0.12159000  0.26659000  1
  C  92  1  0.46165200  0.11683400  0.26127600  1
  C  93  1  0.48436700  0.09853200  0.27889900  1
  C  94  1  0.41830700  0.08144400  0.33037900  1
  C  96  1  0.52145200  0.09153000  0.27408900  1
  C  105  1  0.49064800  0.31931600  0.52339600  1
  C  106  1  0.47815800  0.34278000  0.50984300  1
  C  107  1  0.50357400  0.36072300  0.50784000  1
  C  108  1  0.53796500  0.35499200  0.52197900  1
  C  109  1  0.54927400  0.33180500  0.53674300  1
  C  110  1  0.52723500  0.31394300  0.53613000  1
  C  111  1  0.44102500  0.34762900  0.49810700  1
  C  112  1  0.54067400  0.29076000  0.54773800  1
  C  114  1  0.46731100  0.30135200  0.52349000  1
  C  115  1  0.42898800  0.30650400  0.51248900  1
  C  116  1  0.40496400  0.28848400  0.51358000  1
  C  117  1  0.42113000  0.26600100  0.52374600  1
  C  118  1  0.45969100  0.26065500  0.53383400  1
  C  119  1  0.48230300  0.27826100  0.53453500  1
  C  120  1  0.41610200  0.32976300  0.50027600  1
  C  122  1  0.51935300  0.27342900  0.54633700  1
  C  131  1  0.49008900  0.52257000  0.06978500  1
  C  132  1  0.47783100  0.50897100  0.05991300  1
  C  133  1  0.50340200  0.50696500  0.04398700  1
  C  134  1  0.53773000  0.52112000  0.03557000  1
  C  135  1  0.54879900  0.53594100  0.04394000  1
  C  136  1  0.52660400  0.53533500  0.06240100  1
  C  137  1  0.44076600  0.49719900  0.06682300  1
  C  138  1  0.53981800  0.54700000  0.07393100  1
  C  140  1  0.46659600  0.52268600  0.08763400  1
  C  141  1  0.42834900  0.51163700  0.09351600  1
  C  142  1  0.40415900  0.51275100  0.11042100  1
  C  143  1  0.42009100  0.52300400  0.12267500  1
  C  144  1  0.45857600  0.53314100  0.11789900  1
  C  145  1  0.48135400  0.53379800  0.09962800  1
  C  146  1  0.41572000  0.49934100  0.08253700  1
  C  148  1  0.51833800  0.54563300  0.09263700  1
  C  157  1  0.50837700  0.52505700  0.31492600  1
  C  158  1  0.52307500  0.51113200  0.33789200  1
  C  159  1  0.49850600  0.50732300  0.35692600  1
  C  160  1  0.46232200  0.51978200  0.35274300  1
  C  161  1  0.44922500  0.53530800  0.33012700  1
  C  162  1  0.47054600  0.53640500  0.31119700  1
  C  163  1  0.56141900  0.50086600  0.34090900  1
  C  164  1  0.45491100  0.54828800  0.28851400  1
  C  166  1  0.53046100  0.52666100  0.29580400  1
  C  167  1  0.56981400  0.51705700  0.29920200  1
  C  168  1  0.59235200  0.51959500  0.28002500  1
  C  169  1  0.57369200  0.52943900  0.25818400  1
  C  170  1  0.53400000  0.53790600  0.25465000  1
  C  171  1  0.51306300  0.53762800  0.27330200  1
  C  172  1  0.58505600  0.50467100  0.32194000  1
  C  174  1  0.47519300  0.54831800  0.27013800  1
  C  183  1  0.51069300  0.07175800  0.52552900  1
  C  184  1  0.52549000  0.06266900  0.51165200  1
  C  185  1  0.50104400  0.04743600  0.50786000  1
  C  186  1  0.46475500  0.03929200  0.52018100  1
  C  187  1  0.45157100  0.04641700  0.53567400  1
  C  188  1  0.47285000  0.06420300  0.53681600  1
  C  189  1  0.56381300  0.06987700  0.50141900  1
  C  190  1  0.45714600  0.07502600  0.54867700  1
  C  192  1  0.53269000  0.08925800  0.52714800  1
  C  193  1  0.57202500  0.09542500  0.51757600  1
  C  194  1  0.59448500  0.11205200  0.52011200  1
  C  195  1  0.57577100  0.12404800  0.52996900  1
  C  196  1  0.53609300  0.11915300  0.53841300  1
  C  197  1  0.51523200  0.10080900  0.53810500  1
  C  198  1  0.58734200  0.08505000  0.50521100  1
  C  200  1  0.47737400  0.09332800  0.54875200  1
  C  209  1  0.51057600  0.31399300  0.07252900  1
  C  210  1  0.52505700  0.33698200  0.06349400  1
  C  211  1  0.50043500  0.35600700  0.04828000  1
  C  212  1  0.46427400  0.35175700  0.04009400  1
  C  213  1  0.45134900  0.32912900  0.04719100  1
  C  214  1  0.47281700  0.31021800  0.06495800  1
  C  215  1  0.56330800  0.34004500  0.07072900  1
  C  216  1  0.45738700  0.28751000  0.07573900  1
  C  218  1  0.53277400  0.29489200  0.09000500  1
  C  219  1  0.57202800  0.29834600  0.09619900  1
  C  220  1  0.59468300  0.27920400  0.11281100  1
  C  221  1  0.57622700  0.25731700  0.12476200  1
  C  222  1  0.53664300  0.25370700  0.11982800  1
  C  223  1  0.51559800  0.27235300  0.10151000  1
  C  224  1  0.58706200  0.32110800  0.08587000  1
  C  226  1  0.47782800  0.26914100  0.09399700  1
  C  235  1  0.00737300  0.41573800  0.62648500  1
  C  236  1  0.02212400  0.42966000  0.60353700  1
  C  237  1  0.99771100  0.43353600  0.58444800  1
  C  238  1  0.96149800  0.42117500  0.58860600  1
  C  239  1  0.94833900  0.40562800  0.61119900  1
  C  240  1  0.96956900  0.40446900  0.63015700  1
  C  241  1  0.06042000  0.43987500  0.60057200  1
  C  242  1  0.95384400  0.39260200  0.65281600  1
  C  244  1  0.02935200  0.41407600  0.64564100  1
  C  245  1  0.06864800  0.42364700  0.64229200  1
  C  246  1  0.09108400  0.42108000  0.66149100  1
  C  247  1  0.07237000  0.41119300  0.68332400  1
  C  248  1  0.03273700  0.40272500  0.68682500  1
  C  249  1  0.01189300  0.40309600  0.66812900  1
  C  250  1  0.08393400  0.43606100  0.61956800  1
  C  252  1  0.97406300  0.39246800  0.67123900  1
  C  261  1  0.00913600  0.86933800  0.41620300  1
  C  262  1  0.02389700  0.87833300  0.43013900  1
  C  263  1  0.99942100  0.89359000  0.43397600  1
  C  264  1  0.96329300  0.90195100  0.42152400  1
  C  265  1  0.95015100  0.89491200  0.40598200  1
  C  266  1  0.97134900  0.87703900  0.40486800  1
  C  267  1  0.06219900  0.87100200  0.44039200  1
  C  268  1  0.95562900  0.86627300  0.39299000  1
  C  270  1  0.03110300  0.85178200  0.41458200  1
  C  271  1  0.07042900  0.84550300  0.42416200  1
  C  272  1  0.09286500  0.82882900  0.42160200  1
  C  273  1  0.07410900  0.81685800  0.41177800  1
  C  274  1  0.03442800  0.82186000  0.40334100  1
  C  275  1  0.01361800  0.84028100  0.40362300  1
  C  276  1  0.08576100  0.85582500  0.43654000  1
  C  278  1  0.97578600  0.84788600  0.39295100  1
  C  287  1  0.00882300  0.62635100  0.86949200  1
  C  288  1  0.02349100  0.60337300  0.87847000  1
  C  289  1  0.99893500  0.58436400  0.89365300  1
  C  290  1  0.96271400  0.58855500  0.90188600  1
  C  291  1  0.94967200  0.61117400  0.89487500  1
  C  292  1  0.97101100  0.63010200  0.87710300  1
  C  293  1  0.06178700  0.60032600  0.87120700  1
  C  294  1  0.95539200  0.65280400  0.86634700  1
  C  296  1  0.03092300  0.64547100  0.85204600  1
  C  297  1  0.07026100  0.64204400  0.84585200  1
  C  298  1  0.09284100  0.66121200  0.82929800  1
  C  299  1  0.07422900  0.68309900  0.81738600  1
  C  300  1  0.03454500  0.68667000  0.82229200  1
  C  301  1  0.01357000  0.66800700  0.84057500  1
  C  302  1  0.08544800  0.61928400  0.85611500  1
  C  304  1  0.97570000  0.67118900  0.84807400  1
  C  313  1  0.03233700  0.07436500  0.31591700  1
  C  314  1  0.04049000  0.07165900  0.33805400  1
  C  315  1  0.01762500  0.05573500  0.35729100  1
  C  316  1  0.99243800  0.04012000  0.35513300  1
  C  317  1  0.98695900  0.04104300  0.33382900  1
  C  318  1  0.00387600  0.05975500  0.31354800  1
  C  319  1  0.07084100  0.08509900  0.34029400  1
  C  320  1  0.99300500  0.06497400  0.29102000  1
  C  322  1  0.05287800  0.09175100  0.29613700  1
  C  323  1  0.08630400  0.10327300  0.29908000  1
  C  324  1  0.11032300  0.11794200  0.27967000  1
  C  325  1  0.09498900  0.12527100  0.25745700  1
  C  326  1  0.05909600  0.11609200  0.25402000  1
  C  327  1  0.04009600  0.09757100  0.27353300  1
  C  328  1  0.09476300  0.09974600  0.32131200  1
  C  330  1  0.00901600  0.08436100  0.27142200  1
  C  339  1  0.03013300  0.31547500  0.52174000  1
  C  340  1  0.03829100  0.33762200  0.50233000  1
  C  341  1  0.01537800  0.35686400  0.49906100  1
  C  342  1  0.99012800  0.35469000  0.51686000  1
  C  343  1  0.98454000  0.33333333  0.53722167  1
  C  344  1  0.00161100  0.31309300  0.53874400  1
  C  345  1  0.06872300  0.33987300  0.48663900  1
  C  346  1  0.99077000  0.29056000  0.55603900  1
  C  348  1  0.05075100  0.29569700  0.52409700  1
  C  349  1  0.08422600  0.29864200  0.50961400  1
  C  350  1  0.10829900  0.27922800  0.51431200  1
  C  351  1  0.09299400  0.25701400  0.52917900  1
  C  352  1  0.05708000  0.25358100  0.54182800  1
  C  353  1  0.03800000  0.27308900  0.54087000  1
  C  354  1  0.09266700  0.32088000  0.49091900  1
  C  356  1  0.00687400  0.27097100  0.55621500  1
  C  365  1  0.02982300  0.52130500  0.07491300  1
  C  366  1  0.03809300  0.50183500  0.07227000  1
  C  367  1  0.01536300  0.49855000  0.05629200  1
  C  368  1  0.99033900  0.51640400  0.04053000  1
  C  369  1  0.98481200  0.53682800  0.04138500  1
  C  370  1  0.00147600  0.53836600  0.06016700  1
  C  371  1  0.06838400  0.48608900  0.08583100  1
  C  372  1  0.99048800  0.55572400  0.06531400  1
  C  374  1  0.05018900  0.52367700  0.09235300  1
  C  375  1  0.08362500  0.50917200  0.10396500  1
  C  376  1  0.10753900  0.51394000  0.11863800  1
  C  377  1  0.09201500  0.52880900  0.12596300  1
  C  378  1  0.05608900  0.54144900  0.11669600  1
  C  379  1  0.03725500  0.54050100  0.09811300  1
  C  380  1  0.09223700  0.49044100  0.10048100  1
  C  382  1  0.00621000  0.55587700  0.08479300  1
  C  391  1  0.53072500  0.86615700  0.62578800  1
  C  392  1  0.53884200  0.86876400  0.60368000  1
  C  393  1  0.51606700  0.88477400  0.58441900  1
  C  394  1  0.49114100  0.90058900  0.58650400  1
  C  395  1  0.48577900  0.89976800  0.60777400  1
  C  396  1  0.50248300  0.88096600  0.62809700  1
  C  397  1  0.56906300  0.85515300  0.60149600  1
  C  398  1  0.49162700  0.87585700  0.65060000  1
  C  400  1  0.55115400  0.84870200  0.64560000  1
  C  401  1  0.58451800  0.83703400  0.64270600  1
  C  402  1  0.60852800  0.82234500  0.66213400  1
  C  403  1  0.59317500  0.81510400  0.68433400  1
  C  404  1  0.55728500  0.82440700  0.68771400  1
  C  405  1  0.53837300  0.84299300  0.66818100  1
  C  406  1  0.59295000  0.84045600  0.62050300  1
  C  408  1  0.50741000  0.85637100  0.67023600  1
  C  417  1  0.52892300  0.62522300  0.42011900  1
  C  418  1  0.53700600  0.60310900  0.43962000  1
  C  419  1  0.51417400  0.58387900  0.44292900  1
  C  420  1  0.48911900  0.58600900  0.42509700  1
  C  421  1  0.48375400  0.60727800  0.40465000  1
  C  422  1  0.50060900  0.62756900  0.40306300  1
  C  423  1  0.56726100  0.60088700  0.45536300  1
  C  424  1  0.48980700  0.65008200  0.38565300  1
  C  426  1  0.54940300  0.64500900  0.41771500  1
  C  427  1  0.58273100  0.64207700  0.43226600  1
  C  428  1  0.60669200  0.66148200  0.42754100  1
  C  429  1  0.59138800  0.68369600  0.41255200  1
  C  430  1  0.55560300  0.68713000  0.39982200  1
  C  431  1  0.53667000  0.66760700  0.40083100  1
  C  432  1  0.59113900  0.61986400  0.45104300  1
  C  434  1  0.50572400  0.66970000  0.38542200  1
  C  443  1  0.52850300  0.41955300  0.86677000  1
  C  444  1  0.53658300  0.43901100  0.86943400  1
  C  445  1  0.51384700  0.44224800  0.88547300  1
  C  446  1  0.48888200  0.42439600  0.90121300  1
  C  447  1  0.48345100  0.40401000  0.90029800  1
  C  448  1  0.50030200  0.40246800  0.88153700  1
  C  449  1  0.56675600  0.45477300  0.85585900  1
  C  450  1  0.48952800  0.38509200  0.87641000  1
  C  452  1  0.54891400  0.41721300  0.84929400  1
  C  453  1  0.58216900  0.43177500  0.83761700  1
  C  454  1  0.60612200  0.42708100  0.82286800  1
  C  455  1  0.59081100  0.41215500  0.81560300  1
  C  456  1  0.55504700  0.39943600  0.82494600  1
  C  457  1  0.53619200  0.40037400  0.84355100  1
  C  458  1  0.59054700  0.45052000  0.84108100  1
  C  460  1  0.50535500  0.38493200  0.85694000  1
  C  469  1  0.46595400  0.41855900  0.63282200  1
  C  470  1  0.45483000  0.43830300  0.61149200  1
  C  471  1  0.47712500  0.44381500  0.59132500  1
  C  472  1  0.50541500  0.42796500  0.59183900  1
  C  473  1  0.51314100  0.40695500  0.61225800  1
  C  474  1  0.49658100  0.40334100  0.63339600  1
  C  475  1  0.42204900  0.45191700  0.61112900  1
  C  476  1  0.50939200  0.38521600  0.65506900  1
  C  478  1  0.44622400  0.41399700  0.65362100  1
  C  479  1  0.41097400  0.42657200  0.65255800  1
  C  480  1  0.38848200  0.41981600  0.67301500  1
  C  481  1  0.40659500  0.40496100  0.69447600  1
  C  482  1  0.44395600  0.39420800  0.69597300  1
  C  483  1  0.46176000  0.39696600  0.67541200  1
  C  484  1  0.39924100  0.44542500  0.63106900  1
  C  486  1  0.49413000  0.38308700  0.67569200  1
  C  495  1  0.46769300  0.86023400  0.41910900  1
  C  496  1  0.45657900  0.86186800  0.43883000  1
  C  497  1  0.47882500  0.87651700  0.44432500  1
  C  498  1  0.50716300  0.89175200  0.42851300  1
  C  499  1  0.51490700  0.89229000  0.40753100  1
  C  500  1  0.49831700  0.87480000  0.40391500  1
  C  501  1  0.42384600  0.84867400  0.45243700  1
  C  502  1  0.51112200  0.87120100  0.38581600  1
  C  504  1  0.44797000  0.84401800  0.41455600  1
  C  505  1  0.41277100  0.83255400  0.42713200  1
  C  506  1  0.39031400  0.81883800  0.42042100  1
  C  507  1  0.40837300  0.81223600  0.40553900  1
  C  508  1  0.44567200  0.82145300  0.39477100  1
  C  509  1  0.46347800  0.83922200  0.39753600  1
  C  510  1  0.40108300  0.83521700  0.44597700  1
  C  512  1  0.49583000  0.85274300  0.38367800  1
  C  521  1  0.46730800  0.63232200  0.86085700  1
  C  522  1  0.45610100  0.61099700  0.86250100  1
  C  523  1  0.47817600  0.59075500  0.87725300  1
  C  524  1  0.50646300  0.59124900  0.89255300  1
  C  525  1  0.51422200  0.61167200  0.89310500  1
  C  526  1  0.49783600  0.63284300  0.87552400  1
  C  527  1  0.42339200  0.61069600  0.84923600  1
  C  528  1  0.51073800  0.65450000  0.87192800  1
  C  530  1  0.44775900  0.65316800  0.84453900  1
  C  531  1  0.41262300  0.65218100  0.83296900  1
  C  532  1  0.39029600  0.67269300  0.81916300  1
  C  533  1  0.40847200  0.69410900  0.81257500  1
  C  534  1  0.44575300  0.69554000  0.82188500  1
  C  535  1  0.46336700  0.67493200  0.83974800  1
  C  536  1  0.40079400  0.63070600  0.83565800  1
  C  538  1  0.49560700  0.67514600  0.85339700  1
  C  547  1  0.96695100  0.52223200  0.30902400  1
  C  548  1  0.95596100  0.50250100  0.33037500  1
  C  549  1  0.97814700  0.49705300  0.35054700  1
  C  550  1  0.00633900  0.51291100  0.34997500  1
  C  551  1  0.01394800  0.53390100  0.32953100  1
  C  552  1  0.99739100  0.53749000  0.30841700  1
  C  553  1  0.92335000  0.48884600  0.33076700  1
  C  554  1  0.01008500  0.55561200  0.28672900  1
  C  556  1  0.94728700  0.52673900  0.28824000  1
  C  557  1  0.91224000  0.51409200  0.28932400  1
  C  558  1  0.88980700  0.52076200  0.26887900  1
  C  559  1  0.90781500  0.53566000  0.24741000  1
  C  560  1  0.94499300  0.54651700  0.24587700  1
  C  561  1  0.96270200  0.54378100  0.26643200  1
  C  562  1  0.90065700  0.49523200  0.31082300  1
  C  564  1  0.99484000  0.55772800  0.26612400  1
  C  573  1  0.96934900  0.08054000  0.52257800  1
  C  574  1  0.95843400  0.07898300  0.50280300  1
  C  575  1  0.98077500  0.06428200  0.49734400  1
  C  576  1  0.00887200  0.04888400  0.51326900  1
  C  577  1  0.01636000  0.04826800  0.53430300  1
  C  578  1  0.99979100  0.06583000  0.53787400  1
  C  579  1  0.92581300  0.09231000  0.48910900  1
  C  580  1  0.01242200  0.06934900  0.55603200  1
  C  582  1  0.94957600  0.09680500  0.52710400  1
  C  583  1  0.91444800  0.10837200  0.51446000  1
  C  584  1  0.89186500  0.12208400  0.52119000  1
  C  585  1  0.90982000  0.12865500  0.53608900  1
  C  586  1  0.94708400  0.11934600  0.54691200  1
  C  587  1  0.96493700  0.10153000  0.54417700  1
  C  588  1  0.90290600  0.10576700  0.49557500  1
  C  590  1  0.99716500  0.08787700  0.55812300  1
  C  599  1  0.96891500  0.30848900  0.08102800  1
  C  600  1  0.95770700  0.32981400  0.07943800  1
  C  601  1  0.97966500  0.35002900  0.06462300  1
  C  602  1  0.00768500  0.34954500  0.04916400  1
  C  603  1  0.01541100  0.32911800  0.04857700  1
  C  604  1  0.99925600  0.30795300  0.06623600  1
  C  605  1  0.92513400  0.33013800  0.09281400  1
  C  606  1  0.01219100  0.28628500  0.06978700  1
  C  608  1  0.94951200  0.28765900  0.09739100  1
  C  609  1  0.91444400  0.28867200  0.10904200  1
  C  610  1  0.89219400  0.26818300  0.12286200  1
  C  611  1  0.91042100  0.24675000  0.12940000  1
  C  612  1  0.94765700  0.24530900  0.12001400  1
  C  613  1  0.96516400  0.26588800  0.10212000  1
  C  614  1  0.90261600  0.31015000  0.10641600  1
  C  616  1  0.99731200  0.26564600  0.08839300  1
  C  625  1  0.97449700  0.78478800  0.74170700  1
  C  626  1  0.94892100  0.76702500  0.75769900  1
  C  627  1  0.96413700  0.74790500  0.77839000  1
  C  628  1  0.00631200  0.74617000  0.78288800  1
  C  629  1  0.03146000  0.76405900  0.76674100  1
  C  630  1  0.01595800  0.78300400  0.74662300  1
  C  632  1  0.89662300  0.73325400  0.78834500  1
  C  633  1  0.88191200  0.75167900  0.76749100  1
  C  639  1  0.84170600  0.75399900  0.76126700  1
  C  643  1  0.95909000  0.80322000  0.72157900  1
  C  645  1  0.02518500  0.72744700  0.80153200  1
  C  647  1  0.97313800  0.74130000  0.38612700  1
  C  648  1  0.94781800  0.75739900  0.38796000  1
  C  649  1  0.96332300  0.77800700  0.38640200  1
  C  650  1  0.00554000  0.78231700  0.38357500  1
  C  651  1  0.03043300  0.76605600  0.38178600  1
  C  652  1  0.01464200  0.74602700  0.38294500  1
  C  654  1  0.89597900  0.78826100  0.39119200  1
  C  655  1  0.88097500  0.76750800  0.39357100  1
  C  661  1  0.84068200  0.76150800  0.39752600  1
  C  665  1  0.95744200  0.72128600  0.38774400  1
  C  667  1  0.02469600  0.80090800  0.38356200  1
  C  669  1  0.97210400  0.38544900  0.78476600  1
  C  670  1  0.94662000  0.38739300  0.76689000  1
  C  671  1  0.96191500  0.38581200  0.74778600  1
  C  672  1  0.00408000  0.38284000  0.74619900  1
  C  673  1  0.02913500  0.38091900  0.76420500  1
  C  674  1  0.01355100  0.38212000  0.78312000  1
  C  676  1  0.89448900  0.39085600  0.73290100  1
  C  677  1  0.87970300  0.39328100  0.75131700  1
  C  683  1  0.83949700  0.39733100  0.75353000  1
  C  687  1  0.95662800  0.38712800  0.80319700  1
  C  689  1  0.02303200  0.38280600  0.72755200  1
  C  691  1  0.47682700  0.15563600  0.20040400  1
  C  692  1  0.45123500  0.17344800  0.18441400  1
  C  693  1  0.46644300  0.19256400  0.16374600  1
  C  694  1  0.50863200  0.19424800  0.15926700  1
  C  695  1  0.53380100  0.17632300  0.17543200  1
  C  696  1  0.51830400  0.15737800  0.19552400  1
  C  698  1  0.39888700  0.20730000  0.15376900  1
  C  699  1  0.38418300  0.18888100  0.17460300  1
  C  705  1  0.34396200  0.18660400  0.18080600  1
  C  709  1  0.46138500  0.13721000  0.22049000  1
  C  711  1  0.52746600  0.21294100  0.14060700  1
  C  713  1  0.47519900  0.19980100  0.55578900  1
  C  714  1  0.44980800  0.18377100  0.55398400  1
  C  715  1  0.46524200  0.16312400  0.55552500  1
  C  716  1  0.50746100  0.15870600  0.55829300  1
  C  717  1  0.53242600  0.17489700  0.56005800  1
  C  718  1  0.51670600  0.19497100  0.55891100  1
  C  720  1  0.39783900  0.15304800  0.55081200  1
  C  721  1  0.38290900  0.17385500  0.54841800  1
  C  727  1  0.34264300  0.17999500  0.54452800  1
  C  731  1  0.45955800  0.21986800  0.55415300  1
  C  733  1  0.52654100  0.14007800  0.55825500  1
  C  735  1  0.47352000  0.55521400  0.15669400  1
  C  736  1  0.44803000  0.55333800  0.17456200  1
  C  737  1  0.46330700  0.55489800  0.19366000  1
  C  738  1  0.50547500  0.55777400  0.19525500  1
  C  739  1  0.53054200  0.55960600  0.17726700  1
  C  740  1  0.51497000  0.55844300  0.15834800  1
  C  742  1  0.39586800  0.55001000  0.20853200  1
  C  743  1  0.38109200  0.54762800  0.19011000  1
  C  749  1  0.34087400  0.54361900  0.18795700  1
  C  753  1  0.45805000  0.55357200  0.13826100  1
  C  755  1  0.52442600  0.55776900  0.21390300  1
  C  757  1  0.03236500  0.15225100  0.19347600  1
  C  758  1  0.05148400  0.17068500  0.17394000  1
  C  759  1  0.02917700  0.18780200  0.15470700  1
  C  760  1  0.98630800  0.18705900  0.15530100  1
  C  761  1  0.96760200  0.16837500  0.17465300  1
  C  762  1  0.98999500  0.15133800  0.19319700  1
  C  764  1  0.09145000  0.20596500  0.13630100  1
  C  765  1  0.11336000  0.18968600  0.15566900  1
  C  771  1  0.15487900  0.19024600  0.15705700  1
  C  775  1  0.05453000  0.13649900  0.21283500  1
  C  777  1  0.96117000  0.20455300  0.13924500  1
  C  779  1  0.03059200  0.19297100  0.56627900  1
  C  780  1  0.04986800  0.17325900  0.56778800  1
  C  781  1  0.02768500  0.15397600  0.57002300  1
  C  782  1  0.98481400  0.15467800  0.56989000  1
  C  783  1  0.96593600  0.17422400  0.56878200  1
  C  784  1  0.98819100  0.19281400  0.56718400  1
  C  786  1  0.09010100  0.13528000  0.57091600  1
  C  787  1  0.11192700  0.15467200  0.56773300  1
  C  793  1  0.15349100  0.15591000  0.56599700  1
  C  797  1  0.05266700  0.21238500  0.56248800  1
  C  799  1  0.95990400  0.13855500  0.56849900  1
  C  801  1  0.02912000  0.56598000  0.15273900  1
  C  802  1  0.04827000  0.56723500  0.17108000  1
  C  803  1  0.02597200  0.56937900  0.18818800  1
  C  804  1  0.98310600  0.56939900  0.18753600  1
  C  805  1  0.96435600  0.56856500  0.16895200  1
  C  806  1  0.98673000  0.56704000  0.15191500  1
  C  808  1  0.08827800  0.56987000  0.20619200  1
  C  809  1  0.11019700  0.56674800  0.18993100  1
  C  815  1  0.15173700  0.56488300  0.19043600  1
  C  819  1  0.05130400  0.56226900  0.13705600  1
  C  821  1  0.95805100  0.56790700  0.20508200  1
  C  823  1  0.53042200  0.78840700  0.74826200  1
  C  824  1  0.54950500  0.76997900  0.76786000  1
  C  825  1  0.52716000  0.75293600  0.78708600  1
  C  826  1  0.48429200  0.75374100  0.78643800  1
  C  827  1  0.46561400  0.77239100  0.76700200  1
  C  828  1  0.48804100  0.78938000  0.74847600  1
  C  830  1  0.58940200  0.73471000  0.80561500  1
  C  831  1  0.61136600  0.75092200  0.78626600  1
  C  837  1  0.65290600  0.75022500  0.78496300  1
  C  841  1  0.55263800  0.80405900  0.72890600  1
  C  843  1  0.45913500  0.73627800  0.80245500  1
  C  845  1  0.52922000  0.74774600  0.37511600  1
  C  846  1  0.54858600  0.76720300  0.37402400  1
  C  847  1  0.52650500  0.78652300  0.37189300  1
  C  848  1  0.48362800  0.78609600  0.37173100  1
  C  849  1  0.46467400  0.76682200  0.37238800  1
  C  850  1  0.48684200  0.74819000  0.37390200  1
  C  852  1  0.58900300  0.80467800  0.37169000  1
  C  853  1  0.61069700  0.78522200  0.37480000  1
  C  859  1  0.65220700  0.78366300  0.37678500  1
  C  863  1  0.55116900  0.72829400  0.37876200  1
  C  865  1  0.45872300  0.80224100  0.37318300  1
  C  867  1  0.52819000  0.37497200  0.78884300  1
  C  868  1  0.54730100  0.37344700  0.77061500  1
  C  869  1  0.52496100  0.37119700  0.75361400  1
  C  870  1  0.48209600  0.37134500  0.75424100  1
  C  871  1  0.46338500  0.37247500  0.77269900  1
  C  872  1  0.48579100  0.37408200  0.78965000  1
  C  874  1  0.58722200  0.37027100  0.73572700  1
  C  875  1  0.60919500  0.37347900  0.75188400  1
  C  881  1  0.65075600  0.37522100  0.75131400  1
  C  885  1  0.55041900  0.37877600  0.80442100  1
  C  887  1  0.45703500  0.37271900  0.73677200  1
  C  889  1  0.79970600  0.81720200  0.65468000  1
  C  890  1  0.77350200  0.80199100  0.65204600  1
  C  891  1  0.73113300  0.80588400  0.64957400  1
  C  892  1  0.71479700  0.82521500  0.65031600  1
  C  893  1  0.74115700  0.84014300  0.65318500  1
  C  894  1  0.78267000  0.83618500  0.65540800  1
  C  896  1  0.72399400  0.77208500  0.64597400  1
  C  897  1  0.76576000  0.76804500  0.64877900  1
  C  903  1  0.78400200  0.74949300  0.64855600  1
  C  907  1  0.84066800  0.81300800  0.65851600  1
  C  909  1  0.67439300  0.83104300  0.64798400  1
  C  911  1  0.79766600  0.65448500  0.44031800  1
  C  912  1  0.77128700  0.65169500  0.45819200  1
  C  913  1  0.72899700  0.64905900  0.45677400  1
  C  914  1  0.71292400  0.64978200  0.43668600  1
  C  915  1  0.73945100  0.65282400  0.41885300  1
  C  916  1  0.78088800  0.65520900  0.42058000  1
  C  918  1  0.72141700  0.64533400  0.49421400  1
  C  919  1  0.76310700  0.64826900  0.49546100  1
  C  925  1  0.78101800  0.64809100  0.51427100  1
  C  929  1  0.83856000  0.65838500  0.44072600  1
  C  931  1  0.67262100  0.64727900  0.43321700  1
  C  933  1  0.79716800  0.43999700  0.81736800  1
  C  934  1  0.77069600  0.45781900  0.80227100  1
  C  935  1  0.72836000  0.45628000  0.80625700  1
  C  936  1  0.71234100  0.43612000  0.82556300  1
  C  937  1  0.73897100  0.41834800  0.84037600  1
  C  938  1  0.78044600  0.42019500  0.83633100  1
  C  940  1  0.72064300  0.49375200  0.77259600  1
  C  941  1  0.76237700  0.49510000  0.76846100  1
  C  947  1  0.78032100  0.51397200  0.74992700  1
  C  951  1  0.83811500  0.44049800  0.81308000  1
  C  953  1  0.67201100  0.43250800  0.83148900  1
  C  955  1  0.30134600  0.12328800  0.28704800  1
  C  956  1  0.27493900  0.13842200  0.28977400  1
  C  957  1  0.23261200  0.13447100  0.29226100  1
  C  958  1  0.21653300  0.11516600  0.29144300  1
  C  959  1  0.24309600  0.10031700  0.28848300  1
  C  960  1  0.28457000  0.10432400  0.28625400  1
  C  962  1  0.22501900  0.16816200  0.29603900  1
  C  963  1  0.26674500  0.17225600  0.29322100  1
  C  969  1  0.28474700  0.19078400  0.29352300  1
  C  973  1  0.34228900  0.12750300  0.28327300  1
  C  975  1  0.17620000  0.10926200  0.29385400  1
  C  977  1  0.29941800  0.28657900  0.50161700  1
  C  978  1  0.27308000  0.28928400  0.48378000  1
  C  979  1  0.23072900  0.29177900  0.48525700  1
  C  980  1  0.21455000  0.29098500  0.50537600  1
  C  981  1  0.24104700  0.28805000  0.52316300  1
  C  982  1  0.28254200  0.28580800  0.52137300  1
  C  984  1  0.22330400  0.29549700  0.44781700  1
  C  985  1  0.26505100  0.29267000  0.44652800  1
  C  991  1  0.28314600  0.29293500  0.42770700  1
  C  995  1  0.34037200  0.28274400  0.50119600  1
  C  997  1  0.17417900  0.29329600  0.50895000  1
  C  999  1  0.29863400  0.50085300  0.12428300  1
  C  1000  1  0.27221200  0.48303600  0.13933500  1
  C  1001  1  0.22988800  0.48461200  0.13531900  1
  C  1002  1  0.21382600  0.50481300  0.11603200  1
  C  1003  1  0.24040100  0.52258900  0.10127400  1
  C  1004  1  0.28186900  0.52069900  0.10534500  1
  C  1006  1  0.22226400  0.44711100  0.16892300  1
  C  1007  1  0.26398800  0.44571300  0.17307500  1
  C  1013  1  0.28189300  0.42679800  0.19164200  1
  C  1017  1  0.33956700  0.50030700  0.12858300  1
  C  1019  1  0.17350900  0.50845500  0.11007000  1
  C  1021  1  0.69770000  0.50969300  0.27475600  1
  C  1022  1  0.72398400  0.49115500  0.27942400  1
  C  1023  1  0.76637600  0.49304700  0.28129100  1
  C  1024  1  0.78259300  0.51424200  0.27785600  1
  C  1025  1  0.75612600  0.53271800  0.27291100  1
  C  1026  1  0.71456900  0.53053400  0.27130000  1
  C  1028  1  0.77366700  0.45379600  0.28984300  1
  C  1029  1  0.73186100  0.45206200  0.28766700  1
  C  1035  1  0.71368400  0.43211000  0.29065600  1
  C  1039  1  0.65656200  0.50854100  0.27213000  1
  C  1041  1  0.82282400  0.51789200  0.28030000  1
  C  1043  1  0.69973800  0.12723200  0.51017100  1
  C  1044  1  0.72586900  0.14109700  0.49160000  1
  C  1045  1  0.76829500  0.13736400  0.49345700  1
  C  1046  1  0.78470300  0.11964300  0.51465200  1
  C  1047  1  0.75838300  0.10609800  0.53315400  1
  C  1048  1  0.71679100  0.10986800  0.53100400  1
  C  1050  1  0.77526500  0.16803200  0.45418500  1
  C  1051  1  0.73342100  0.17190000  0.45247400  1
  C  1057  1  0.71514400  0.18887900  0.43251100  1
  C  1061  1  0.65856600  0.13097800  0.50905900  1
  C  1063  1  0.82497700  0.11354400  0.51824600  1
  C  1065  1  0.69995000  0.27401600  0.12799400  1
  C  1066  1  0.72606200  0.27877600  0.14181200  1
  C  1067  1  0.76847900  0.28060500  0.13809400  1
  C  1068  1  0.78489900  0.27701100  0.12044800  1
  C  1069  1  0.75860500  0.27196800  0.10697000  1
  C  1070  1  0.71702200  0.27040200  0.11072100  1
  C  1072  1  0.77540700  0.28939400  0.16863500  1
  C  1073  1  0.73357500  0.28726600  0.17250000  1
  C  1079  1  0.71521100  0.29038900  0.18936900  1
  C  1083  1  0.65879700  0.27139600  0.13173700  1
  C  1085  1  0.82515400  0.27947800  0.11434900  1
  C  1087  1  0.19626600  0.43093300  0.66692200  1
  C  1088  1  0.22239600  0.44947600  0.66223100  1
  C  1089  1  0.26483200  0.44755000  0.66045700  1
  C  1090  1  0.28124800  0.42630600  0.66403600  1
  C  1091  1  0.25492800  0.40782900  0.66899000  1
  C  1092  1  0.21332500  0.41004800  0.67050700  1
  C  1094  1  0.27177900  0.48684800  0.65176200  1
  C  1095  1  0.22992700  0.48862600  0.65382100  1
  C  1101  1  0.21163700  0.50863200  0.65074900  1
  C  1105  1  0.15508900  0.43212000  0.66946500  1
  C  1107  1  0.32152900  0.42264100  0.66161700  1
  C  1109  1  0.19819100  0.81361100  0.43141600  1
  C  1110  1  0.22439700  0.79975300  0.44997000  1
  C  1111  1  0.26678100  0.80353600  0.44810800  1
  C  1112  1  0.28307100  0.82131300  0.42693000  1
  C  1113  1  0.25668500  0.83483600  0.40843700  1
  C  1114  1  0.21513000  0.83101600  0.41059000  1
  C  1116  1  0.27392100  0.77283100  0.48735900  1
  C  1117  1  0.23212300  0.76890000  0.48906600  1
  C  1123  1  0.21387700  0.75192400  0.50900600  1
  C  1127  1  0.15706000  0.80983300  0.43254900  1
  C  1129  1  0.32331000  0.82740900  0.42330900  1
  C  1131  1  0.19811600  0.66661600  0.81408600  1
  C  1132  1  0.22440600  0.66177500  0.80035400  1
  C  1133  1  0.26682900  0.66008200  0.80404200  1
  C  1134  1  0.28306200  0.66389900  0.82156100  1
  C  1135  1  0.25657700  0.66900500  0.83496000  1
  C  1136  1  0.21499200  0.67043800  0.83124200  1
  C  1138  1  0.27412200  0.65098600  0.77372000  1
  C  1139  1  0.23227900  0.65296700  0.76989200  1
  C  1145  1  0.21416300  0.64965400  0.75310300  1
  C  1149  1  0.15694300  0.66908800  0.81037100  1
  C  1151  1  0.32329800  0.66147400  0.82768600  1
  C  1153  1  0.01742300  0.89317200  0.52946000  1
  C  1154  1  0.01804800  0.87385300  0.52607300  1
  C  1155  1  0.02089000  0.87648100  0.50360000  1
  C  1156  1  0.02221500  0.89918300  0.48393000  1
  C  1157  1  0.02094100  0.91835600  0.48744000  1
  C  1158  1  0.01870900  0.91543000  0.50977000  1
  C  1160  1  0.02177000  0.83502500  0.52116100  1
  C  1161  1  0.01783800  0.83248900  0.54328300  1
  C  1167  1  0.01601200  0.81113400  0.56331000  1
  C  1171  1  0.02084200  0.89008400  0.55157300  1
  C  1173  1  0.02636300  0.90339400  0.46143100  1
  C  1175  1  0.01518300  0.52912800  0.48945200  1
  C  1176  1  0.01569300  0.52570300  0.51217400  1
  C  1177  1  0.01863700  0.50321800  0.53199500  1
  C  1178  1  0.02019600  0.48357600  0.52892300  1
  C  1179  1  0.01905200  0.48712000  0.50622800  1
  C  1180  1  0.01667800  0.50945900  0.48684900  1
  C  1182  1  0.01916600  0.52071600  0.55594600  1
  C  1183  1  0.01516500  0.54285400  0.53638300  1
  C  1189  1  0.01306500  0.56283600  0.53780100  1
  C  1193  1  0.01851700  0.55125900  0.47044400  1
  C  1195  1  0.02450300  0.46107600  0.54718000  1
  C  1197  1  0.01543500  0.48931300  0.89300200  1
  C  1198  1  0.01599400  0.51203400  0.87370100  1
  C  1199  1  0.01921700  0.53184400  0.87635700  1
  C  1200  1  0.02100100  0.52876900  0.89906700  1
  C  1201  1  0.01976000  0.50607900  0.91822100  1
  C  1202  1  0.01717100  0.48670600  0.91526700  1
  C  1204  1  0.01961600  0.55579100  0.83490700  1
  C  1205  1  0.01527300  0.53624500  0.83234700  1
  C  1211  1  0.01301100  0.53762000  0.81098000  1
  C  1215  1  0.01857700  0.47029800  0.88986400  1
  C  1217  1  0.02552800  0.54701600  0.90329700  1
  C  1219  1  0.51897700  0.04742700  0.41256800  1
  C  1220  1  0.51964100  0.06680400  0.41586200  1
  C  1221  1  0.52248300  0.06425900  0.43829900  1
  C  1222  1  0.52377700  0.04159000  0.45802200  1
  C  1223  1  0.52248300  0.02236400  0.45460400  1
  C  1224  1  0.52022100  0.02520300  0.43231100  1
  C  1226  1  0.52345600  0.10572300  0.42060400  1
  C  1227  1  0.51951800  0.10818400  0.39851500  1
  C  1233  1  0.51776100  0.12950600  0.37843800  1
  C  1237  1  0.52236900  0.05042800  0.39048300  1
  C  1239  1  0.52795300  0.03745900  0.48048600  1
  C  1241  1  0.51657400  0.41196600  0.45215900  1
  C  1242  1  0.51735200  0.41529700  0.42947400  1
  C  1243  1  0.52016100  0.43774600  0.40960100  1
  C  1244  1  0.52129600  0.45745200  0.41257800  1
  C  1245  1  0.51986900  0.45399900  0.43523700  1
  C  1246  1  0.51767100  0.43169100  0.45467000  1
  C  1248  1  0.52138900  0.42009700  0.38578900  1
  C  1249  1  0.51749000  0.39799400  0.40540100  1
  C  1255  1  0.51585600  0.37793500  0.40412700  1
  C  1259  1  0.52003800  0.38987500  0.47122600  1
  C  1261  1  0.52539700  0.47993200  0.39426400  1
  C  1263  1  0.51673600  0.45119100  0.04861900  1
  C  1264  1  0.51738500  0.42849300  0.06795700  1
  C  1265  1  0.52059300  0.40863900  0.06536300  1
  C  1266  1  0.52226700  0.41164400  0.04267700  1
  C  1267  1  0.52099600  0.43431300  0.02348500  1
  C  1268  1  0.51836800  0.45372800  0.02637600  1
  C  1270  1  0.52113100  0.38478200  0.10682400  1
  C  1271  1  0.51686000  0.40437400  0.10932800  1
  C  1277  1  0.51462200  0.40301900  0.13069300  1
  C  1281  1  0.51984200  0.47024900  0.05167900  1
  C  1283  1  0.52683800  0.39334900  0.03850800  1
  C  1285  1  0.98630600  0.06631300  0.40222300  1
  C  1286  1  0.98148200  0.08624300  0.40429200  1
  C  1287  1  0.97122600  0.08449800  0.42579200  1
  C  1288  1  0.96568000  0.06217300  0.44552200  1
  C  1289  1  0.97070500  0.04238600  0.44330700  1
  C  1290  1  0.98067600  0.04441500  0.42197900  1
  C  1292  1  0.97166300  0.12598100  0.40711800  1
  C  1293  1  0.98229600  0.12764400  0.38593200  1
  C  1299  1  0.98815100  0.14859700  0.36585800  1
  C  1303  1  0.99075300  0.06811500  0.38083100  1
  C  1305  1  0.95672900  0.05866000  0.46724300  1
  C  1307  1  0.98407300  0.40190200  0.44361200  1
  C  1308  1  0.97916200  0.40397300  0.42162300  1
  C  1309  1  0.96885100  0.42548000  0.40189000  1
  C  1310  1  0.96333700  0.44521800  0.40449300  1
  C  1311  1  0.96848000  0.44300400  0.42648100  1
  C  1312  1  0.97852300  0.42167100  0.44575700  1
  C  1314  1  0.96917100  0.40679600  0.37908800  1
  C  1315  1  0.97982100  0.38559900  0.39859200  1
  C  1321  1  0.98570100  0.36554300  0.39764800  1
  C  1325  1  0.98848000  0.38050300  0.46319900  1
  C  1327  1  0.95426100  0.46693700  0.38630300  1
  C  1329  1  0.98429700  0.44315200  0.06663600  1
  C  1330  1  0.97932200  0.42117800  0.08655900  1
  C  1331  1  0.96934700  0.40141700  0.08479100  1
  C  1332  1  0.96419600  0.40398800  0.06245200  1
  C  1333  1  0.96935500  0.42596700  0.04267100  1
  C  1334  1  0.97907800  0.44526700  0.04472200  1
  C  1336  1  0.96924100  0.37866500  0.12628100  1
  C  1337  1  0.97955400  0.39820000  0.12796500  1
  C  1343  1  0.98496300  0.39735400  0.14893400  1
  C  1347  1  0.98842400  0.46276200  0.06841100  1
  C  1349  1  0.95545800  0.38578300  0.05891700  1
  C  1351  1  0.48448700  0.87435400  0.53947600  1
  C  1352  1  0.47936300  0.85445900  0.53739700  1
  C  1353  1  0.46903600  0.85627100  0.51588700  1
  C  1354  1  0.46369800  0.87863000  0.49615700  1
  C  1355  1  0.46899300  0.89838300  0.49838100  1
  C  1356  1  0.47905900  0.89628800  0.51971600  1
  C  1358  1  0.46902700  0.81478800  0.53454800  1
  C  1359  1  0.47967200  0.81305500  0.55575100  1
  C  1365  1  0.48538800  0.79203400  0.57579900  1
  C  1369  1  0.48896600  0.87253600  0.56086700  1
  C  1371  1  0.45477300  0.88220400  0.47441700  1
  C  1373  1  0.48249600  0.53893400  0.49829100  1
  C  1374  1  0.47722700  0.53687200  0.52025900  1
  C  1375  1  0.46697500  0.51535700  0.53997000  1
  C  1376  1  0.46188300  0.49560900  0.53736400  1
  C  1377  1  0.46733800  0.49782100  0.51539200  1
  C  1378  1  0.47730200  0.51916000  0.49613600  1
  C  1380  1  0.46654500  0.53405300  0.56276100  1
  C  1381  1  0.47717000  0.55525300  0.54328200  1
  C  1387  1  0.48259800  0.57534600  0.54417800  1
  C  1391  1  0.48695300  0.56032600  0.47871300  1
  C  1393  1  0.45303700  0.47386500  0.55554100  1
  C  1395  1  0.48244500  0.49762400  0.87526100  1
  C  1396  1  0.47745800  0.51960500  0.85533500  1
  C  1397  1  0.46756100  0.53939300  0.85710700  1
  C  1398  1  0.46250500  0.53684200  0.87945000  1
  C  1399  1  0.46769300  0.51485600  0.89923000  1
  C  1400  1  0.47735900  0.49552700  0.89718000  1
  C  1402  1  0.46733500  0.56213900  0.81561700  1
  C  1403  1  0.47758700  0.54257500  0.81392800  1
  C  1409  1  0.48290400  0.54340300  0.79295600  1
  C  1413  1  0.48661100  0.47801000  0.87348000  1
  C  1415  1  0.45384200  0.55508000  0.88297600  1
  C  1417  1  0.04146000  0.98976400  0.57590200  1
  C  1418  1  0.02736900  0.97263800  0.59789000  1
  C  1419  1  0.04536500  0.95028700  0.60995600  1
  C  1420  1  0.07752700  0.94491000  0.59937600  1
  C  1421  1  0.09169300  0.96209700  0.57756700  1
  C  1422  1  0.07370900  0.98404700  0.56592700  1
  C  1424  1  0.99926200  0.94009300  0.64125700  1
  C  1425  1  0.98127700  0.96212900  0.62925300  1
  C  1431  1  0.94975200  0.96871900  0.63828600  1
  C  1435  1  0.01998600  0.00996800  0.56249500  1
  C  1437  1  0.09792600  0.92397200  0.61021100  1
  C  1439  1  0.03902700  0.57551300  0.34634800  1
  C  1440  1  0.02501100  0.59752900  0.34150800  1
  C  1441  1  0.04307000  0.60955600  0.35177400  1
  C  1442  1  0.07522900  0.59891100  0.36768900  1
  C  1443  1  0.08929900  0.57706400  0.37230600  1
  C  1444  1  0.07126700  0.56547000  0.36200300  1
  C  1446  1  0.99705800  0.64096000  0.33071500  1
  C  1447  1  0.97898000  0.62898800  0.32072000  1
  C  1453  1  0.94750600  0.63815200  0.30509600  1
  C  1457  1  0.01752000  0.56218400  0.33951500  1
  C  1459  1  0.09571200  0.60971100  0.37775300  1
  C  1461  1  0.03968800  0.34608600  0.98997200  1
  C  1462  1  0.02519100  0.34138200  0.97281500  1
  C  1463  1  0.04298600  0.35163300  0.95043100  1
  C  1464  1  0.07537000  0.36739200  0.94505700  1
  C  1465  1  0.08991500  0.37185700  0.96227600  1
  C  1466  1  0.07213200  0.36157800  0.98426000  1
  C  1468  1  0.99629900  0.33087100  0.94020700  1
  C  1469  1  0.97849700  0.32088200  0.96227000  1
  C  1475  1  0.94677300  0.30545900  0.96885600  1
  C  1479  1  0.01848100  0.33921800  0.01027000  1
  C  1481  1  0.09564300  0.37741200  0.92410100  1
  C  1483  1  0.54132000  0.95056900  0.36610400  1
  C  1484  1  0.52780600  0.96778100  0.34399600  1
  C  1485  1  0.54626700  0.98996600  0.33203600  1
  C  1486  1  0.57831500  0.99508200  0.34283200  1
  C  1487  1  0.59193200  0.97779200  0.36475100  1
  C  1488  1  0.57350300  0.95600400  0.37628600  1
  C  1490  1  0.50082800  0.00052200  0.30039600  1
  C  1491  1  0.48239100  0.97864900  0.31228800  1
  C  1497  1  0.45097600  0.97231100  0.30302600  1
  C  1501  1  0.51938600  0.93055600  0.37934800  1
  C  1503  1  0.59912900  0.01584000  0.33211000  1
  C  1505  1  0.53932200  0.36548200  0.59535400  1
  C  1506  1  0.52573000  0.34340900  0.60025100  1
  C  1507  1  0.54410400  0.33141400  0.58999400  1
  C  1508  1  0.57614600  0.34215200  0.57403300  1
  C  1509  1  0.58981700  0.36404800  0.56937500  1
  C  1510  1  0.57145400  0.37561800  0.57965400  1
  C  1512  1  0.49859300  0.29986900  0.61113900  1
  C  1513  1  0.48024300  0.31179400  0.62115400  1
  C  1519  1  0.44882900  0.30259900  0.63679400  1
  C  1523  1  0.51747200  0.37879300  0.60212700  1
  C  1525  1  0.59688800  0.33139400  0.56396200  1
  C  1527  1  0.53964100  0.59470800  0.95155200  1
  C  1528  1  0.52565200  0.59947800  0.96877600  1
  C  1529  1  0.54378000  0.58914800  0.99107300  1
  C  1530  1  0.57596000  0.57322300  0.99630900  1
  C  1531  1  0.59000900  0.56868300  0.97902800  1
  C  1532  1  0.57191700  0.57905300  0.95712400  1
  C  1534  1  0.49775500  0.61014600  0.00150300  1
  C  1535  1  0.47960600  0.62020200  0.97953200  1
  C  1541  1  0.44808400  0.63582300  0.97311100  1
  C  1545  1  0.51803700  0.60156900  0.93139700  1
  C  1547  1  0.59653000  0.56311100  0.01717100  1
  C  1549  1  0.44854900  0.60168400  0.35648200  1
  C  1550  1  0.46258000  0.60425700  0.33523000  1
  C  1551  1  0.44702000  0.59065300  0.32600300  1
  C  1552  1  0.41745100  0.57356600  0.33867500  1
  C  1553  1  0.40307100  0.57126800  0.35958200  1
  C  1554  1  0.41820200  0.58502100  0.36823500  1
  C  1556  1  0.49002300  0.61101800  0.29297100  1
  C  1557  1  0.50601000  0.62415400  0.30223400  1
  C  1563  1  0.53509300  0.64095300  0.29100800  1
  C  1567  1  0.46587800  0.61381700  0.36639300  1
  C  1569  1  0.39810600  0.56077600  0.33036400  1
  C  1571  1  0.45037300  0.95364700  0.60213600  1
  C  1572  1  0.46434400  0.97225800  0.60479400  1
  C  1573  1  0.44895200  0.99515300  0.59109600  1
  C  1574  1  0.41965800  0.99969800  0.57382300  1
  C  1575  1  0.40533600  0.98114500  0.57144800  1
  C  1576  1  0.42031300  0.95867600  0.58528100  1
  C  1578  1  0.49164500  0.00763800  0.61170400  1
  C  1579  1  0.50749400  0.98517600  0.62492000  1
  C  1585  1  0.53630000  0.97951700  0.64190700  1
  C  1589  1  0.46754900  0.93154400  0.61433900  1
  C  1591  1  0.40034400  0.02084800  0.56099300  1
  C  1593  1  0.44936300  0.35562600  0.95427600  1
  C  1594  1  0.46411800  0.33454100  0.97288600  1
  C  1595  1  0.44897300  0.32524900  0.99583200  1
  C  1596  1  0.41914500  0.33771800  0.00043300  1
  C  1597  1  0.40408400  0.35847000  0.98189200  1
  C  1598  1  0.41879300  0.36717600  0.95937300  1
  C  1600  1  0.49295800  0.29259200  0.00824700  1
  C  1601  1  0.50856000  0.30194400  0.98573400  1
  C  1607  1  0.53796500  0.29096200  0.97998600  1
  C  1611  1  0.46621500  0.36563400  0.93209600  1
  C  1613  1  0.40007300  0.32930400  0.02165200  1
  C  1615  1  0.94789200  0.33896600  0.58520900  1
  C  1616  1  0.96144400  0.33628500  0.60656700  1
  C  1617  1  0.94585600  0.35007200  0.61561700  1
  C  1618  1  0.91678100  0.36744400  0.60265600  1
  C  1619  1  0.90291500  0.36987600  0.58161400  1
  C  1620  1  0.91808500  0.35595500  0.57312400  1
  C  1622  1  0.98789600  0.32932200  0.64904000  1
  C  1623  1  0.00393600  0.31601300  0.63994400  1
  C  1629  1  0.03253000  0.29891200  0.65151000  1
  C  1633  1  0.96510900  0.32658100  0.57551100  1
  C  1635  1  0.89726200  0.38035000  0.61082500  1
  C  1637  1  0.95041200  0.98754500  0.33938000  1
  C  1638  1  0.96399400  0.96880500  0.33676800  1
  C  1639  1  0.94821300  0.94603800  0.35045700  1
  C  1640  1  0.91887400  0.94175600  0.36765300  1
  C  1641  1  0.90496300  0.96042800  0.37000400  1
  C  1642  1  0.92031500  0.98277100  0.35617300  1
  C  1644  1  0.99054100  0.93317800  0.32994200  1
  C  1645  1  0.00673900  0.95551500  0.31671600  1
  C  1651  1  0.03559700  0.96096100  0.29979700  1
  C  1655  1  0.96787200  0.00953800  0.32710900  1
  C  1657  1  0.89927400  0.92074600  0.38049200  1
  C  1659  1  0.94901000  0.58499800  0.98762400  1
  C  1660  1  0.96296100  0.60624400  0.96895300  1
  C  1661  1  0.94745000  0.61541500  0.94610500  1
  C  1662  1  0.91806500  0.60268000  0.94166200  1
  C  1663  1  0.90377400  0.58177200  0.96027700  1
  C  1664  1  0.91886200  0.57316400  0.98270300  1
  C  1666  1  0.99024400  0.64848600  0.93345500  1
  C  1667  1  0.00619500  0.63926600  0.95587500  1
  C  1673  1  0.03517600  0.65052600  0.96146100  1
  C  1677  1  0.96627200  0.57513100  0.00968100  1
  C  1679  1  0.89863800  0.61097800  0.92056900  1
  N  23  1  0.08453500  0.90423800  0.61431200  1
  N  24  1  0.00086300  0.90151700  0.55913200  1
  N  25  1  0.97457100  0.80917200  0.70173800  1
  N  26  1  0.86596300  0.82977300  0.64970100  1
  N  49  1  0.08239000  0.61384700  0.39340200  1
  N  50  1  0.99877200  0.55878500  0.45140700  1
  N  51  1  0.97284400  0.70136100  0.40148300  1
  N  52  1  0.86404100  0.64949500  0.43289200  1
  N  75  1  0.08221000  0.39305800  0.90435400  1
  N  76  1  0.99880700  0.45129800  0.90143100  1
  N  77  1  0.97212400  0.40094600  0.80921100  1
  N  78  1  0.86352200  0.43255600  0.82981800  1
  N  101  1  0.58608900  0.03566900  0.32800900  1
  N  102  1  0.50244700  0.03896100  0.38299500  1
  N  103  1  0.47670100  0.13121400  0.24037300  1
  N  104  1  0.36770700  0.11074800  0.29218200  1
  N  127  1  0.58377900  0.32728900  0.54827400  1
  N  128  1  0.49999300  0.38234500  0.49017200  1
  N  129  1  0.47485100  0.23976100  0.54032500  1
  N  130  1  0.36572500  0.29160900  0.50906200  1
  N  153  1  0.58330800  0.54743500  0.03694500  1
  N  154  1  0.50006800  0.48928300  0.04004800  1
  N  155  1  0.47352300  0.53970200  0.13226100  1
  N  156  1  0.36496500  0.50816800  0.11184400  1
  N  179  1  0.41304400  0.54487700  0.32710500  1
  N  180  1  0.50093600  0.48783500  0.37715400  1
  N  181  1  0.51580200  0.54275400  0.23492600  1
  N  182  1  0.63194000  0.51602900  0.28174300  1
  N  205  1  0.41534800  0.03996900  0.54514500  1
  N  206  1  0.50338100  0.04663700  0.48839700  1
  N  207  1  0.51783600  0.13402500  0.54328700  1
  N  208  1  0.63406900  0.11386900  0.51659600  1
  N  231  1  0.41518300  0.32604800  0.04074900  1
  N  232  1  0.50242900  0.37623300  0.04755600  1
  N  233  1  0.51859600  0.23392900  0.13467200  1
  N  234  1  0.63425000  0.28093500  0.11461900  1
  N  257  1  0.91211600  0.39622000  0.61410500  1
  N  258  1  0.99992300  0.45304800  0.56424300  1
  N  259  1  0.01448900  0.39790600  0.70653700  1
  N  260  1  0.13065000  0.42462700  0.65982600  1
  N  283  1  0.91401000  0.90154900  0.39642600  1
  N  284  1  0.00184300  0.89428300  0.45348700  1
  N  285  1  0.01610200  0.80701300  0.39851900  1
  N  286  1  0.13244300  0.82693100  0.42514300  1
  N  309  1  0.91350700  0.61421800  0.90141300  1
  N  310  1  0.00106500  0.56416400  0.89430500  1
  N  311  1  0.01641400  0.70646700  0.80746300  1
  N  312  1  0.13244900  0.65951800  0.82751000  1
  N  335  1  0.96890200  0.02221600  0.33648500  1
  N  336  1  0.01595500  0.05567300  0.37715800  1
  N  337  1  0.04061000  0.12763900  0.23353100  1
  N  338  1  0.14869700  0.12325100  0.28072000  1
  N  361  1  0.96682700  0.33603900  0.55346900  1
  N  362  1  0.01373200  0.37675600  0.47927800  1
  N  363  1  0.03867300  0.23309100  0.55075300  1
  N  364  1  0.14671500  0.28026200  0.50796700  1
  N  387  1  0.96717300  0.55308000  0.02239500  1
  N  388  1  0.01388200  0.47875000  0.05621900  1
  N  389  1  0.03748000  0.55043200  0.12819100  1
  N  390  1  0.14590400  0.50750700  0.12404900  1
  N  413  1  0.46827900  0.91880900  0.60502200  1
  N  414  1  0.51436000  0.88481700  0.56456400  1
  N  415  1  0.53875800  0.81295900  0.70819800  1
  N  416  1  0.64696500  0.81703500  0.66110400  1
  N  439  1  0.46588400  0.60458100  0.38844600  1
  N  440  1  0.51247700  0.56403400  0.46274900  1
  N  441  1  0.53716600  0.70765600  0.39076700  1
  N  442  1  0.64503900  0.66044500  0.43396200  1
  N  465  1  0.46616100  0.38768900  0.91936100  1
  N  466  1  0.51222500  0.46202800  0.88558500  1
  N  467  1  0.53651100  0.39048700  0.81343800  1
  N  468  1  0.64448400  0.43346400  0.81749400  1
  N  491  1  0.53377100  0.39126600  0.60966900  1
  N  492  1  0.47728100  0.46455300  0.57269300  1
  N  493  1  0.46540400  0.38641100  0.71534600  1
  N  494  1  0.34983400  0.42521000  0.67328500  1
  N  517  1  0.53561300  0.91049100  0.39187800  1
  N  518  1  0.47908300  0.87442100  0.46505700  1
  N  519  1  0.46707100  0.80981400  0.38700200  1
  N  520  1  0.35170600  0.81319300  0.42581400  1
  N  543  1  0.53460900  0.60905400  0.91143600  1
  N  544  1  0.47830500  0.57209900  0.87519100  1
  N  545  1  0.46735300  0.71481600  0.81024600  1
  N  546  1  0.35169100  0.67303800  0.81345000  1
  N  569  1  0.03420600  0.54966400  0.33210100  1
  N  570  1  0.97853900  0.47631500  0.36917500  1
  N  571  1  0.96642500  0.55421900  0.22650900  1
  N  572  1  0.85121500  0.51535900  0.26861300  1
  N  595  1  0.03663600  0.02989300  0.55007900  1
  N  596  1  0.98108600  0.06633600  0.47662900  1
  N  597  1  0.96842100  0.13090000  0.55475000  1
  N  598  1  0.85324000  0.12775900  0.51577100  1
  N  621  1  0.03543700  0.33172500  0.03012700  1
  N  622  1  0.97985500  0.36867800  0.06670100  1
  N  623  1  0.96929500  0.22598600  0.13158400  1
  N  624  1  0.85357000  0.26785600  0.12856900  1
  N  631  1  0.93659500  0.73214600  0.79302600  1
  N  634  1  0.90886700  0.76770500  0.75337800  1
  N  653  1  0.93599600  0.79274600  0.38759700  1
  N  656  1  0.90772400  0.75327100  0.39162700  1
  N  675  1  0.93445200  0.38712300  0.73190600  1
  N  678  1  0.90657900  0.39120300  0.76745200  1
  N  697  1  0.43887400  0.20836600  0.14911200  1
  N  700  1  0.41116400  0.17281100  0.18871600  1
  N  719  1  0.43785300  0.14844900  0.55437700  1
  N  722  1  0.40971300  0.18801000  0.55035200  1
  N  741  1  0.43582800  0.55365300  0.20953100  1
  N  744  1  0.40798900  0.54962100  0.17399300  1
  N  763  1  0.05070000  0.20439300  0.13644400  1
  N  766  1  0.09216200  0.17281300  0.17333400  1
  N  785  1  0.04931500  0.13555200  0.57207400  1
  N  788  1  0.09059100  0.17251600  0.56654300  1
  N  807  1  0.04751000  0.57120300  0.20468400  1
  N  810  1  0.08897200  0.56581900  0.17314100  1
  N  829  1  0.54864900  0.73634900  0.80540800  1
  N  832  1  0.59019200  0.76778600  0.76853200  1
  N  851  1  0.54824400  0.80470100  0.37023100  1
  N  854  1  0.58928200  0.76764200  0.37557800  1
  N  873  1  0.54644700  0.36911500  0.73722600  1
  N  876  1  0.58800600  0.37468700  0.76856300  1
  N  895  1  0.70826300  0.79069400  0.64636300  1
  N  898  1  0.78841800  0.78332400  0.65153400  1
  N  917  1  0.70593900  0.64572300  0.47519300  1
  N  920  1  0.78595200  0.65117900  0.47739500  1
  N  939  1  0.70521200  0.47466700  0.79117900  1
  N  942  1  0.78531100  0.47708300  0.78363000  1
  N  961  1  0.20953100  0.14958400  0.29556600  1
  N  964  1  0.28961600  0.15705600  0.29037000  1
  N  983  1  0.20772300  0.29506000  0.46685800  1
  N  986  1  0.28784700  0.28984300  0.46455900  1
  N  1005  1  0.20679100  0.46623000  0.15035700  1
  N  1008  1  0.28687100  0.46373800  0.15795600  1
  N  1027  1  0.78933500  0.47394300  0.28672300  1
  N  1030  1  0.70910200  0.47083000  0.28270500  1
  N  1049  1  0.79111000  0.15103500  0.47433200  1
  N  1052  1  0.71081100  0.15810900  0.47127700  1
  N  1071  1  0.79126500  0.28613500  0.15170600  1
  N  1074  1  0.71098700  0.28219800  0.15875700  1
  N  1093  1  0.28764000  0.46665900  0.65500300  1
  N  1096  1  0.20732300  0.46984100  0.65883200  1
  N  1115  1  0.28965800  0.78987000  0.46722600  1
  N  1118  1  0.20944100  0.78269700  0.47028300  1
  N  1137  1  0.28980500  0.65445900  0.79052600  1
  N  1140  1  0.20950700  0.65814100  0.78353400  1
  N  1159  1  0.02339500  0.85661000  0.50237300  1
  N  1162  1  0.01657300  0.85207700  0.54454300  1
  N  1181  1  0.02099500  0.50195500  0.55311000  1
  N  1184  1  0.01400200  0.54414800  0.51551900  1
  N  1203  1  0.02166200  0.55294800  0.85650000  1
  N  1206  1  0.01409500  0.51538500  0.85191700  1
  N  1225  1  0.52502100  0.08416700  0.43944300  1
  N  1228  1  0.51821100  0.08855300  0.39734000  1
  N  1247  1  0.52282500  0.43891700  0.38853500  1
  N  1250  1  0.51607000  0.39679100  0.42622000  1
  N  1269  1  0.52308400  0.38755600  0.08525300  1
  N  1272  1  0.51558000  0.42520800  0.08972000  1
  N  1291  1  0.96640300  0.10475600  0.42605000  1
  N  1294  1  0.98645800  0.10763800  0.38561300  1
  N  1313  1  0.96395100  0.42573800  0.38138700  1
  N  1316  1  0.98409300  0.38528500  0.41890200  1
  N  1335  1  0.96439800  0.38092700  0.10504000  1
  N  1338  1  0.98387500  0.41849700  0.10796500  1
  N  1357  1  0.46397400  0.83604800  0.51561200  1
  N  1360  1  0.48412700  0.83303300  0.55607700  1
  N  1379  1  0.46172100  0.51510300  0.56045400  1
  N  1382  1  0.48176600  0.55556900  0.52298500  1
  N  1401  1  0.46258900  0.55989500  0.83686000  1
  N  1404  1  0.48193100  0.52226900  0.83392600  1
  N  1423  1  0.03036700  0.93496900  0.63135100  1
  N  1426  1  0.99632300  0.97729300  0.60816300  1
  N  1445  1  0.02815000  0.63098600  0.34571100  1
  N  1448  1  0.99397600  0.60787100  0.32661600  1
  N  1467  1  0.02760900  0.34570500  0.93508900  1
  N  1470  1  0.99393700  0.32664800  0.97746300  1
  N  1489  1  0.53180700  0.00539400  0.31052200  1
  N  1492  1  0.49689000  0.96337800  0.33350300  1
  N  1511  1  0.52957200  0.30993300  0.59609500  1
  N  1514  1  0.49481700  0.33297800  0.61519300  1
  N  1533  1  0.52889000  0.59515300  0.00648500  1
  N  1536  1  0.49458000  0.61436500  0.96426600  1
  N  1555  1  0.46130100  0.59498800  0.30497100  1
  N  1558  1  0.49128800  0.62011800  0.32283300  1
  N  1577  1  0.46315100  0.01179000  0.59551000  1
  N  1580  1  0.49283200  0.96866700  0.62081600  1
  N  1599  1  0.46392000  0.30436300  0.01245000  1
  N  1602  1  0.49315600  0.32238100  0.96924400  1
  N  1621  1  0.95963200  0.34562800  0.63676700  1
  N  1624  1  0.98969300  0.32015000  0.61922800  1
  N  1643  1  0.96205600  0.92927200  0.34608900  1
  N  1646  1  0.99245700  0.97214800  0.32079200  1
  N  1665  1  0.96164000  0.63644700  0.92940900  1
  N  1668  1  0.99155500  0.61867000  0.97244100  1
  O  637  1  0.87167200  0.71685600  0.80391000  1
  O  640  1  0.82747800  0.77343400  0.75059400  1
  O  641  1  0.82461700  0.73956800  0.75784400  1
  O  659  1  0.87126300  0.80392000  0.39210300  1
  O  662  1  0.82647000  0.75106300  0.38854300  1
  O  663  1  0.82379600  0.75785400  0.41551700  1
  O  681  1  0.86961400  0.39184700  0.71639800  1
  O  684  1  0.82516000  0.38858200  0.77292500  1
  O  685  1  0.82250500  0.41525900  0.73907300  1
  O  703  1  0.37391600  0.22374100  0.13820200  1
  O  706  1  0.32979600  0.16718200  0.19145500  1
  O  707  1  0.32678300  0.20103800  0.18424700  1
  O  725  1  0.37305400  0.13744200  0.54995700  1
  O  728  1  0.32829400  0.19061600  0.55331700  1
  O  729  1  0.32553600  0.18340400  0.52667000  1
  O  747  1  0.37098700  0.54905000  0.22504500  1
  O  750  1  0.32675900  0.55258800  0.16849300  1
  O  751  1  0.32407000  0.52560200  0.20224500  1
  O  769  1  0.11022700  0.22295400  0.11748900  1
  O  772  1  0.17302500  0.17190200  0.16695400  1
  O  773  1  0.17216600  0.20651200  0.15724400  1
  O  791  1  0.10898900  0.11632800  0.57306800  1
  O  794  1  0.17106700  0.16584900  0.57455100  1
  O  795  1  0.17114200  0.15615000  0.54960300  1
  O  813  1  0.10706400  0.57182100  0.22310300  1
  O  816  1  0.16974200  0.57330200  0.17206800  1
  O  817  1  0.16925200  0.54849800  0.20671100  1
  O  835  1  0.60814000  0.71770900  0.82447100  1
  O  838  1  0.67076700  0.76863000  0.77514100  1
  O  839  1  0.67021500  0.73406400  0.78454100  1
  O  857  1  0.60800200  0.82341700  0.36987700  1
  O  860  1  0.67017300  0.77368700  0.36836000  1
  O  861  1  0.66960800  0.78340500  0.39325300  1
  O  879  1  0.60595900  0.36809300  0.71891200  1
  O  882  1  0.66849000  0.36668400  0.76977800  1
  O  883  1  0.66826500  0.39161200  0.73512400  1
  O  901  1  0.69933700  0.75798700  0.64253700  1
  O  904  1  0.81727300  0.75233200  0.63980100  1
  O  905  1  0.77656500  0.72934500  0.66351900  1
  O  923  1  0.69658500  0.64179000  0.51175800  1
  O  926  1  0.81430700  0.63930000  0.52011200  1
  O  927  1  0.77358300  0.66315800  0.51930400  1
  O  945  1  0.69572300  0.51126700  0.75861600  1
  O  948  1  0.81354000  0.51992400  0.75273600  1
  O  949  1  0.77272300  0.51925600  0.72976600  1
  O  967  1  0.20016200  0.18218000  0.29956800  1
  O  970  1  0.31801200  0.18794700  0.30227000  1
  O  971  1  0.27712300  0.21094600  0.27862600  1
  O  989  1  0.19851600  0.29900800  0.43028800  1
  O  992  1  0.31639200  0.30167100  0.42177500  1
  O  993  1  0.27562400  0.27802200  0.42247200  1
  O  1011  1  0.19738900  0.42961600  0.18288300  1
  O  1014  1  0.31507700  0.42088300  0.18862800  1
  O  1015  1  0.27463600  0.42169800  0.21177500  1
  O  1033  1  0.79843100  0.43565200  0.29535500  1
  O  1036  1  0.68059300  0.42702600  0.29977800  1
  O  1037  1  0.72089400  0.42445900  0.27757900  1
  O  1055  1  0.79989800  0.18068800  0.43602900  1
  O  1058  1  0.68217300  0.18459800  0.42754000  1
  O  1059  1  0.72176400  0.20960700  0.42503000  1
  O  1077  1  0.80000900  0.29499100  0.18121400  1
  O  1080  1  0.68209800  0.29953200  0.18525000  1
  O  1081  1  0.72230900  0.27740800  0.21012200  1
  O  1099  1  0.29641100  0.50498100  0.64627100  1
  O  1102  1  0.17870000  0.51363000  0.64141900  1
  O  1103  1  0.21818200  0.51613900  0.66398100  1
  O  1121  1  0.29860700  0.76020900  0.50551700  1
  O  1124  1  0.18072100  0.75594500  0.51406800  1
  O  1125  1  0.22114400  0.73120100  0.51665800  1
  O  1143  1  0.29891900  0.64534400  0.76120900  1
  O  1146  1  0.18128600  0.64029100  0.75752400  1
  O  1147  1  0.22075000  0.66271600  0.73232900  1
  O  1165  1  0.02477100  0.81638500  0.51831400  1
  O  1168  1  0.03163500  0.80902700  0.58079400  1
  O  1169  1  0.98820500  0.79750900  0.56685000  1
  O  1187  1  0.02199800  0.51783700  0.57744600  1
  O  1190  1  0.02887700  0.58023600  0.52241000  1
  O  1191  1  0.98490500  0.56643700  0.54766400  1
  O  1209  1  0.02259600  0.57727600  0.81628000  1
  O  1212  1  0.02830900  0.52219000  0.80879500  1
  O  1213  1  0.98509300  0.54785300  0.79744400  1
  O  1231  1  0.52650200  0.12440500  0.42336600  1
  O  1234  1  0.53339000  0.13149200  0.36099100  1
  O  1235  1  0.48999900  0.14324100  0.37483500  1
  O  1253  1  0.52454000  0.42288800  0.36433200  1
  O  1256  1  0.53150600  0.36047600  0.41956800  1
  O  1257  1  0.48816400  0.37435100  0.39399600  1
  O  1275  1  0.52410800  0.36331100  0.12548700  1
  O  1278  1  0.53022100  0.41846900  0.13267600  1
  O  1279  1  0.48648800  0.39312800  0.14412700  1
  O  1297  1  0.96584200  0.14511500  0.40886100  1
  O  1300  1  0.97782400  0.15032900  0.34752500  1
  O  1301  1  0.01547700  0.16183900  0.36423500  1
  O  1319  1  0.96333500  0.40854700  0.35821800  1
  O  1322  1  0.97509000  0.34732100  0.41430400  1
  O  1323  1  0.01332300  0.36379800  0.38624000  1
  O  1341  1  0.96331400  0.35781100  0.14540100  1
  O  1344  1  0.97435100  0.41398700  0.15056800  1
  O  1345  1  0.01216100  0.38571900  0.16235100  1
  O  1363  1  0.46301900  0.79569400  0.53278500  1
  O  1366  1  0.47477900  0.79048600  0.59402600  1
  O  1367  1  0.51290400  0.77881200  0.57753700  1
  O  1385  1  0.46031200  0.53231000  0.58360100  1
  O  1388  1  0.47225900  0.59365300  0.52752000  1
  O  1389  1  0.50963800  0.57702900  0.55592700  1
  O  1407  1  0.46139100  0.58300600  0.79649900  1
  O  1410  1  0.47223800  0.52679300  0.79133700  1
  O  1411  1  0.51007100  0.55496800  0.77950900  1
  O  1429  1  0.98586800  0.92386100  0.66234600  1
  O  1432  1  0.92369100  0.98124000  0.62506500  1
  O  1433  1  0.95417500  0.97043300  0.65573600  1
  O  1451  1  0.98377800  0.66209400  0.32584500  1
  O  1454  1  0.92139000  0.62486500  0.30608600  1
  O  1455  1  0.95216600  0.65535900  0.28581000  1
  O  1473  1  0.98252500  0.32616400  0.92394500  1
  O  1476  1  0.92095500  0.30626700  0.98144200  1
  O  1477  1  0.95082100  0.28630300  0.97048400  1
  O  1495  1  0.48799300  0.01684500  0.27919300  1
  O  1498  1  0.42453400  0.96004200  0.31604800  1
  O  1499  1  0.45572900  0.97050600  0.28564200  1
  O  1517  1  0.48567400  0.27869700  0.61602900  1
  O  1520  1  0.42244900  0.31567800  0.63608200  1
  O  1521  1  0.45355100  0.28519700  0.65597200  1
  O  1539  1  0.48450200  0.61495300  0.01781100  1
  O  1542  1  0.42194100  0.63488000  0.96079000  1
  O  1543  1  0.45269800  0.65508300  0.97109700  1
  O  1561  1  0.50298800  0.61389500  0.27248000  1
  O  1564  1  0.56066800  0.64339400  0.30270700  1
  O  1565  1  0.52819300  0.65850300  0.27225400  1
  O  1583  1  0.50451100  0.02519000  0.61467400  1
  O  1586  1  0.56188400  0.96535900  0.64425600  1
  O  1587  1  0.52892900  0.98042800  0.65955600  1
  O  1605  1  0.50660500  0.27225100  0.02579900  1
  O  1608  1  0.56311000  0.30287700  0.96563200  1
  O  1609  1  0.53167500  0.27210100  0.98132800  1
  O  1627  1  0.00034700  0.32632600  0.66965000  1
  O  1630  1  0.05836000  0.29644100  0.63991100  1
  O  1631  1  0.02478900  0.28130400  0.67001700  1
  O  1649  1  0.00306800  0.91550300  0.32703400  1
  O  1652  1  0.06143300  0.97500400  0.29723300  1
  O  1653  1  0.02830300  0.95977300  0.28228300  1
  O  1671  1  0.00313700  0.66896700  0.91583800  1
  O  1674  1  0.06076900  0.63885500  0.97564900  1
  O  1675  1  0.02817100  0.66930400  0.96019400  1
